data_image0
_chemical_formula_structural       Zn4H48C72N8O12
_chemical_formula_sum              "Zn4 H48 C72 N8 O12"
_cell_length_a       5.185821838495666
_cell_length_b       18.805069725317267
_cell_length_c       18.792493447653435
_cell_angle_alpha    88.86862655411154
_cell_angle_beta     82.04511161438067
_cell_angle_gamma    82.07497521964982

_space_group_name_H-M_alt    "P 1"
_space_group_IT_number       1

loop_
  _space_group_symop_operation_xyz
  'x, y, z'

loop_
  _atom_site_type_symbol
  _atom_site_label
  _atom_site_symmetry_multiplicity
  _atom_site_fract_x
  _atom_site_fract_y
  _atom_site_fract_z
  _atom_site_occupancy
  Zn  Zn1       1.0  0.8667080504834954  0.0595992599433401  0.48931757366980827  1.0000
  Zn  Zn2       1.0  0.4163144539234764  0.9402303484764045  0.5106214182740912  1.0000
  Zn  Zn3       1.0  0.07848031774491201  0.5106053540729006  0.06001895202430059  1.0000
  Zn  Zn4       1.0  0.6493392419622311  0.48918079646746543  0.9403906888755246  1.0000
  H   H1        1.0  0.0797441681450763  0.15359867155797247  0.1585142014953291  1.0000
  H   H2        1.0  0.46771408669666675  0.09264223886736998  0.08447542773653535  1.0000
  H   H3        1.0  0.7324987831119147  0.9520006955539342  0.29705103039462694  1.0000
  H   H4        1.0  0.6938744802472457  0.3538617294529444  0.12669363228378214  1.0000
  H   H5        1.0  0.035516071238987396  0.3482400432005334  0.29053749335525236  1.0000
  H   H6        1.0  0.5568644859324862  0.1938636459364105  0.40981608977426015  1.0000
  H   H7        1.0  0.013703937304768595  0.9365807105243956  0.17839693319764646  1.0000
  H   H8        1.0  0.3362173663699295  0.007512980613825002  0.3726844253572565  1.0000
  H   H9        1.0  0.9422675648497075  0.2518915802738916  0.1833220860646278  1.0000
  H   H10       1.0  0.27003709393308384  0.2411372605858587  0.3452778273546643  1.0000
  H   H11       1.0  0.8767615799775684  0.006533030743426599  0.072632137351725  1.0000
  H   H12       1.0  0.3920789106667826  0.8464134137285838  0.8415941688031197  1.0000
  H   H13       1.0  0.6450351608775973  0.9073282317206903  0.9155473070683228  1.0000
  H   H14       1.0  0.9822381998414969  0.0480098054428595  0.7029289830041278  1.0000
  H   H15       1.0  0.1765006724209569  0.6458577786516242  0.8733622155166785  1.0000
  H   H16       1.0  0.6750631850807383  0.6516271864497581  0.7099170782863878  1.0000
  H   H17       1.0  0.1601887237520714  0.8063166676206991  0.5904011318626345  1.0000
  H   H18       1.0  0.1296509592013848  0.0632605949003633  0.8215319741527479  1.0000
  H   H19       1.0  0.7169131012902524  0.9924983725095872  0.627337893356497  1.0000
  H   H20       1.0  0.37926052361589774  0.7478440418250756  0.8165536171511292  1.0000
  H   H21       1.0  0.8563094609552734  0.7588529086030106  0.6551847866505723  1.0000
  H   H22       1.0  0.9567569119943327  0.9932711639131284  0.9272935015633549  1.0000
  H   H23       1.0  0.7666549553527631  0.8409333818052004  0.1544455141966806  1.0000
  H   H24       1.0  0.44055245143347554  0.9146825161974306  0.09334940148537636  1.0000
  H   H25       1.0  0.3181190962383911  0.702432350256167  0.9523747453220608  1.0000
  H   H26       1.0  0.9554095392987707  0.8729392462147129  0.35448726375069123  1.0000
  H   H27       1.0  0.618075424731657  0.7089414477401732  0.3490834657157648  1.0000
  H   H28       1.0  0.2531334256071034  0.5901184192936952  0.19436314570194207  1.0000
  H   H29       1.0  0.050873096155527264  0.8208084482933983  0.9372819132625096  1.0000
  H   H30       1.0  0.6601286370520824  0.6269005582873389  0.007948489636959228  1.0000
  H   H31       1.0  0.8083232607568577  0.8163729347192471  0.2526726866900829  1.0000
  H   H32       1.0  0.4902700983482906  0.6542661970582839  0.24213053751473976  1.0000
  H   H33       1.0  0.11718234787121407  0.9264900233022078  0.007259771229861702  1.0000
  H   H34       1.0  0.7627438686935547  0.15888400116070758  0.8457624619575126  1.0000
  H   H35       1.0  0.44863872920027625  0.08513952034332559  0.9066905330963733  1.0000
  H   H36       1.0  0.9722878683884844  0.2973671279333913  0.047724475221173096  1.0000
  H   H37       1.0  0.18197360379624433  0.1271117761320042  0.6453901310690995  1.0000
  H   H38       1.0  0.6760673009566958  0.29082850291084134  0.6509956771142811  1.0000
  H   H39       1.0  0.03772954997616272  0.4097059402870612  0.8058872828760215  1.0000
  H   H40       1.0  0.8087344484905117  0.17890297673987726  0.0629030415044908  1.0000
  H   H41       1.0  0.29453651519848717  0.37282950835111706  0.9923114343344891  1.0000
  H   H42       1.0  0.8765772806167931  0.18360000170825688  0.7473685547749084  1.0000
  H   H43       1.0  0.38673197703312945  0.3453872063676044  0.7580950345102265  1.0000
  H   H44       1.0  0.05105903223698492  0.0732518457754949  0.9928980307184078  1.0000
  H   H45       1.0  0.17848598647335479  0.5408264619960832  0.930264192443893  1.0000
  H   H46       1.0  0.8984540309842256  0.929715216183915  0.45947305139677747  1.0000
  H   H47       1.0  0.286903633440154  0.07008766960058917  0.5404824649012028  1.0000
  H   H48       1.0  0.6489485413475576  0.4590835484831288  0.07024372012200072  1.0000
  C   C1        1.0  0.6228045681118745  0.23866653472218488  0.26750999345843945  1.0000
  C   C2        1.0  0.13372964884950272  0.12421852691799981  0.20579199724517133  1.0000
  C   C3        1.0  0.20019157018324313  0.42030946622684695  0.17128551982517587  1.0000
  C   C4        1.0  0.9908051211867104  0.1341454125407964  0.2733952107565897  1.0000
  C   C5        1.0  0.362475977854359  0.0727638334997067  0.19830045133632265  1.0000
  C   C6        1.0  0.52570758819666  0.0618846868071685  0.13092446710680855  1.0000
  C   C7        1.0  0.6754658612077192  0.9817114901493296  0.250020779233722  1.0000
  C   C8        1.0  0.06355967905806638  0.09119442450294461  0.3329543962804067  1.0000
  C   C9        1.0  0.4390101775121026  0.030889179875536885  0.25917188234553373  1.0000
  C   C10       1.0  0.602104409264726  0.3285524239104305  0.17432415422690883  1.0000
  C   C11       1.0  0.3487621642789802  0.35720213501425485  0.20471714490301446  1.0000
  C   C12       1.0  0.23330942741429775  0.3256222290400146  0.2671857635908381  1.0000
  C   C13       1.0  0.7157908734042593  0.16476449084971986  0.37361813728774246  1.0000
  C   C14       1.0  0.8303859280211511  0.9734529106971266  0.1843710394491963  1.0000
  C   C15       1.0  0.28271361711517057  0.0398842331311826  0.3268612925539571  1.0000
  C   C16       1.0  0.7401677485252589  0.27025647949226783  0.20551355270466584  1.0000
  C   C17       1.0  0.3664785735991742  0.26612056677191015  0.29792980907502903  1.0000
  C   C18       1.0  0.7530830831331768  0.013735881129733202  0.1244305029119913  1.0000
  C   C19       1.0  0.1297269513768597  0.7612506733536009  0.7326438412586356  1.0000
  C   C20       1.0  0.4638226583837267  0.8758395713779451  0.7943034940664119  1.0000
  C   C21       1.0  0.7931265732745557  0.5793995924509474  0.8290284326526488  1.0000
  C   C22       1.0  0.3986530775038512  0.8658638622083784  0.7267075511500991  1.0000
  C   C23       1.0  0.6337037957514298  0.927295909541847  0.8017383189105443  1.0000
  C   C24       1.0  0.7187644146438503  0.9381296369741817  0.8690983065436482  1.0000
  C   C25       1.0  0.9078030203188872  0.0182943514203231  0.749957780351046  1.0000
  C   C26       1.0  0.4878423466246816  0.9088631969408566  0.6671422528989553  1.0000
  C   C27       1.0  0.7293292011092946  0.9691928912678731  0.7408556338229673  1.0000
  C   C28       1.0  0.10678340768140512  0.671175873105568  0.8257699793874167  1.0000
  C   C29       1.0  0.9120196104278759  0.642558661447687  0.7955706227240212  1.0000
  C   C30       1.0  0.8269619202513213  0.6742381203907043  0.733208152176111  1.0000
  C   C31       1.0  0.25399285461070087  0.835355906471875  0.6265679934687681  1.0000
  C   C32       1.0  0.9890159602300769  0.026451158718977297  0.8155750663414023  1.0000
  C   C33       1.0  0.6496083744857084  0.9601954507230417  0.6732013422248995  1.0000
  C   C34       1.0  0.21749295415230552  0.7295139425221107  0.7944748517422724  1.0000
  C   C35       1.0  0.9308639706828855  0.7338307546548533  0.7024355901361828  1.0000
  C   C36       1.0  0.8918746556145302  0.9861834436906773  0.8755339781137224  1.0000
  C   C37       1.0  0.1406537977034218  0.7321007331923183  0.2394226525022418  1.0000
  C   C38       1.0  0.7436401677716803  0.793696334447688  0.12481414094894204  1.0000
  C   C39       1.0  0.3832187239351373  0.8283404051439971  0.42093127478506176  1.0000
  C   C40       1.0  0.8775294739519384  0.7262518607452078  0.13471924973650562  1.0000
  C   C41       1.0  0.5668024753801364  0.8010996134611118  0.07319972711425746  1.0000
  C   C42       1.0  0.4138255799109132  0.8683527359066262  0.06241794904069306  1.0000
  C   C43       1.0  0.3452519345955093  0.7493939273907486  0.9821115770407474  1.0000
  C   C44       1.0  0.848709050891088  0.6667796939634839  0.09161967260791212  1.0000
  C   C45       1.0  0.5328824243253223  0.7402928810234073  0.031218761351425352  1.0000
  C   C46       1.0  0.07214627864166798  0.8252443881886079  0.3292867688793209  1.0000
  C   C47       1.0  0.29677307177844636  0.7948512762427312  0.3579757912140096  1.0000
  C   C48       1.0  0.4430857379291027  0.7323543703807686  0.3264498280664582  1.0000
  C   C49       1.0  0.12313759698921696  0.626242950066171  0.1652402035490397  1.0000
  C   C50       1.0  0.19775582025202015  0.8149006703830038  0.9740305125535828  1.0000
  C   C51       1.0  0.6809137053506051  0.6727665411549423  0.040243566532794234  1.0000
  C   C52       1.0  0.9919698975267651  0.7940545735706407  0.2710312996985634  1.0000
  C   C53       1.0  0.36920715526165515  0.7016414214127947  0.26698643207968337  1.0000
  C   C54       1.0  0.2343207117742098  0.8748131028219958  0.014334619562589489  1.0000
  C   C55       1.0  0.11188301115823386  0.2677199548582506  0.7607197060352391  1.0000
  C   C56       1.0  0.6623517461949003  0.20610565737187156  0.8753426874444726  1.0000
  C   C57       1.0  0.6320203056042215  0.17155342681520117  0.5790612695017003  1.0000
  C   C58       1.0  0.7386469299193834  0.27356271181286473  0.8655249831167849  1.0000
  C   C59       1.0  0.44093072550656826  0.19871742629417344  0.9268681399649523  1.0000
  C   C60       1.0  0.3444102404150015  0.13147162274763252  0.9376130663265556  1.0000
  C   C61       1.0  0.07623362332667942  0.2504104467645263  0.017988439904051697  1.0000
  C   C62       1.0  0.6072090193770378  0.333021112220301  0.9086744354661107  1.0000
  C   C63       1.0  0.30408911765422897  0.25949645209225025  0.9688831671966156  1.0000
  C   C64       1.0  0.22586494390128567  0.17472877679384166  0.6706865748227884  1.0000
  C   C65       1.0  0.44913627410173956  0.2050273261175732  0.6420529404145298  1.0000
  C   C66       1.0  0.5017269823230279  0.26744502948905335  0.673631698160996  1.0000
  C   C67       1.0  0.9147866223417292  0.37356753959112143  0.8350279417936121  1.0000
  C   C68       1.0  0.9863804256792503  0.1848688678286408  0.026106566960159092  1.0000
  C   C69       1.0  0.3937962195344084  0.3270106210998946  0.959999445330446  1.0000
  C   C70       1.0  0.05635847661187646  0.2058714090841249  0.7290200679646688  1.0000
  C   C71       1.0  0.3378141316626895  0.29808202204668527  0.7331783611220786  1.0000
  C   C72       1.0  0.12330361758287701  0.1249816921511382  0.9857613623623607  1.0000
  N   N1        1.0  0.8852220276277694  0.11199534224149939  0.3937028439587279  1.0000
  N   N2        1.0  0.7658550961974911  0.1810427970948325  0.30182569238010604  1.0000
  N   N3        1.0  0.3908745298686824  0.8880999757413689  0.6064266667092895  1.0000
  N   N4        1.0  0.24886726354283434  0.8190002381314867  0.6983302949313668  1.0000
  N   N5        1.0  0.006955276146115396  0.6061605696696402  0.11237549144099292  1.0000
  N   N6        1.0  0.05554212509879604  0.6978952201915051  0.1816974698506613  1.0000
  N   N7        1.0  0.7257005406001866  0.3936454713543112  0.8879408930303538  1.0000
  N   N8        1.0  0.9352469810485359  0.3019271540296701  0.8185379933018381  1.0000
  O   O1        1.0  0.18371123185106344  0.03171478112570011  0.5319121019200992  1.0000
  O   O2        1.0  0.3219290220379563  0.44392306037794077  0.11139167778878085  1.0000
  O   O3        1.0  0.9754824866859338  0.44626573838301903  0.1987437167381571  1.0000
  O   O4        1.0  0.7480012162868092  0.9680450168419338  0.4678400397598991  1.0000
  O   O5        1.0  0.8779451513836064  0.5558603289622821  0.8890043692664803  1.0000
  O   O6        1.0  0.6224723021228795  0.5533158588568127  0.8014563429462028  1.0000
  O   O7        1.0  0.7909182133476236  0.46751868565141314  0.031856947853213934  1.0000
  O   O8        1.0  0.24034501405889577  0.8887441467572258  0.4439061701362519  1.0000
  O   O9        1.0  0.5804469385498977  0.800493014571053  0.4473015915457309  1.0000
  O   O10       1.0  0.2904970953534585  0.5323206682392366  0.9686220529425213  1.0000
  O   O11       1.0  0.5728000605273206  0.11111504123293506  0.5561165241984581  1.0000
  O   O12       1.0  0.8276817384639868  0.1994674248363778  0.5526625430891415  1.0000
