data_image0
_chemical_formula_structural       Cu2H20C12N28Cl4
_chemical_formula_sum              "Cu2 H20 C12 N28 Cl4"
_cell_length_a       6.608669596162067
_cell_length_b       7.074001082422402
_cell_length_c       15.721345361531085
_cell_angle_alpha    91.65669493565161
_cell_angle_beta     90.00039998092304
_cell_angle_gamma    89.99932105320516

_space_group_name_H-M_alt    "P 1"
_space_group_IT_number       1

loop_
  _space_group_symop_operation_xyz
  'x, y, z'

loop_
  _atom_site_type_symbol
  _atom_site_label
  _atom_site_symmetry_multiplicity
  _atom_site_fract_x
  _atom_site_fract_y
  _atom_site_fract_z
  _atom_site_occupancy
  Cu  Cu1       1.0  0.5000014321229216  0.5000012423400547  0.9999995824650155  1.0000
  Cu  Cu2       1.0  0.9999992152675501  9.079380020987852e-07  0.9999999835527404  1.0000
  H   H1        1.0  0.9659754907550279  0.5306155515789611  0.0778788379393944  1.0000
  H   H2        1.0  0.5340232179034529  0.0306120150940288  0.0778759013510708  1.0000
  H   H3        1.0  0.0340267061897563  0.4693874409835032  0.9221212128020113  1.0000
  H   H4        1.0  0.4659744395614069  0.9693881523163057  0.9221234736310817  1.0000
  H   H5        1.0  0.1902412537421085  0.49208124984571094  0.20984973974966437  1.0000
  H   H6        1.0  0.3097615052409352  0.9920837583149617  0.20984583696851186  1.0000
  H   H7        1.0  0.8097624563887107  0.5079189110277511  0.7901509073087991  1.0000
  H   H8        1.0  0.6902376653761237  0.007919234264619499  0.7901542137686448  1.0000
  H   H9        1.0  0.09039526574927949  0.2975111557645604  0.2652562329240524  1.0000
  H   H10       1.0  0.4096107782937892  0.7975097090779713  0.2652519351820644  1.0000
  H   H11       1.0  0.9096039049016156  0.7024861799567789  0.7347437383751582  1.0000
  H   H12       1.0  0.5903868791594106  0.20249328351017937  0.7347481155529607  1.0000
  H   H13       1.0  0.9326656855697095  0.5211667101723093  0.3741935234651805  1.0000
  H   H14       1.0  0.5673380175164624  0.021161382476684292  0.3741906606984031  1.0000
  H   H15       1.0  0.0673349982523561  0.47883203000110086  0.6258083757973552  1.0000
  H   H16       1.0  0.4326581267950544  0.9788387784395877  0.6258099863494307  1.0000
  H   H17       1.0  0.04035133123093  0.7169620164172128  0.32173954106622915  1.0000
  H   H18       1.0  0.45964905934020805  0.21696073744806907  0.3217372646863055  1.0000
  H   H19       1.0  0.9596478394220185  0.28303672701606086  0.678261722160272  1.0000
  H   H20       1.0  0.5403546507684283  0.7830422551058261  0.6782627860572248  1.0000
  C   C1        1.0  0.8472441350944209  0.49989228412248804  0.12312345895666248  1.0000
  C   C2        1.0  0.6527556485775747  0.999890906053075  0.1231203072768565  1.0000
  C   C3        1.0  0.1527580618503634  0.5001107084399762  0.876876591784743  1.0000
  C   C4        1.0  0.3472435220616603  0.00010925484608039962  0.8768803397752334  1.0000
  C   C5        1.0  0.0678753359437323  0.44769478953669745  0.25195425758601425  1.0000
  C   C6        1.0  0.4321286576169782  0.9476987383587525  0.251951374677553  1.0000
  C   C7        1.0  0.9321208083572682  0.5523053778821988  0.7480451173940138  1.0000
  C   C8        1.0  0.5678705129948227  0.052304257472144386  0.7480480400257006  1.0000
  C   C9        1.0  0.05988124918052759  0.5660795859541139  0.3345158384012592  1.0000
  C   C10       1.0  0.4401211917114125  0.06607571257004  0.3345109232475067  1.0000
  C   C11       1.0  0.9401254872990349  0.43392056189698275  0.665487352797072  1.0000
  C   C12       1.0  0.5598749525831792  0.9339272767753568  0.6654897635192966  1.0000
  N   N1        1.0  0.8782981751021524  0.464875714658163  0.2054436094777756  1.0000
  N   N2        1.0  0.6217049042306542  0.9648775164385409  0.20544041019123677  1.0000
  N   N3        1.0  0.12170099552336919  0.5351258637068594  0.7945564213998961  1.0000
  N   N4        1.0  0.37829577955872645  0.03512406191791939  0.7945596206885597  1.0000
  N   N5        1.0  0.6967598541095512  0.43655375150601106  0.2436041278791379  1.0000
  N   N6        1.0  0.8032426857965189  0.9365577349569775  0.24360277076112163  1.0000
  N   N7        1.0  0.3032393164969988  0.5634492475761945  0.756394650790213  1.0000
  N   N8        1.0  0.19675497165988526  0.06344384666792278  0.7563966240805158  1.0000
  N   N9        1.0  0.5590946442508198  0.454809572330376  0.1856882655881051  1.0000
  N   N10       1.0  0.9409097457079767  0.9548134120249541  0.18568731547500758  1.0000
  N   N11       1.0  0.4409075526834484  0.5451934267347055  0.814310513085502  1.0000
  N   N12       1.0  0.059087911765345794  0.04518534117081429  0.8143120396476603  1.0000
  N   N13       1.0  0.648505126495209  0.49334793770531593  0.1101226644152788  1.0000
  N   N14       1.0  0.851494522930487  0.9933471259264194  0.11012265548475138  1.0000
  N   N15       1.0  0.3514970704495681  0.5066550548571412  0.8898773863261269  1.0000
  N   N16       1.0  0.14850464770143648  0.0066516305120956  0.8898760636061451  1.0000
  N   N17       1.0  0.25411453972584036  0.534680855372386  0.3781943162157262  1.0000
  N   N18       1.0  0.24588900326026672  0.034680591088125795  0.37818951073302287  1.0000
  N   N19       1.0  0.7458876572420222  0.46532353189677156  0.6218095705885744  1.0000
  N   N20       1.0  0.7541071409972843  0.9653294660787708  0.621811911365107  1.0000
  N   N21       1.0  0.2770511930407622  0.6107633456620007  0.44856998769321876  1.0000
  N   N22       1.0  0.22295409420121362  0.11075766457641827  0.4485688544758588  1.0000
  N   N23       1.0  0.7229479775491113  0.38923543678700395  0.5514236431264621  1.0000
  N   N24       1.0  0.7770465895429126  0.8892453507537752  0.5514267440261093  1.0000
  N   N25       1.0  0.31817461638622996  0.6725903216818593  0.5148972179992555  1.0000
  N   N26       1.0  0.181835548602578  0.1725780283880098  0.5148971419116251  1.0000
  N   N27       1.0  0.6818290936599991  0.3274239813372261  0.4851036276540626  1.0000
  N   N28       1.0  0.8181666483104164  0.8274320287446386  0.48510428019501006  1.0000
  Cl  Cl1       1.0  0.7229170653384217  0.2790192752798291  0.9423490768134783  1.0000
  Cl  Cl2       1.0  0.7770867960718704  0.7790193023474926  0.9423494946611226  1.0000
  Cl  Cl3       1.0  0.2770851316317362  0.7209794746389447  0.0576509143494803  1.0000
  Cl  Cl4       1.0  0.22290934820374994  0.22098510771509433  0.057649939897359594  1.0000
