data_image0
_chemical_formula_structural       Al4Hg4H120C120N12Cl8O24
_chemical_formula_sum              "Al4 Hg4 H120 C120 N12 Cl8 O24"
_cell_length_a       15.022162271008833
_cell_length_b       16.282226207755613
_cell_length_c       16.712215392509087
_cell_angle_alpha    94.27724834388067
_cell_angle_beta     90.00012362362357
_cell_angle_gamma    90.00000080871114

_space_group_name_H-M_alt    "P 1"
_space_group_IT_number       1

loop_
  _space_group_symop_operation_xyz
  'x, y, z'

loop_
  _atom_site_type_symbol
  _atom_site_label
  _atom_site_symmetry_multiplicity
  _atom_site_fract_x
  _atom_site_fract_y
  _atom_site_fract_z
  _atom_site_occupancy
  Al  Al1       1.0  0.2514944350006587  0.996831156379166  0.0024663060617556125  1.0000
  Al  Al2       1.0  0.7514922840038949  0.5031699597964799  0.4975361447515282  1.0000
  Al  Al3       1.0  0.7485092853683567  0.0031690932417021  0.9975329721275584  1.0000
  Al  Al4       1.0  0.2485061109016868  0.4968321387581228  0.5024644626330428  1.0000
  Hg  Hg1       1.0  0.29030291175064343  0.0636650488512132  0.4134131497957937  1.0000
  Hg  Hg2       1.0  0.7903071087477613  0.43633912979609596  0.0865921309712192  1.0000
  Hg  Hg3       1.0  0.7096921547382209  0.9363407437036456  0.5865865255190953  1.0000
  Hg  Hg4       1.0  0.20969528025988635  0.5636598925738455  0.9134112478433847  1.0000
  H   H1        1.0  0.3230071693812491  0.2218456973884457  0.8935880822652463  1.0000
  H   H2        1.0  0.8230054191469945  0.27814938939228273  0.6064108521186353  1.0000
  H   H3        1.0  0.6769878971076152  0.7781527052314913  0.10641166194881889  1.0000
  H   H4        1.0  0.1769969698567166  0.7218533243996318  0.3935892009846213  1.0000
  H   H5        1.0  0.23580059698706887  0.20225582735164238  0.8225323597711236  1.0000
  H   H6        1.0  0.735797020332903  0.29774602111867665  0.6774674879136808  1.0000
  H   H7        1.0  0.7641964665520219  0.7977438076763406  0.17746807110813015  1.0000
  H   H8        1.0  0.2642040373074153  0.7022566952516626  0.3225349588331809  1.0000
  H   H9        1.0  0.34715536947129516  0.18230281562592407  0.792809205679937  1.0000
  H   H10       1.0  0.84715519287424  0.31769227751402696  0.7071921695617076  1.0000
  H   H11       1.0  0.6528396970191181  0.8176968200465352  0.20719182360859625  1.0000
  H   H12       1.0  0.15284719613192274  0.6823061276850096  0.2928099683044322  1.0000
  H   H13       1.0  0.29264659560640643  0.8142693074523208  0.8065393890838876  1.0000
  H   H14       1.0  0.7926357322273319  0.6857288847310059  0.6934643540545551  1.0000
  H   H15       1.0  0.7073631159128126  0.1857297123396577  0.19346159609295197  1.0000
  H   H16       1.0  0.20735334312082188  0.31427260374293536  0.3065415948959682  1.0000
  H   H17       1.0  0.3598585500444215  0.8733775135078119  0.7440674419603113  1.0000
  H   H18       1.0  0.8598511633791617  0.6266243838434491  0.7559360989300998  1.0000
  H   H19       1.0  0.6401484987431729  0.12662335457347496  0.25593427400316665  1.0000
  H   H20       1.0  0.14013857764961557  0.3733807973417953  0.2440677211321827  1.0000
  H   H21       1.0  0.2432801110594767  0.8732043686498943  0.7314102732806445  1.0000
  H   H22       1.0  0.7432734203975214  0.6267932005680806  0.7685939276323879  1.0000
  H   H23       1.0  0.7567276034103473  0.12679465114192817  0.2685907118942409  1.0000
  H   H24       1.0  0.2567189833624041  0.3732052052748074  0.23140880863522278  1.0000
  H   H25       1.0  0.15467748651789748  0.08479132952130189  0.5718628419111268  1.0000
  H   H26       1.0  0.6546838324665102  0.4151945042857719  0.9281458728971541  1.0000
  H   H27       1.0  0.8453169142929723  0.9152156993091936  0.4281411105337227  1.0000
  H   H28       1.0  0.34531722517702684  0.5847971300830321  0.07185937004900468  1.0000
  H   H29       1.0  0.14885027344416096  0.06858557579306529  0.7198538051081228  1.0000
  H   H30       1.0  0.6488482770998587  0.431402102167425  0.7801526370325218  1.0000
  H   H31       1.0  0.8511447930463729  0.9314226815775796  0.2801472435332428  1.0000
  H   H32       1.0  0.35114678939353877  0.5685913779119076  0.21985094305210845  1.0000
  H   H33       1.0  0.4305167682081786  0.013744059565752299  0.708731908505456  1.0000
  H   H34       1.0  0.9305081428974872  0.4862639775600713  0.7912681627061102  1.0000
  H   H35       1.0  0.5694769669105424  0.9862512604227616  0.29126462302114214  1.0000
  H   H36       1.0  0.0694835951756687  0.5137411991129  0.20873146847952737  1.0000
  H   H37       1.0  0.4239249988643294  0.030532387225498805  0.5624521113188834  1.0000
  H   H38       1.0  0.9239300371967045  0.4694768799880293  0.9375474368594751  1.0000
  H   H39       1.0  0.5760647421564471  0.9694641651705994  0.43754510686704856  1.0000
  H   H40       1.0  0.0760723518034254  0.5305258305807142  0.062449624187635805  1.0000
  H   H41       1.0  0.537385430260855  0.907594463122237  0.05458956320526909  1.0000
  H   H42       1.0  0.0373879673882271  0.5924078512967198  0.4454125572674741  1.0000
  H   H43       1.0  0.4626216185279333  0.09241133265672369  0.9454131041774827  1.0000
  H   H44       1.0  0.9626164186601542  0.4075905474561452  0.5545835964883281  1.0000
  H   H45       1.0  0.5152702304681397  0.9177407215476237  0.15899998746824906  1.0000
  H   H46       1.0  0.0152665261443516  0.5822640542243319  0.3410034630882065  1.0000
  H   H47       1.0  0.4847334899049968  0.08226507423108131  0.8410026799112487  1.0000
  H   H48       1.0  0.9847298717091562  0.4177398893964721  0.6589948830275175  1.0000
  H   H49       1.0  0.5159378308692766  0.006626766770892799  0.10094197610204957  1.0000
  H   H50       1.0  0.015934274849918495  0.4933773656987909  0.3990597761995288  1.0000
  H   H51       1.0  0.484067886553305  0.9933796448895935  0.8990607354053991  1.0000
  H   H52       1.0  0.9840601259497888  0.5066253422907963  0.6009348911948605  1.0000
  H   H53       1.0  0.2439937170091184  0.753987091364486  0.171350281415819  1.0000
  H   H54       1.0  0.7439891699270476  0.7460164858739377  0.32865113441229  1.0000
  H   H55       1.0  0.7560113347218617  0.24601315438869162  0.8286454063074159  1.0000
  H   H56       1.0  0.25600190245825866  0.2539843757597708  0.6713445974232924  1.0000
  H   H57       1.0  0.19930296259008878  0.7354188876568416  0.07342042976073772  1.0000
  H   H58       1.0  0.6992986504831434  0.764585301045095  0.426583336465164  1.0000
  H   H59       1.0  0.8007034205098335  0.26457951303007826  0.9265775192307044  1.0000
  H   H60       1.0  0.30069109053523846  0.23541617582549884  0.5734118410838887  1.0000
  H   H61       1.0  0.14378174635259458  0.804763243045521  0.14393059828694277  1.0000
  H   H62       1.0  0.6437765981203114  0.6952384727929442  0.35607228447527456  1.0000
  H   H63       1.0  0.8562292965239208  0.195239463656101  0.8560628723012512  1.0000
  H   H64       1.0  0.3562158056325089  0.3047605424852406  0.6439245118060484  1.0000
  H   H65       1.0  0.5254691098787561  0.6224785444058014  0.11849904154399839  1.0000
  H   H66       1.0  0.025465509210711397  0.8775280870540882  0.3815105454423318  1.0000
  H   H67       1.0  0.47453927026571546  0.37751430947880477  0.8814949198479809  1.0000
  H   H68       1.0  0.9745288916038604  0.12247278682790609  0.6184965562098482  1.0000
  H   H69       1.0  0.4396870935591081  0.7220208785930354  0.04146123991985461  1.0000
  H   H70       1.0  0.9396855210353221  0.7779845814401581  0.45854487976114905  1.0000
  H   H71       1.0  0.5603179581656619  0.2779744349500318  0.9585293075055219  1.0000
  H   H72       1.0  0.06030821408399589  0.2220095074297319  0.5414521619246668  1.0000
  H   H73       1.0  0.38102736857315017  0.856783057500948  0.2676821357218912  1.0000
  H   H74       1.0  0.8810272482351921  0.6432254695337393  0.2323210978508072  1.0000
  H   H75       1.0  0.6189816772521864  0.14321595262147468  0.732309873285871  1.0000
  H   H76       1.0  0.11897314370676779  0.3567827755892877  0.7676685809824234  1.0000
  H   H77       1.0  0.4686652976132492  0.7528158136398986  0.3348697562639273  1.0000
  H   H78       1.0  0.9686670157455807  0.7471933468647124  0.1651372832418332  1.0000
  H   H79       1.0  0.531345079579239  0.24718504477215222  0.665122983534381  1.0000
  H   H80       1.0  0.0313406987217419  0.2528167555732708  0.834861504144996  1.0000
  H   H81       1.0  0.1889810457595473  0.15081235924707675  0.21734607409896253  1.0000
  H   H82       1.0  0.688983713349188  0.3491856427872406  0.2826567720819355  1.0000
  H   H83       1.0  0.8110126893686668  0.8491774268316375  0.782658438050795  1.0000
  H   H84       1.0  0.3110166786056681  0.650815224004262  0.7173437470525812  1.0000
  H   H85       1.0  0.08858734107959518  0.19985945475752226  0.18783089647714488  1.0000
  H   H86       1.0  0.588588746889478  0.3001366819805398  0.31216982581455  1.0000
  H   H87       1.0  0.9114083910973532  0.8001309465583404  0.8121730613893448  1.0000
  H   H88       1.0  0.4114109793821327  0.6998629530476491  0.6878306050673045  1.0000
  H   H89       1.0  0.1934284031279461  0.23584549073593308  0.15673988341243464  1.0000
  H   H90       1.0  0.6934298826012507  0.26415251521772376  0.3432659635183199  1.0000
  H   H91       1.0  0.806567994738046  0.7641467633819377  0.8432689941225462  1.0000
  H   H92       1.0  0.3065711750341721  0.7358440384685281  0.6567324515011277  1.0000
  H   H93       1.0  0.026137754025803893  0.11671794098493389  0.8650722514175297  1.0000
  H   H94       1.0  0.526136740144821  0.3832838791737743  0.6349313752437948  1.0000
  H   H95       1.0  0.9738679634049631  0.8832841672397437  0.13493733214263406  1.0000
  H   H96       1.0  0.4738669802253312  0.6167132923282067  0.3650688791379507  1.0000
  H   H97       1.0  0.9438752256790222  0.08801597292914208  0.9332324808937854  1.0000
  H   H98       1.0  0.44387752878152753  0.41198344652461566  0.566769392325966  1.0000
  H   H99       1.0  0.056122503546895096  0.9119848970853183  0.06677103029426949  1.0000
  H   H100      1.0  0.5561248602259422  0.5880137282004301  0.43323385411061816  1.0000
  H   H101      1.0  0.004115633491629499  0.0110337575590336  0.8733904688281412  1.0000
  H   H102      1.0  0.5041152677447299  0.4889668241655725  0.6266100344709713  1.0000
  H   H103      1.0  0.9958827614131208  0.9889671085876724  0.12660945189319509  1.0000
  H   H104      1.0  0.4958897839923963  0.5110303479811475  0.3733908183233012  1.0000
  H   H105      1.0  0.8067062227902823  0.2375485441714247  0.09692247653028119  1.0000
  H   H106      1.0  0.3067040025652473  0.26245809347899035  0.40307643028050677  1.0000
  H   H107      1.0  0.1932935034786425  0.762452935923122  0.9030756930846733  1.0000
  H   H108      1.0  0.693295058028063  0.7375470883516188  0.5969279882021111  1.0000
  H   H109      1.0  0.9113389370644568  0.11866750310758079  0.07650962408278157  1.0000
  H   H110      1.0  0.4113407625016947  0.3813379165823747  0.4234870053988472  1.0000
  H   H111      1.0  0.08865679511135478  0.8813333662620904  0.9234932886920928  1.0000
  H   H112      1.0  0.5886609608210945  0.6186654150250206  0.5765148870634462  1.0000
  H   H113      1.0  0.11406482561753961  0.29160380069470193  0.015039409987238605  1.0000
  H   H114      1.0  0.6140599863905365  0.2083941883210798  0.48496209289774567  1.0000
  H   H115      1.0  0.8859402261257968  0.7083909137272001  0.9849666520040754  1.0000
  H   H116      1.0  0.3859364114660835  0.7916048314698542  0.5150388922660836  1.0000
  H   H117      1.0  0.0025416332812398  0.40366436874393224  0.0422103890779439  1.0000
  H   H118      1.0  0.5025340637194802  0.0963360637598569  0.4577886786283257  1.0000
  H   H119      1.0  0.9974634184594676  0.5963328066259593  0.9577934557724743  1.0000
  H   H120      1.0  0.4974603370893576  0.903664804965075  0.5422136357340221  1.0000
  C   C1        1.0  0.30057758117274597  0.1801450063793055  0.8431882830392394  1.0000
  C   C2        1.0  0.8005759525909111  0.3198525404164343  0.6568107839974642  1.0000
  C   C3        1.0  0.6994181509992429  0.8198533962406813  0.15681146117547937  1.0000
  C   C4        1.0  0.19942643641554267  0.6801489441907549  0.3431915744986966  1.0000
  C   C5        1.0  0.2907807544923173  0.09463832861153071  0.8706655682581539  1.0000
  C   C6        1.0  0.7907797277075587  0.40536168146627466  0.6293348529521693  1.0000
  C   C7        1.0  0.709218971776302  0.9053600720748634  0.12933238072677972  1.0000
  C   C8        1.0  0.20922332697856658  0.5946410316810643  0.3706646017405076  1.0000
  C   C9        1.0  0.28785633985396686  0.0255231839049088  0.8139916041874571  1.0000
  C   C10       1.0  0.7878514562687541  0.47447374824050575  0.6860103859053408  1.0000
  C   C11       1.0  0.7121400580027099  0.9744764517676501  0.1860094251023767  1.0000
  C   C12       1.0  0.21214227885659648  0.5255308151295209  0.31399159480115196  1.0000
  C   C13       1.0  0.2881772382034668  0.9439325772430182  0.8379975831120274  1.0000
  C   C14       1.0  0.788171622025537  0.5560649983593821  0.6620061071676557  1.0000
  C   C15       1.0  0.7118238194341585  0.056064594258757004  0.1620026712671176  1.0000
  C   C16       1.0  0.2118227787827678  0.443937717365813  0.33799574116147807  1.0000
  C   C17       1.0  0.2963663977793658  0.871765242782928  0.7766417450798357  1.0000
  C   C18       1.0  0.7963576017645265  0.6282311023380343  0.723361872955067  1.0000
  C   C19       1.0  0.7036426480550516  0.12823131219321476  0.22335786676988073  1.0000
  C   C20       1.0  0.20363480199718959  0.3717710000839034  0.2766423248910214  1.0000
  C   C21       1.0  0.21389669715274096  0.0683318164383948  0.6049089102289285  1.0000
  C   C22       1.0  0.7139022986387857  0.4316577212849636  0.8950995867008658  1.0000
  C   C23       1.0  0.7860957066040227  0.9316708973527383  0.39509114286456537  1.0000
  C   C24       1.0  0.2860987590034441  0.5683351435578388  0.10490454767484889  1.0000
  C   C25       1.0  0.21128798327488596  0.0596514736799492  0.687080963984364  1.0000
  C   C26       1.0  0.7112853999404792  0.4403392902405513  0.8129228287993939  1.0000
  C   C27       1.0  0.7887077488975294  0.9403512401114396  0.312919089112384  1.0000
  C   C28       1.0  0.28871166359968464  0.5596566507869198  0.1870785341462877  1.0000
  C   C29       1.0  0.28922820869445326  0.038407509163533894  0.7269520742702011  1.0000
  C   C30       1.0  0.789225530341632  0.46158880924910045  0.7730516696145313  1.0000
  C   C31       1.0  0.7107668577965001  0.9615902795086694  0.2730494210515459  1.0000
  C   C32       1.0  0.21076820478186417  0.5384114416602513  0.2269488053874724  1.0000
  C   C33       1.0  0.36735006321298147  0.0287506134686168  0.6812111546639129  1.0000
  C   C34       1.0  0.8673468289431623  0.4712506377812246  0.8187871108493636  1.0000
  C   C35       1.0  0.632643671905079  0.9712453217568893  0.318784822577463  1.0000
  C   C36       1.0  0.13264956891011076  0.528750842313066  0.18121105876233656  1.0000
  C   C37       1.0  0.3641693312648257  0.038341469270818614  0.5993275208720943  1.0000
  C   C38       1.0  0.8641662929062404  0.4616622495200247  0.9006751038054545  1.0000
  C   C39       1.0  0.6358250695366648  0.9616575453628968  0.40066867699995606  1.0000
  C   C40       1.0  0.13582877358423667  0.5383380020340667  0.09932596960908309  1.0000
  C   C41       1.0  0.4977121036426978  0.9415799188657205  0.10150274564063008  1.0000
  C   C42       1.0  0.9977110480520678  0.5584249317915916  0.3985010497126567  1.0000
  C   C43       1.0  0.5022929480967591  0.05842649279471599  0.898499965866172  1.0000
  C   C44       1.0  0.0022873468500535  0.4415783953031108  0.601496653867784  1.0000
  C   C45       1.0  0.40067611677530107  0.9313115100867081  0.0826526468165909  1.0000
  C   C46       1.0  0.9006751065647193  0.5686945577868129  0.4173516454882601  1.0000
  C   C47       1.0  0.5993309320069713  0.06869366400892568  0.9173445907390911  1.0000
  C   C48       1.0  0.0993226226585122  0.43130815729400496  0.5826496044328948  1.0000
  C   C49       1.0  0.35334873570750597  0.8614889818306394  0.1056397552915058  1.0000
  C   C50       1.0  0.8533476720092705  0.6385164614625367  0.3943632035367059  1.0000
  C   C51       1.0  0.6466616414848686  0.13851064481815464  0.8943528962547941  1.0000
  C   C52       1.0  0.1466507228843739  0.36148808965982226  0.6056274073609982  1.0000
  C   C53       1.0  0.26078814351040336  0.8532868027750595  0.0926048150746084  1.0000
  C   C54       1.0  0.7607844484848059  0.646716163144987  0.40739838469621487  1.0000
  C   C55       1.0  0.7392189052656021  0.14671282322883875  0.9073872380572041  1.0000
  C   C56       1.0  0.2392066239036055  0.3532797746588514  0.5925999861874728  1.0000
  C   C57       1.0  0.20945602167894614  0.7828287815872557  0.12306843551623807  1.0000
  C   C58       1.0  0.7094535866396396  0.7171723280069457  0.37693393310891565  1.0000
  C   C59       1.0  0.7905516927865222  0.2171696184551308  0.8769289150652779  1.0000
  C   C60       1.0  0.29053815142825806  0.2828303806270681  0.6230613326940995  1.0000
  C   C61       1.0  0.4925218272576116  0.67550059407381  0.14991182293798738  1.0000
  C   C62       1.0  0.9925213273956358  0.8245079549285421  0.3500958174919048  1.0000
  C   C63       1.0  0.5074865528851332  0.324496569048307  0.8500806521023349  1.0000
  C   C64       1.0  0.007475736143746299  0.1754947595075862  0.64990483401737  1.0000
  C   C65       1.0  0.4448255798707449  0.7311457663781695  0.10670074238140609  1.0000
  C   C66       1.0  0.9448231852022387  0.7688590792224304  0.3933059416300963  1.0000
  C   C67       1.0  0.555182134591078  0.2688520145594211  0.8932935720179598  1.0000
  C   C68       1.0  0.05517121560266249  0.2311380909895604  0.6066931159200804  1.0000
  C   C69       1.0  0.40280038862215406  0.7983976537839297  0.1481809164092525  1.0000
  C   C70       1.0  0.9027985587704987  0.7016090303037215  0.35182342417389373  1.0000
  C   C71       1.0  0.5972099885690199  0.20160443510211223  0.8518107148186045  1.0000
  C   C72       1.0  0.09719650770558268  0.29839059247607475  0.6481656368900628  1.0000
  C   C73       1.0  0.4113412035995339  0.8054191261211017  0.23196802821929197  1.0000
  C   C74       1.0  0.9113405042746621  0.6945881745407619  0.26803577477759427  1.0000
  C   C75       1.0  0.5886711706377455  0.19457864901515623  0.7680209004835701  1.0000
  C   C76       1.0  0.0886578906232813  0.30541638044939395  0.7319584265874823  1.0000
  C   C77       1.0  0.4607768742030343  0.7469799826275291  0.26952543211522334  1.0000
  C   C78       1.0  0.9607787489732901  0.7530297912344679  0.23048043927185086  1.0000
  C   C79       1.0  0.5392328373063292  0.2530208757844647  0.7304673076824315  1.0000
  C   C80       1.0  0.03922364002797  0.246977231150325  0.7695175290685156  1.0000
  C   C81       1.0  0.15552708216715413  0.18021347919250988  0.16872674231155566  1.0000
  C   C82       1.0  0.655527202815179  0.31978575194593617  0.3312785203590848  1.0000
  C   C83       1.0  0.8444693156959671  0.8197787723468295  0.8312797415785126  1.0000
  C   C84       1.0  0.3444725234586982  0.6802151167794149  0.6687237940084712  1.0000
  C   C85       1.0  0.15522610373204768  0.12221975997393736  0.09440260045700907  1.0000
  C   C86       1.0  0.6552230752820662  0.3777776208937169  0.4056001355991937  1.0000
  C   C87       1.0  0.8447789480065707  0.8777706394087587  0.9055995621849032  1.0000
  C   C88       1.0  0.34477864803684344  0.6222226280823551  0.5943985441769328  1.0000
  C   C89       1.0  0.08839810303731349  0.1273045797377961  0.03483939127576009  1.0000
  C   C90       1.0  0.5883985455515912  0.37269525548351357  0.46516458745718836  1.0000
  C   C91       1.0  0.9116009575586259  0.8726907512099019  0.96516731324693  1.0000
  C   C92       1.0  0.41160184640445857  0.6273031490707338  0.5348369519957642  1.0000
  C   C93       1.0  0.08121650056049387  0.06727598689762  0.9693792579170335  1.0000
  C   C94       1.0  0.5812192320600927  0.4327258399504572  0.5306226811968242  1.0000
  C   C95       1.0  0.9187818943473047  0.9327193395375915  0.03062325772640409  1.0000
  C   C96       1.0  0.41878848240872196  0.5672774897235014  0.4693774160376447  1.0000
  C   C97       1.0  0.0090603696309799  0.0708171742936443  0.9077745231029793  1.0000
  C   C98       1.0  0.5090599201875533  0.4291827949020047  0.5922283393822452  1.0000
  C   C99       1.0  0.9909400223281181  0.9291830804840301  0.09222954237290537  1.0000
  C   C100      1.0  0.49094113745294266  0.5708143791783088  0.4077743086418123  1.0000
  C   C101      1.0  0.8761269683768873  0.2468557611443813  0.0804468170602632  1.0000
  C   C102      1.0  0.376124787405949  0.2531496575450021  0.4195539324543418  1.0000
  C   C103      1.0  0.12387142652792699  0.7531457208839639  0.9195531477870772  1.0000
  C   C104      1.0  0.6238702790898997  0.7468542938112961  0.5804515945948197  1.0000
  C   C105      1.0  0.9345040354266343  0.18092033101378038  0.06851071130611788  1.0000
  C   C106      1.0  0.4345025502112562  0.31908017040660036  0.43149039774335307  1.0000
  C   C107      1.0  0.0654936937996453  0.8190768443555355  0.9314931335371455  1.0000
  C   C108      1.0  0.5654985074296021  0.6809206989634831  0.5685125150367296  1.0000
  C   C109      1.0  0.022530767579794993  0.19519423340614847  0.045229909466989696  1.0000
  C   C110      1.0  0.5225311836771523  0.3048080524511292  0.4547717233500847  1.0000
  C   C111      1.0  0.9774696243804967  0.804803559134271  0.954775176327338  1.0000
  C   C112      1.0  0.47746721122873476  0.6951897355767045  0.5452291735636905  1.0000
  C   C113      1.0  0.0470678358746284  0.27683493634233264  0.0345452130682418  1.0000
  C   C114      1.0  0.5470622845807893  0.2231648924079508  0.4654586848554699  1.0000
  C   C115      1.0  0.9529332217675942  0.7231579285004701  0.9654589213074656  1.0000
  C   C116      1.0  0.4529347789612217  0.7768353610801952  0.5345441837947078  1.0000
  C   C117      1.0  0.9850420115310357  0.3395740226804449  0.0491152591018391  1.0000
  C   C118      1.0  0.48503923783396624  0.16042956541544126  0.4508855709702216  1.0000
  C   C119      1.0  0.014961043159743795  0.660424999689539  0.9508881197134115  1.0000
  C   C120      1.0  0.5149564943433376  0.8395719211251275  0.5491185827531169  1.0000
  N   N1        1.0  0.28877534643535085  0.0572020716148671  0.5616647519791583  1.0000
  N   N2        1.0  0.788781717423305  0.4427954772015709  0.9383378824585902  1.0000
  N   N3        1.0  0.7112157259535435  0.942798793242005  0.4383339719125629  1.0000
  N   N4        1.0  0.2112220029483396  0.5572023114713146  0.06166361287161949  1.0000
  N   N5        1.0  0.5012050942056163  0.6822861040753025  0.23017800322820386  1.0000
  N   N6        1.0  0.0012052188031929998  0.8177217534155262  0.26982982934234906  1.0000
  N   N7        1.0  0.49880461730482034  0.3177110603361797  0.7698156686358786  1.0000
  N   N8        1.0  0.9987958388396976  0.18228527606012082  0.7301747215202354  1.0000
  N   N9        1.0  0.9010907420397841  0.3249767769286435  0.07186750469993089  1.0000
  N   N10       1.0  0.4010845857650125  0.1750261860099656  0.4281367075799593  1.0000
  N   N11       1.0  0.09890964991549109  0.6750210110993393  0.928133392215791  1.0000
  N   N12       1.0  0.5989111464160571  0.8249771513986557  0.5718705705775377  1.0000
  Cl  Cl1       1.0  0.15769215203395956  0.13951768803966755  0.39317058603069194  1.0000
  Cl  Cl2       1.0  0.6576937330716814  0.36048831426798233  0.10683157579290987  1.0000
  Cl  Cl3       1.0  0.8423029144549046  0.8604881045151913  0.6068290892842043  1.0000
  Cl  Cl4       1.0  0.34230799025003467  0.6395113214050028  0.8931694535021248  1.0000
  Cl  Cl5       1.0  0.3955660421674451  0.9525276600089472  0.39540630638355617  1.0000
  Cl  Cl6       1.0  0.8955676108122717  0.54747840899865  0.10459977116697419  1.0000
  Cl  Cl7       1.0  0.604427027266773  0.0474756645067984  0.6045890035467634  1.0000
  Cl  Cl8       1.0  0.10443344682703068  0.4525212273189112  0.8954018565386404  1.0000
  O   O1        1.0  0.28789510926743833  0.0894001768707184  0.9468223538596731  1.0000
  O   O2        1.0  0.7878939001986892  0.41059798833358485  0.553180921386982  1.0000
  O   O3        1.0  0.7121119395160918  0.9105957609343702  0.0531760170396254  1.0000
  O   O4        1.0  0.21211048586008016  0.5894041147339237  0.4468238748820567  1.0000
  O   O5        1.0  0.28218484615752004  0.9259632087432125  0.911223329929477  1.0000
  O   O6        1.0  0.782181052053147  0.5740331386703444  0.5887844492630591  1.0000
  O   O7        1.0  0.717818208531767  0.07403519645587413  0.08877880793731657  1.0000
  O   O8        1.0  0.21781534581159426  0.4259683517380708  0.4112232949283054  1.0000
  O   O9        1.0  0.3657523384302479  0.9892629409288317  0.04512015043379589  1.0000
  O   O10       1.0  0.8657527481749125  0.510743119543328  0.45488227836048617  1.0000
  O   O11       1.0  0.634254044675707  0.0107385443233028  0.9548828064774921  1.0000
  O   O12       1.0  0.1342503065153906  0.4892657556434728  0.5451206096483858  1.0000
  O   O13       1.0  0.21428414075108287  0.9042054784469754  0.05456663729246  1.0000
  O   O14       1.0  0.7142851954649244  0.595796245851112  0.4454339896677125  1.0000
  O   O15       1.0  0.7857269021326018  0.0957898447660597  0.9454328863071948  1.0000
  O   O16       1.0  0.2857145307996944  0.4042052303756377  0.5545605894798769  1.0000
  O   O17       1.0  0.2180179908718856  0.068819494843062  0.0903415410032835  1.0000
  O   O18       1.0  0.7180176360809865  0.4311809733295817  0.4096597432141208  1.0000
  O   O19       1.0  0.7819797383505785  0.9311826037114914  0.9096590663806338  1.0000
  O   O20       1.0  0.28198209019074477  0.5688198934618711  0.5903407759197492  1.0000
  O   O21       1.0  0.13638231259701428  0.006984984014692901  0.9577290784319243  1.0000
  O   O22       1.0  0.6363777508381147  0.49301561583836667  0.542269289808196  1.0000
  O   O23       1.0  0.8636234048213891  0.993015265606331  0.0422701997593364  1.0000
  O   O24       1.0  0.3636173156504512  0.5069797073734178  0.4577302337758481  1.0000
