data_image0
_chemical_formula_structural       V8H24C64O40
_chemical_formula_sum              "V8 H24 C64 O40"
_cell_length_a       11.93578398502771
_cell_length_b       15.10220881200894
_cell_length_c       15.101892526025955
_cell_angle_alpha    89.99998496106633
_cell_angle_beta     89.99978763839816
_cell_angle_gamma    90.0001245021488

_space_group_name_H-M_alt    "P 1"
_space_group_IT_number       1

loop_
  _space_group_symop_operation_xyz
  'x, y, z'

loop_
  _atom_site_type_symbol
  _atom_site_label
  _atom_site_symmetry_multiplicity
  _atom_site_fract_x
  _atom_site_fract_y
  _atom_site_fract_z
  _atom_site_occupancy
  V   V1        1.0  0.1251316221079293  0.9479945422358969  0.0519752966862868  1.0000
  V   V2        1.0  0.6251348366711866  0.05201399931125651  0.9480233033949119  1.0000
  V   V3        1.0  0.37517175179154805  0.9480006001914493  0.9480156064886174  1.0000
  V   V4        1.0  0.8751624031832534  0.05200108960085711  0.05199086780522319  1.0000
  V   V5        1.0  0.37511181436642  0.552151933832299  0.5521215685315467  1.0000
  V   V6        1.0  0.8751117487878729  0.4478550531020674  0.4478908654418987  1.0000
  V   V7        1.0  0.6250726299026682  0.44784158037037264  0.5521086341542798  1.0000
  V   V8        1.0  0.1250874261327795  0.5521444478227552  0.44788268223074806  1.0000
  H   H1        1.0  0.23537919734525303  0.7510009109265499  0.250483393742563  1.0000
  H   H2        1.0  0.5464869246371009  0.8221292019982444  0.126276640584031  1.0000
  H   H3        1.0  0.5466738201020148  0.6779886650770593  0.37352050591732666  1.0000
  H   H4        1.0  0.7353679607464088  0.24900053736473646  0.749516207063472  1.0000
  H   H5        1.0  0.046474408418824005  0.1778494067064855  0.8737175552071078  1.0000
  H   H6        1.0  0.046662017054949  0.3220237138434286  0.6264915678736216  1.0000
  H   H7        1.0  0.4853356310086951  0.7495290911354218  0.7509891713710317  1.0000
  H   H8        1.0  0.7964739728520841  0.8736840370319002  0.8221506403729959  1.0000
  H   H9        1.0  0.796645724898447  0.6265082921543412  0.6779581486429578  1.0000
  H   H10       1.0  0.9853434969923429  0.25047543760667423  0.2490110199902418  1.0000
  H   H11       1.0  0.29647378820465065  0.12631221957516203  0.17785209191550413  1.0000
  H   H12       1.0  0.29665224360637404  0.37349855923326913  0.3220346506001732  1.0000
  H   H13       1.0  0.7646357438660587  0.24899996588463588  0.250481358565267  1.0000
  H   H14       1.0  0.453526922131509  0.17784588332573043  0.12628546990482897  1.0000
  H   H15       1.0  0.4533422210219343  0.32202939551599036  0.3735041354768498  1.0000
  H   H16       1.0  0.2646262131493912  0.7510041815690371  0.7495241158725249  1.0000
  H   H17       1.0  0.9535108060739361  0.8221360771806234  0.8737181257132319  1.0000
  H   H18       1.0  0.9533327325991012  0.677984348109135  0.6264848929588851  1.0000
  H   H19       1.0  0.514664400719191  0.2504723166440783  0.7509918425942671  1.0000
  H   H20       1.0  0.20352740149650123  0.1263160277893363  0.8221516089124846  1.0000
  H   H21       1.0  0.20335464858969493  0.37349644553901135  0.6779643500589998  1.0000
  H   H22       1.0  0.014666424212691702  0.74952742605052  0.24900840610657576  1.0000
  H   H23       1.0  0.7035255743973677  0.8736754331638253  0.17783550417821198  1.0000
  H   H24       1.0  0.7033556602047568  0.6265122311393085  0.3220499124476177  1.0000
  C   C1        1.0  0.32770956975392107  0.8425233827137791  0.11128612262915277  1.0000
  C   C2        1.0  0.3861470546429047  0.7927816933875605  0.1826267709324796  1.0000
  C   C3        1.0  0.32657471492062484  0.7506566692232187  0.25034751535825  1.0000
  C   C4        1.0  0.5032503802475503  0.7909496123501826  0.18161612991186615  1.0000
  C   C5        1.0  0.38618600005377607  0.7080761855462615  0.31777275768634883  1.0000
  C   C6        1.0  0.5632629798921585  0.7501655548603952  0.24997171838793966  1.0000
  C   C7        1.0  0.5033069203583908  0.7094793926420025  0.3184175378750281  1.0000
  C   C8        1.0  0.32783350257189176  0.657979480389834  0.3889486974589857  1.0000
  C   C9        1.0  0.8277041341343078  0.15747954939788403  0.8887185044792644  1.0000
  C   C10       1.0  0.886139575367622  0.20721538028347203  0.8173783468036077  1.0000
  C   C11       1.0  0.8265668298817772  0.24934228799719457  0.7496557907483562  1.0000
  C   C12       1.0  0.0032415594983348  0.20904216475950224  0.8183808414687731  1.0000
  C   C13       1.0  0.8861810603755772  0.29192618543270754  0.6822316977623257  1.0000
  C   C14       1.0  0.0632612930259242  0.24983360963292975  0.7500310363306892  1.0000
  C   C15       1.0  0.0033023137294066005  0.2905249655088228  0.6815893658617611  1.0000
  C   C16       1.0  0.8278281950716818  0.34201351961435483  0.6110539427807495  1.0000
  C   C17       1.0  0.5777258512389167  0.8886809893827987  0.8426073360136284  1.0000
  C   C18       1.0  0.6361602388006276  0.817341812936576  0.792806216560983  1.0000
  C   C19       1.0  0.5765336632980578  0.7496821277190123  0.7506036553312825  1.0000
  C   C20       1.0  0.7532434626366324  0.8183490517578992  0.7909605805111892  1.0000
  C   C21       1.0  0.6361585770995077  0.6822854210187475  0.7079738202457122  1.0000
  C   C22       1.0  0.8132730363927508  0.7500233419884383  0.7501583304668245  1.0000
  C   C23       1.0  0.7532820061650013  0.6816266779760768  0.7094185004480237  1.0000
  C   C24       1.0  0.5778155505421837  0.6110805611662261  0.6578662880854863  1.0000
  C   C25       1.0  0.0777206944471729  0.1113228351767859  0.1573940519160075  1.0000
  C   C26       1.0  0.1361625842926841  0.18266012611474738  0.20719036464157625  1.0000
  C   C27       1.0  0.0765410231251735  0.25032235694746424  0.24939111439295655  1.0000
  C   C28       1.0  0.25324747236444983  0.18165110309868743  0.20903830566295767  1.0000
  C   C29       1.0  0.13616340819020684  0.31772049096106514  0.29201945011423186  1.0000
  C   C30       1.0  0.3132787175636693  0.24997890303915685  0.2498377308115565  1.0000
  C   C31       1.0  0.25328852145182157  0.31837744987899447  0.29057310175347334  1.0000
  C   C32       1.0  0.077808612304942  0.38891597984488874  0.3421284778977665  1.0000
  C   C33       1.0  0.6722942934070132  0.15746230100860004  0.1112830582305264  1.0000
  C   C34       1.0  0.6138631772150944  0.20721059319167526  0.18262055414893294  1.0000
  C   C35       1.0  0.6734393891126444  0.24934222115878418  0.25034309912411595  1.0000
  C   C36       1.0  0.4967615319449337  0.20903936372005216  0.18162018893450946  1.0000
  C   C37       1.0  0.6138261128305088  0.29193063302094674  0.3177665187449961  1.0000
  C   C38       1.0  0.43674274772819643  0.24983399776738935  0.2499693211788241  1.0000
  C   C39       1.0  0.49670351388346023  0.29052742575524354  0.3184076701045483  1.0000
  C   C40       1.0  0.6721648721603373  0.3420319545948161  0.38894558491575987  1.0000
  C   C41       1.0  0.17228017239931154  0.8425430112259633  0.8887160655979541  1.0000
  C   C42       1.0  0.11385428097929662  0.7927899830208673  0.8173754303552413  1.0000
  C   C43       1.0  0.17342901900663324  0.750657133664163  0.749655359169516  1.0000
  C   C44       1.0  0.9967506165040233  0.790954590267866  0.8183812932520238  1.0000
  C   C45       1.0  0.1138226443883852  0.7080686188227504  0.6822288036915295  1.0000
  C   C46       1.0  0.9367412566449502  0.750165149781374  0.7500283641679175  1.0000
  C   C47       1.0  0.9966980427835992  0.7094751361506227  0.6815852040505418  1.0000
  C   C48       1.0  0.17215573515642293  0.6579607764798612  0.6110495662749926  1.0000
  C   C49       1.0  0.42226956261292514  0.11132370515250763  0.8426315044347489  1.0000
  C   C50       1.0  0.36384211066459926  0.18266289465801583  0.7928199430552565  1.0000
  C   C51       1.0  0.42346804586181724  0.25032126662689086  0.7506099051495525  1.0000
  C   C52       1.0  0.24675805766483447  0.1816543320110853  0.7909667049485307  1.0000
  C   C53       1.0  0.36384333156829746  0.31771732234575734  0.7079742678589795  1.0000
  C   C54       1.0  0.18672783703646448  0.24997939031883482  0.7501632888247229  1.0000
  C   C55       1.0  0.24671822009627684  0.3183767271624164  0.7094245890586919  1.0000
  C   C56       1.0  0.4221765388406169  0.3889182223950983  0.657852640185858  1.0000
  C   C57       1.0  0.9222678723116785  0.8886807146305176  0.157370858578652  1.0000
  C   C58       1.0  0.863845857004442  0.8173407620382848  0.20717928062225607  1.0000
  C   C59       1.0  0.9234688962949843  0.7496805066097709  0.24939113000496596  1.0000
  C   C60       1.0  0.7467592846368023  0.8183431630203162  0.20902955159346695  1.0000
  C   C61       1.0  0.8638488251687094  0.6822803749605558  0.2920282666564944  1.0000
  C   C62       1.0  0.6867295241252052  0.7500206496254268  0.24983910345451926  1.0000
  C   C63       1.0  0.7467228808600836  0.6816260650400283  0.2905829244618019  1.0000
  C   C64       1.0  0.9221816032924863  0.6110775892212318  0.34214575007985093  1.0000
  O   O1        1.0  0.2290792669796247  0.8698411537603263  0.1268214028339116  1.0000
  O   O2        1.0  0.38329973528376377  0.8551010704826897  0.03959105160979699  1.0000
  O   O3        1.0  0.3836059420738493  0.6449840691583547  0.4604833602626144  1.0000
  O   O4        1.0  0.22918727945224757  0.63069001160126  0.3733719901798692  1.0000
  O   O5        1.0  0.7290763428584698  0.13016425658313585  0.8731802029590054  1.0000
  O   O6        1.0  0.8832914163224929  0.14490063335227182  0.9604140744852996  1.0000
  O   O7        1.0  0.8835968157648965  0.35499975702618514  0.5395158054191569  1.0000
  O   O8        1.0  0.7291870005478814  0.36930877738277706  0.6266322639676147  1.0000
  O   O9        1.0  0.47909630017356614  0.8731354924574363  0.869909359013107  1.0000
  O   O10       1.0  0.6332941172038815  0.9603818057023691  0.8551586520570565  1.0000
  O   O11       1.0  0.6335512437558891  0.5395294880244279  0.6449214804680351  1.0000
  O   O12       1.0  0.4791677377558585  0.6266781979117868  0.6305970009001313  1.0000
  O   O13       1.0  0.9790960066914777  0.12687829566645803  0.13008687766266286  1.0000
  O   O14       1.0  0.1332762559023379  0.0396141689853664  0.1448498566254699  1.0000
  O   O15       1.0  0.13354108925961583  0.46047244651028774  0.35506451371301745  1.0000
  O   O16       1.0  0.9791711869845868  0.3733124149193118  0.3694111545994402  1.0000
  O   O17       1.0  0.7709320639076934  0.130133931425334  0.1267796502926899  1.0000
  O   O18       1.0  0.6166751396761966  0.14483232177259  0.03961132965665119  1.0000
  O   O19       1.0  0.6163610987681238  0.3550584683295527  0.4604592186692428  1.0000
  O   O20       1.0  0.7708178706400091  0.3693353327174196  0.3734063244862753  1.0000
  O   O21       1.0  0.2709214413596542  0.8698695647497987  0.8732264678324524  1.0000
  O   O22       1.0  0.11665066399844191  0.8551795159157937  0.9603853087829889  1.0000
  O   O23       1.0  0.11636147680189168  0.6449262204915557  0.5395341098160458  1.0000
  O   O24       1.0  0.27081026191432767  0.6306602174060034  0.6265958209587124  1.0000
  O   O25       1.0  0.5209065261593155  0.12682747917411774  0.8699537610411807  1.0000
  O   O26       1.0  0.36667358988787413  0.0396387772295128  0.8552220704388204  1.0000
  O   O27       1.0  0.36640739360477437  0.46044877210743357  0.6448655986298631  1.0000
  O   O28       1.0  0.5208295062226327  0.3733556870068926  0.6305684997947978  1.0000
  O   O29       1.0  0.020906930855467503  0.8731855173981489  0.130050442348363  1.0000
  O   O30       1.0  0.8666621006270319  0.9603595871067231  0.14477780711853674  1.0000
  O   O31       1.0  0.8664189043264019  0.5395456188610696  0.35512633365171087  1.0000
  O   O32       1.0  0.020833143754458695  0.6266400934106642  0.36943371731236135  1.0000
  O   O33       1.0  0.24989444692796067  0.9894726954032367  6.10848431606e-05  1.0000
  O   O34       1.0  0.7498956295298456  0.010530102283844704  0.9999424463465585  1.0000
  O   O35       1.0  0.49989918394133787  0.9999414490190124  0.989553256892968  1.0000
  O   O36       1.0  0.9998940768497134  6.773995403360001e-05  0.0104535134216874  1.0000
  O   O37       1.0  0.24991691984570252  0.5108214544511042  0.4999475021665205  1.0000
  O   O38       1.0  0.7499142096438333  0.4891806811172545  0.5000513937823783  1.0000
  O   O39       1.0  0.49991302622616013  0.500045761823401  0.5107391615360654  1.0000
  O   O40       1.0  0.999919611943298  0.4999448868502301  0.48926098703659443  1.0000
