data_image0
_chemical_formula_structural       Mg6H104C108N20O32
_chemical_formula_sum              "Mg6 H104 C108 N20 O32"
_cell_length_a       15.15440531294025
_cell_length_b       15.154468154353506
_cell_length_c       16.967174822806424
_cell_angle_alpha    70.06744786886645
_cell_angle_beta     70.06743652374188
_cell_angle_gamma    70.65282942009839

_space_group_name_H-M_alt    "P 1"
_space_group_IT_number       1

loop_
  _space_group_symop_operation_xyz
  'x, y, z'

loop_
  _atom_site_type_symbol
  _atom_site_label
  _atom_site_symmetry_multiplicity
  _atom_site_fract_x
  _atom_site_fract_y
  _atom_site_fract_z
  _atom_site_occupancy
  Mg  Mg1       1.0  0.9999999230401284  0.5000021513631693  0.9999966358645267  1.0000
  Mg  Mg2       1.0  0.49999974569300315  0.9999999696809778  0.4999998899267623  1.0000
  Mg  Mg3       1.0  0.028983113711639395  0.6382631754162064  0.7789271393521487  1.0000
  Mg  Mg4       1.0  0.3617363505629569  0.9710146084149968  0.7210730966703877  1.0000
  Mg  Mg5       1.0  0.9710149759690268  0.3617388705045953  0.2210753756549835  1.0000
  Mg  Mg6       1.0  0.6382610156205857  0.028984155279090356  0.2789264819753824  1.0000
  H   H1        1.0  0.2711418740983973  0.734007871844085  0.8176426615798321  1.0000
  H   H2        1.0  0.2659946511741822  0.7288566322471296  0.6823547606265096  1.0000
  H   H3        1.0  0.7288519232975545  0.2660001730080737  0.18235934662787667  1.0000
  H   H4        1.0  0.7340070020985008  0.2711395926691935  0.3176490141438038  1.0000
  H   H5        1.0  0.9050699764263114  0.49114513790173914  0.707111252284925  1.0000
  H   H6        1.0  0.5088519301775634  0.0949224980752774  0.792890043761517  1.0000
  H   H7        1.0  0.09492010402422578  0.5088505547655018  0.2928914018480597  1.0000
  H   H8        1.0  0.4911411246488342  0.9050773939859342  0.20710694361761736  1.0000
  H   H9        1.0  0.8217521749401016  0.3966354999511879  0.6712598471964668  1.0000
  H   H10       1.0  0.6033639921465832  0.17824203548491363  0.8287413982661817  1.0000
  H   H11       1.0  0.17824077468194588  0.603359435404151  0.32874512686837687  1.0000
  H   H12       1.0  0.3966304633968534  0.821755364837955  0.171258860155355  1.0000
  H   H13       1.0  0.22116841067633425  0.45441027129161443  0.9716600898593626  1.0000
  H   H14       1.0  0.5455955727178434  0.7788279981447204  0.5283423949374682  1.0000
  H   H15       1.0  0.7788297396743431  0.5455953006557904  0.028338413003005783  1.0000
  H   H16       1.0  0.4544061341574305  0.22117105266003986  0.47165757769626987  1.0000
  H   H17       1.0  0.41356930337382636  0.6996532545533396  0.8740919654546886  1.0000
  H   H18       1.0  0.30035073026232334  0.5864290057612109  0.6259045851243243  1.0000
  H   H19       1.0  0.5864245141594752  0.30035827578818425  0.1259107699743326  1.0000
  H   H20       1.0  0.6996502095174221  0.4135674122834557  0.37409816534745494  1.0000
  H   H21       1.0  0.3668062737142677  0.41905898440255374  0.025750111802679488  1.0000
  H   H22       1.0  0.5809443815048354  0.6331892535491264  0.4742502547222571  1.0000
  H   H23       1.0  0.633192613461432  0.5809457246812713  0.9742460708418578  1.0000
  H   H24       1.0  0.41905369617081323  0.3668086219456086  0.5257499658094743  1.0000
  H   H25       1.0  0.8483887985532447  0.32610867075315036  0.9725891743241917  1.0000
  H   H26       1.0  0.6738886776033867  0.1516142345251054  0.5274113179089639  1.0000
  H   H27       1.0  0.15161357327896496  0.6738873661019864  0.027415032323894264  1.0000
  H   H28       1.0  0.3261152142850534  0.8483856675738934  0.47258775307943063  1.0000
  H   H29       1.0  0.7616178443117149  0.23338707151192037  0.9380627120673071  1.0000
  H   H30       1.0  0.7666108075343842  0.2383813795145855  0.5619375780692693  1.0000
  H   H31       1.0  0.2383837948261345  0.7666077531280706  0.0619414827193907  1.0000
  H   H32       1.0  0.23339659234265034  0.7616091806204818  0.43806617240630163  1.0000
  H   H33       1.0  0.5914710049546698  0.8088567298729002  0.1277413891457187  1.0000
  H   H34       1.0  0.19113775560546029  0.40852033789341385  0.3722574651810148  1.0000
  H   H35       1.0  0.4085235476607919  0.19114631209253474  0.87225244984419  1.0000
  H   H36       1.0  0.8088625413555377  0.5914832746612574  0.6277421609103017  1.0000
  H   H37       1.0  0.18026500039389498  0.4270021166408213  0.7992067863899806  1.0000
  H   H38       1.0  0.5729986117390808  0.819738333081453  0.7007886705557808  1.0000
  H   H39       1.0  0.819731629900559  0.5729995900627217  0.2007968521320791  1.0000
  H   H40       1.0  0.4269981168212809  0.18026416496904576  0.29920409438440737  1.0000
  H   H41       1.0  0.7500958824617283  0.6908912083048405  0.08253842388790394  1.0000
  H   H42       1.0  0.3091035746551468  0.2498990304059845  0.41746178560075015  1.0000
  H   H43       1.0  0.2498964498034723  0.3091074816755324  0.9174573667883267  1.0000
  H   H44       1.0  0.6908974176622775  0.7501015986019867  0.5825385199803534  1.0000
  H   H45       1.0  0.8073993458926549  0.886372111194234  0.83073870205682  1.0000
  H   H46       1.0  0.11363400871697847  0.19260596998620366  0.669268799590398  1.0000
  H   H47       1.0  0.192603130078993  0.11363026744163562  0.16925887515144916  1.0000
  H   H48       1.0  0.8863698779758947  0.8073973922663882  0.3307339607231157  1.0000
  H   H49       1.0  0.2825076945577151  0.29131339177140336  0.7744059637991542  1.0000
  H   H50       1.0  0.7086889768187417  0.7174969098667106  0.7255881648373048  1.0000
  H   H51       1.0  0.7174881757086241  0.708686382310212  0.22560024255275823  1.0000
  H   H52       1.0  0.29131213083620366  0.2825086859814334  0.2744029692165668  1.0000
  H   H53       1.0  0.3740162552298614  0.3146816268567462  0.6759909319002801  1.0000
  H   H54       1.0  0.6853239959213014  0.6259827553847686  0.824002748642883  1.0000
  H   H55       1.0  0.6259803375976745  0.6853193493057003  0.32401647115453597  1.0000
  H   H56       1.0  0.31467925034061756  0.3740181007865927  0.17598797898966723  1.0000
  H   H57       1.0  0.285948883465835  0.25682369096777075  0.6824882662833217  1.0000
  H   H58       1.0  0.7431785797830699  0.7140549413871753  0.8175073217481383  1.0000
  H   H59       1.0  0.7140506342656251  0.7431765836214764  0.31751494007498593  1.0000
  H   H60       1.0  0.2568203468603798  0.28595119330876173  0.18248547877621488  1.0000
  H   H61       1.0  0.8631014630701658  0.8127708822762754  0.7051433096612456  1.0000
  H   H62       1.0  0.1872357840312873  0.13689251790604118  0.7948556757052145  1.0000
  H   H63       1.0  0.1369060317490636  0.18722808965109997  0.2948567358744896  1.0000
  H   H64       1.0  0.8127658552355469  0.8630988415131993  0.20514542217712523  1.0000
  H   H65       1.0  0.6483039004503792  0.0027893921779452283  0.8731325981368627  1.0000
  H   H66       1.0  0.997215725801439  0.3517042205292213  0.6268729822128166  1.0000
  H   H67       1.0  0.35170076147035445  0.9972159178980394  0.12686581708452138  1.0000
  H   H68       1.0  0.0027903591035070008  0.6482993131480582  0.3731267167804972  1.0000
  H   H69       1.0  0.24550764222793478  0.3840087304233037  0.5571741063503594  1.0000
  H   H70       1.0  0.6159914047704333  0.7544854873414761  0.9428240245624268  1.0000
  H   H71       1.0  0.7544911316110825  0.6159917068913642  0.4428316302339753  1.0000
  H   H72       1.0  0.38401034476733287  0.2455108338507798  0.05716849421344964  1.0000
  H   H73       1.0  0.2952540785968836  0.4803199135933838  0.5479963081450238  1.0000
  H   H74       1.0  0.5196818680562884  0.7047375733958103  0.9519976221609029  1.0000
  H   H75       1.0  0.70474399188236  0.5196807269839283  0.45200721929926163  1.0000
  H   H76       1.0  0.48031844836410187  0.2952605140608497  0.04799479768455936  1.0000
  H   H77       1.0  0.16683159758043328  0.4964440675764975  0.5773575940731134  1.0000
  H   H78       1.0  0.503555392487705  0.8331616322175177  0.9226411960984819  1.0000
  H   H79       1.0  0.8331664698330599  0.5035572630046729  0.4226469082044985  1.0000
  H   H80       1.0  0.4964449178011847  0.1668378352468595  0.0773531734136341  1.0000
  H   H81       1.0  0.028438560878747396  0.9149253596120274  0.46998858615945954  1.0000
  H   H82       1.0  0.0850712486243523  0.9715650127747467  0.030015672638633386  1.0000
  H   H83       1.0  0.9715746824166729  0.08507210782584448  0.5300149143984642  1.0000
  H   H84       1.0  0.9149267906484511  0.02843005203301625  0.9699865727673967  1.0000
  H   H85       1.0  0.9767539869556146  0.8387687103245794  0.4474532031969004  1.0000
  H   H86       1.0  0.1612310518651654  0.023249748577008175  0.05255061168480068  1.0000
  H   H87       1.0  0.0232557099483728  0.1612352883902517  0.552547642748138  1.0000
  H   H88       1.0  0.8387655390905167  0.9767470672936795  0.9474533120530992  1.0000
  H   H89       1.0  0.058639271616272  0.786605643041206  0.5157139234393496  1.0000
  H   H90       1.0  0.21339160312152924  0.9413622627953587  0.984291099566583  1.0000
  H   H91       1.0  0.9413689245618995  0.21339243055250282  0.48428794882387655  1.0000
  H   H92       1.0  0.7866057447965175  0.05863717570112212  0.015711231174790872  1.0000
  H   H93       1.0  0.7791674597621848  0.9326729484327175  0.6246230026754063  1.0000
  H   H94       1.0  0.0673330547272641  0.22083234187797268  0.8753713964948701  1.0000
  H   H95       1.0  0.22084294356732664  0.0673301570156042  0.3753790775763477  1.0000
  H   H96       1.0  0.9326664621972538  0.7791623873446484  0.12462697330062165  1.0000
  H   H97       1.0  0.8039374847148435  0.9271773240749613  0.5157612160112138  1.0000
  H   H98       1.0  0.07282392898959958  0.19606712341622767  0.9842337717958927  1.0000
  H   H99       1.0  0.1960714390910994  0.0728219566667363  0.4842412605341622  1.0000
  H   H100      1.0  0.927177037187974  0.803927934889344  0.015764659326194457  1.0000
  H   H101      1.0  0.8510949397507658  0.0064011555665217925  0.5386728974947771  1.0000
  H   H102      1.0  0.9936002395345297  0.1489068246367111  0.9613222246674766  1.0000
  H   H103      1.0  0.14891401645551375  0.9935988506491216  0.4613264069385961  1.0000
  H   H104      1.0  0.006397814938026199  0.8510882553725095  0.03867824347626941  1.0000
  C   C1        1.0  0.1548117489950585  0.6144220418279076  0.8539994075214566  1.0000
  C   C2        1.0  0.38558264355953736  0.8451857173822005  0.6459982725134381  1.0000
  C   C3        1.0  0.8451864366927211  0.3855870308103276  0.14599804529994734  1.0000
  C   C4        1.0  0.6144161718770534  0.1548133753948376  0.35400136745892746  1.0000
  C   C5        1.0  0.8767807692105548  0.7077359538169857  0.9251095809171164  1.0000
  C   C6        1.0  0.29226368462569496  0.12321850801310318  0.5748911601405098  1.0000
  C   C7        1.0  0.12321664857474698  0.29226494069452974  0.07488581317952027  1.0000
  C   C8        1.0  0.7077365871313716  0.8767816139850381  0.4251083311502484  1.0000
  C   C9        1.0  0.23809702536793512  0.5955069284960928  0.8903456775738049  1.0000
  C   C10       1.0  0.4044954847726955  0.7619017059782962  0.6096553025386698  1.0000
  C   C11       1.0  0.7619040225529191  0.40449722147132394  0.10965120828329583  1.0000
  C   C12       1.0  0.5955047232486096  0.23809557999710762  0.3903491757301794  1.0000
  C   C13       1.0  0.8806988749739375  0.4144555843944316  0.8419296747131214  1.0000
  C   C14       1.0  0.585542777022269  0.1192986601581723  0.6580715303409194  1.0000
  C   C15       1.0  0.11929702569189259  0.5855442200901139  0.15807297711423018  1.0000
  C   C16       1.0  0.4144524496183806  0.8807027630668145  0.3419267150677142  1.0000
  C   C17       1.0  0.9279686038571597  0.47439211479650123  0.861920044968322  1.0000
  C   C18       1.0  0.525607216014663  0.07203060281884886  0.6380791903377556  1.0000
  C   C19       1.0  0.07202953342359561  0.5256106717997043  0.13807752066453816  1.0000
  C   C20       1.0  0.4743909435332583  0.9279728991169874  0.361916388024639  1.0000
  C   C21       1.0  0.29170736015291243  0.6650710113208473  0.8634772395082352  1.0000
  C   C22       1.0  0.334931275373961  0.708291536058887  0.6365213631666293  1.0000
  C   C23       1.0  0.7082907749980195  0.33493454542509216  0.13652304061641726  1.0000
  C   C24       1.0  0.6650710893908282  0.2917038006580839  0.3634830534896523  1.0000
  C   C25       1.0  0.8733054287588686  0.43440063781909516  0.7569284573750465  1.0000
  C   C26       1.0  0.5655970341516152  0.1266904997187837  0.7430728256757603  1.0000
  C   C27       1.0  0.1266904315032846  0.5655956609074622  0.2430758369140236  1.0000
  C   C28       1.0  0.4343989090477222  0.8733100403740083  0.2569254691980802  1.0000
  C   C29       1.0  0.8281191217297773  0.38195435324283966  0.7368583013543386  1.0000
  C   C30       1.0  0.6180417057430316  0.17187887420492132  0.7631434399812917  1.0000
  C   C31       1.0  0.17188249220414054  0.6180369808406284  0.2631457586318077  1.0000
  C   C32       1.0  0.3819570602216302  0.828115317604947  0.2368576700484155  1.0000
  C   C33       1.0  0.40063861581167964  0.556060631490105  0.9519325581517676  1.0000
  C   C34       1.0  0.4439427356519872  0.5993597699161555  0.548066579715254  1.0000
  C   C35       1.0  0.5993588149145666  0.4439465135933532  0.04806687007872764  1.0000
  C   C36       1.0  0.5560596401818927  0.4006376570810062  0.4519383917579631  1.0000
  C   C37       1.0  0.2648878639934793  0.5068688642368572  0.9497976386416125  1.0000
  C   C38       1.0  0.493135333871777  0.7351084377890659  0.5502041832626858  1.0000
  C   C39       1.0  0.7351095779308351  0.4931369059060413  0.05019924750146036  1.0000
  C   C40       1.0  0.5068648761503739  0.2648895432573467  0.44980067741873603  1.0000
  C   C41       1.0  0.3719389287174478  0.6456731586844311  0.8946111762351308  1.0000
  C   C42       1.0  0.3543302087182241  0.6280586707067426  0.6053875431924637  1.0000
  C   C43       1.0  0.6280577722511964  0.3543355494007797  0.1053903622050072  1.0000
  C   C44       1.0  0.645669973034245  0.37193650978699827  0.39461815752173374  1.0000
  C   C45       1.0  0.7883737289194741  0.30861207236949173  0.8026651193294541  1.0000
  C   C46       1.0  0.691381992955101  0.21162606867677164  0.6973366967534389  1.0000
  C   C47       1.0  0.21162715432091517  0.6913787445698459  0.19733931120786957  1.0000
  C   C48       1.0  0.3086174834367553  0.7883686200086117  0.3026664124081363  1.0000
  C   C49       1.0  0.3452801014681626  0.4872621041274454  0.9801466581405834  1.0000
  C   C50       1.0  0.5127434953229155  0.6547157838221975  0.5198549240897847  1.0000
  C   C51       1.0  0.6547159042730328  0.5127461222837084  0.01985110390540977  1.0000
  C   C52       1.0  0.48725743432366636  0.3452806240881544  0.4801490112235101  1.0000
  C   C53       1.0  0.7862414004159107  0.7813069213437344  0.9538574613621762  1.0000
  C   C54       1.0  0.21869259730655696  0.21375738591260074  0.5461445532446801  1.0000
  C   C55       1.0  0.21375307032727867  0.21869049418059922  0.04614101979707639  1.0000
  C   C56       1.0  0.7813120171430796  0.7862437182672367  0.45385571444662515  1.0000
  C   C57       1.0  0.8423707398338962  0.34051879634356647  0.9069947103027473  1.0000
  C   C58       1.0  0.6594797197592186  0.15762894073136374  0.5930070093374766  1.0000
  C   C59       1.0  0.1576301867469425  0.6594783015706439  0.09301019984387444  1.0000
  C   C60       1.0  0.34052051159417107  0.8423676755087967  0.40699412441501454  1.0000
  C   C61       1.0  0.7950357074801531  0.2889124413506465  0.8878684321490553  1.0000
  C   C62       1.0  0.7110845839000035  0.2049638780956613  0.6121325818453656  1.0000
  C   C63       1.0  0.20496808133376024  0.7110797338927526  0.11213591103326345  1.0000
  C   C64       1.0  0.28892064109702886  0.7950258408794824  0.38787088543404014  1.0000
  C   C65       1.0  0.6395738588877292  0.8248898068605897  0.06296467322920307  1.0000
  C   C66       1.0  0.17510647259316403  0.3604208045834127  0.4370356262776768  1.0000
  C   C67       1.0  0.3604235659649929  0.17511178778909198  0.9370305108592375  1.0000
  C   C68       1.0  0.8248952676183732  0.6395810518411692  0.5629629139025313  1.0000
  C   C69       1.0  0.1797491986042061  0.46114963599917047  0.7304023077513476  1.0000
  C   C70       1.0  0.5388493388125539  0.8202518329763037  0.7695925669528804  1.0000
  C   C71       1.0  0.8202481533155178  0.5388511926393277  0.2696007878151648  1.0000
  C   C72       1.0  0.4611509917426774  0.1797476547566887  0.23039943287619738  1.0000
  C   C73       1.0  0.7268620664793701  0.7600806285921777  0.03823696496501586  1.0000
  C   C74       1.0  0.2399149901724087  0.2731344302695007  0.4617636560267753  1.0000
  C   C75       1.0  0.2731331521579321  0.2399180143487669  0.9617597507933482  1.0000
  C   C76       1.0  0.7600874493972325  0.7268658327504055  0.5382363284683579  1.0000
  C   C77       1.0  0.7586698054239702  0.8701929571948028  0.8952161914857512  1.0000
  C   C78       1.0  0.1298093595070569  0.241334448650761  0.6047868435535975  1.0000
  C   C79       1.0  0.2413305159340169  0.1298086005497581  0.1047787328433074  1.0000
  C   C80       1.0  0.8701938207602921  0.7586698068683333  0.39521468245317953  1.0000
  C   C81       1.0  0.29749048374813464  0.3122547053129026  0.7034566600643969  1.0000
  C   C82       1.0  0.6877463678933182  0.7025136721174616  0.7965362150642932  1.0000
  C   C83       1.0  0.7025068629760155  0.6877495834791886  0.2965501248272275  1.0000
  C   C84       1.0  0.31225186045693926  0.29749267090827664  0.2034537838992492  1.0000
  C   C85       1.0  0.9279776610841635  0.7987275505199777  0.6516457560292179  1.0000
  C   C86       1.0  0.20127648490877445  0.07201650502851462  0.8483563549122835  1.0000
  C   C87       1.0  0.0720276264547337  0.2012698547735282  0.34835717842234004  1.0000
  C   C88       1.0  0.798726595478783  0.927975868410378  0.15164637155073998  1.0000
  C   C89       1.0  0.6711800728659439  0.9347296851929198  0.9186346966471319  1.0000
  C   C90       1.0  0.0652727703327969  0.32882561987570097  0.581368379117805  1.0000
  C   C91       1.0  0.3288238898256779  0.06527375306698954  0.08135917735498309  1.0000
  C   C92       1.0  0.9347318137173417  0.6711754539012063  0.41863544309805434  1.0000
  C   C93       1.0  0.23566705988718437  0.4440983851126389  0.5837263306965923  1.0000
  C   C94       1.0  0.5559022117048187  0.7643285412674742  0.9162697134520884  1.0000
  C   C95       1.0  0.7643324629108577  0.5559018945437656  0.416276283240954  1.0000
  C   C96       1.0  0.4440981067164103  0.23567024126020183  0.08372308880593952  1.0000
  C   C97       1.0  0.0009471966207072975  0.849115604112036  0.49707238211810545  1.0000
  C   C98       1.0  0.1508827145930525  0.9990540894282558  0.00292971064336478  1.0000
  C   C99       1.0  0.9990610207597114  0.15088456989617074  0.5029288601205337  1.0000
  C   C100      1.0  0.8491160472409474  0.0009421774603381944  0.9970737314655693  1.0000
  C   C101      1.0  0.6099544548580766  0.9109546620072632  0.0023135532412013357  1.0000
  C   C102      1.0  0.08904455652745469  0.3900436543952068  0.49768773624780493  1.0000
  C   C103      1.0  0.39004731881870913  0.08904653481638997  0.9976804575811258  1.0000
  C   C104      1.0  0.9109607663485376  0.6099572515891295  0.5023141481627889  1.0000
  C   C105      1.0  0.834219270750836  0.9351205519129875  0.5625378870767792  1.0000
  C   C106      1.0  0.0648839281196061  0.1657843049075964  0.9374576396794582  1.0000
  C   C107      1.0  0.16579186740286633  0.06488099560074549  0.4374614905445782  1.0000
  C   C108      1.0  0.9351141263529498  0.8342107751016314  0.06254282846428776  1.0000
  N   N1        1.0  0.9207926810438921  0.8582968509995511  0.5736565561450746  1.0000
  N   N2        1.0  0.14170625733054013  0.07920741309300887  0.9263428556892491  1.0000
  N   N3        1.0  0.0792162740974831  0.14170454029095228  0.42634410553419855  1.0000
  N   N4        1.0  0.8582932443942255  0.920787300928147  0.07365729136852656  1.0000
  N   N5        1.0  0.48498670730754867  0.542186665672247  0.9773562827399545  1.0000
  N   N6        1.0  0.4578167234643544  0.515012776429991  0.5226425743796526  1.0000
  N   N7        1.0  0.5150092428302173  0.45781803977945384  0.022644899030041268  1.0000
  N   N8        1.0  0.5421864377305637  0.48498660852487063  0.47735686715991926  1.0000
  N   N9        1.0  0.23390280654106727  0.4060719191987943  0.6755785681107653  1.0000
  N   N10       1.0  0.5939274446325129  0.7660978556457392  0.8244163584199242  1.0000
  N   N11       1.0  0.766095255805851  0.593929406315226  0.32442652658760096  1.0000
  N   N12       1.0  0.4060700298211302  0.23390517475035477  0.17557425870680984  1.0000
  N   N13       1.0  0.7384746404320879  0.2532607244682623  0.7895228989358428  1.0000
  N   N14       1.0  0.7467374324794205  0.2615228987265397  0.7104795544765138  1.0000
  N   N15       1.0  0.261521199563731  0.7467355539896731  0.2104837650362725  1.0000
  N   N16       1.0  0.253261273751157  0.7384698472026089  0.28952730735642257  1.0000
  N   N17       1.0  0.5167627388581835  0.9680116866596432  0.030379650390457945  1.0000
  N   N18       1.0  0.031986128997907294  0.4832345734327674  0.4696169083435535  1.0000
  N   N19       1.0  0.4832383425279189  0.031991803706851826  0.9696127061087553  1.0000
  N   N20       1.0  0.9680148723877763  0.5167674507843785  0.5303835696419199  1.0000
  O   O1        1.0  0.9364507253879566  0.5548734927668092  0.8067686770617398  1.0000
  O   O2        1.0  0.4451275124991979  0.06354557655728138  0.6932297067562415  1.0000
  O   O3        1.0  0.06354382616259358  0.44513093427349293  0.19322651917406833  1.0000
  O   O4        1.0  0.5548713424051498  0.9364549418318616  0.3067665510959329  1.0000
  O   O5        1.0  0.9556395778286841  0.44057483083052046  0.9313118344987996  1.0000
  O   O6        1.0  0.5594248143097005  0.04436295983064297  0.5686863507685089  1.0000
  O   O7        1.0  0.04436725109768959  0.5594250749005949  0.06868223736413638  1.0000
  O   O8        1.0  0.4405754989159547  0.9556392828506192  0.431310140814638  1.0000
  O   O9        1.0  0.8959629708323859  0.6286610073504306  0.980987524227956  1.0000
  O   O10       1.0  0.3713409364425928  0.10403777451198692  0.5190121481418828  1.0000
  O   O11       1.0  0.1040344388205838  0.3713405720977859  0.01900943712276162  1.0000
  O   O12       1.0  0.6286600801428364  0.895964264906631  0.48098655258131373  1.0000
  O   O13       1.0  0.9247785786467944  0.7307812006803187  0.8465471663662713  1.0000
  O   O14       1.0  0.2692198249473066  0.07521964173479735  0.6534540791770453  1.0000
  O   O15       1.0  0.0752166823950233  0.2692216430896223  0.15344828934293991  1.0000
  O   O16       1.0  0.7307790126274725  0.9247836316026148  0.3465466704291984  1.0000
  O   O17       1.0  0.0010457803896387005  0.7325263501580821  0.6646555476275182  1.0000
  O   O18       1.0  0.2674758358611982  0.9989478901520457  0.8353491630034142  1.0000
  O   O19       1.0  0.9989566399785801  0.2674725075183345  0.3353454493047534  1.0000
  O   O20       1.0  0.7325265258378407  0.0010481365687767003  0.16465622848619432  1.0000
  O   O21       1.0  0.1313099896941026  0.5454915026111351  0.7064112693438958  1.0000
  O   O22       1.0  0.454509154066713  0.8686888606261574  0.7935842729860312  1.0000
  O   O23       1.0  0.8686866810040285  0.4545137098503956  0.29359072671644537  1.0000
  O   O24       1.0  0.5454860908394252  0.1313118877964428  0.20641122032699846  1.0000
  O   O25       1.0  0.1417883856682636  0.6852289141140417  0.7889901081254252  1.0000
  O   O26       1.0  0.31477571906305  0.8582117491773785  0.7110073401630714  1.0000
  O   O27       1.0  0.8582097989546043  0.31478154359906096  0.21100870194187846  1.0000
  O   O28       1.0  0.6852223676808504  0.14178752152653115  0.2889930527730372  1.0000
  O   O29       1.0  0.0985927757940033  0.5556540675746147  0.8859385640080575  1.0000
  O   O30       1.0  0.444347733805337  0.9014076185625227  0.614057336078588  1.0000
  O   O31       1.0  0.9014075595698401  0.44435235566702136  0.1140590372089677  1.0000
  O   O32       1.0  0.5556510776295838  0.09859008407248376  0.3859415390686394  1.0000
