data_image0
_chemical_formula_structural       Zn2H28C28N4O8
_chemical_formula_sum              "Zn2 H28 C28 N4 O8"
_cell_length_a       7.94208355480292
_cell_length_b       9.015642495111383
_cell_length_c       10.556543094513295
_cell_angle_alpha    108.89739712091679
_cell_angle_beta     99.74554021559474
_cell_angle_gamma    100.44033074378856

_space_group_name_H-M_alt    "P 1"
_space_group_IT_number       1

loop_
  _space_group_symop_operation_xyz
  'x, y, z'

loop_
  _atom_site_type_symbol
  _atom_site_label
  _atom_site_symmetry_multiplicity
  _atom_site_fract_x
  _atom_site_fract_y
  _atom_site_fract_z
  _atom_site_occupancy
  Zn  Zn1       1.0  0.8385106366353767  0.017231125430612303  0.3474106951790786  1.0000
  Zn  Zn2       1.0  0.16148969972956453  0.9827644686312027  0.6525886456198221  1.0000
  H   H1        1.0  0.3553840940558431  0.1455037151447059  0.12139551895189268  1.0000
  H   H2        1.0  0.6446061177355418  0.8544967247321794  0.8786162066365859  1.0000
  H   H3        1.0  0.5178318754225089  0.1693583348745733  0.026186781914283603  1.0000
  H   H4        1.0  0.4821456515150758  0.8306423583577004  0.9738167483711562  1.0000
  H   H5        1.0  0.5316406288879207  0.3257655694493166  0.18399339375380913  1.0000
  H   H6        1.0  0.4683488785784604  0.6742324470979497  0.8160175532515763  1.0000
  H   H7        1.0  0.677255751262301  0.6417665860274158  0.620823253358381  1.0000
  H   H8        1.0  0.32274805111109134  0.35822774526527473  0.37917617605947374  1.0000
  H   H9        1.0  0.5861330662489976  0.5743623448547196  0.4377926705024605  1.0000
  H   H10       1.0  0.4138763211625189  0.4256380055159427  0.5622082401024924  1.0000
  H   H11       1.0  0.5118689754803469  0.724985073524671  0.5530302909186557  1.0000
  H   H12       1.0  0.48814389004895997  0.2750140377933478  0.4469688219429598  1.0000
  H   H13       1.0  0.6581276106930006  0.6581524867636332  0.1921120379841526  1.0000
  H   H14       1.0  0.3418730838891194  0.3418443308212319  0.8078867489251491  1.0000
  H   H15       1.0  0.6470944637286634  0.43353137437372885  0.9770620951070722  1.0000
  H   H16       1.0  0.35290983884292615  0.5664690559942541  0.022937235102723698  1.0000
  H   H17       1.0  0.05219134610912595  0.7667596906992032  0.9031113527445453  1.0000
  H   H18       1.0  0.9478042950309558  0.23325053886723174  0.09689343079070768  1.0000
  H   H19       1.0  0.04590503385646382  0.9732061619018567  0.12381624324046929  1.0000
  H   H20       1.0  0.9540928066230876  0.026802833788465815  0.8761875264290919  1.0000
  H   H21       1.0  0.03846463354073394  0.5955332176444018  0.7228858341444704  1.0000
  H   H22       1.0  0.9615395331044995  0.40446234902957195  0.27711209820263594  1.0000
  H   H23       1.0  0.017488142401632045  0.3726691768234789  0.5056125114636671  1.0000
  H   H24       1.0  0.9825247352370141  0.6273299582110142  0.4943847150356504  1.0000
  H   H25       1.0  0.6380881192100674  0.05636946664733962  0.5838232051409233  1.0000
  H   H26       1.0  0.36191771470401324  0.9436273776643489  0.41616867353321396  1.0000
  H   H27       1.0  0.6391019221084876  0.2573059211921134  0.8002716047957816  1.0000
  H   H28       1.0  0.36089966116235683  0.7426982782822834  0.19972181311013054  1.0000
  C   C1        1.0  0.4954022647354891  0.19360371657491982  0.1301029306025328  1.0000
  C   C2        1.0  0.504586932951085  0.8063931713152145  0.8699010248432798  1.0000
  C   C3        1.0  0.6113192443538864  0.11881577780838631  0.20708117906465157  1.0000
  C   C4        1.0  0.38867136803736474  0.8811859685992192  0.7929233903662051  1.0000
  C   C5        1.0  0.6279984104122107  0.678605181740096  0.5355083651537524  1.0000
  C   C6        1.0  0.37201118112611203  0.3213914928848922  0.46449342324235215  1.0000
  C   C7        1.0  0.766219283481867  0.8104451119685053  0.5253918116518789  1.0000
  C   C8        1.0  0.2337868420480049  0.1895528254256007  0.47460988812527194  1.0000
  C   C9        1.0  0.7412082944982006  0.6757877789633756  0.12324849937383685  1.0000
  C   C10       1.0  0.2587963723452376  0.32421388678589846  0.876749333765218  1.0000
  C   C11       1.0  0.7366934263398689  0.5513657323518544  0.0025785080842482128  1.0000
  C   C12       1.0  0.2633128774990611  0.44863715174393093  0.997417987287562  1.0000
  C   C13       1.0  0.8463194308013727  0.5788405935614876  0.9168149313801377  1.0000
  C   C14       1.0  0.15368201048843844  0.42115873036066637  0.08317803184423414  1.0000
  C   C15       1.0  0.9606290058962373  0.7345176187987975  0.9619502916744763  1.0000
  C   C16       1.0  0.03936926100092821  0.26548406097489874  0.0380524040339481  1.0000
  C   C17       1.0  0.9577440830468404  0.8520111862610522  0.08496891890786883  1.0000
  C   C18       1.0  0.042261480139060816  0.14798920335568508  0.9150324569677222  1.0000
  C   C19       1.0  0.840382487438973  0.44971518793200005  0.7853940587397686  1.0000
  C   C20       1.0  0.15960379892939616  0.5502891685266961  0.2146012202487171  1.0000
  C   C21       1.0  0.9470169356363557  0.4781388497507354  0.697687746619806  1.0000
  C   C22       1.0  0.052979928665465116  0.5218579952219641  0.3023124487412828  1.0000
  C   C23       1.0  0.9368195224883421  0.35360113851167807  0.5754430568475256  1.0000
  C   C24       1.0  0.06318011560626503  0.646392044078766  0.42455456218712573  1.0000
  C   C25       1.0  0.7261833533600068  0.17659323170624228  0.6175452278803987  1.0000
  C   C26       1.0  0.2738114899114026  0.8234097938442488  0.3824507769410488  1.0000
  C   C27       1.0  0.727649477687727  0.2940100069835836  0.7416893459534748  1.0000
  C   C28       1.0  0.27234792919499284  0.7059930200720788  0.25830414793153267  1.0000
  N   N1        1.0  0.8488057457993962  0.825009772595628  0.1642984297252781  1.0000
  N   N2        1.0  0.1511997491860697  0.17499915646078532  0.8357034662218508  1.0000
  N   N3        1.0  0.8297828866542787  0.2041131594785597  0.5351137231788811  1.0000
  N   N4        1.0  0.17021972330524454  0.7958726731257002  0.4648831405016408  1.0000
  O   O1        1.0  0.7796129522866552  0.17129168064987974  0.23133071210125414  1.0000
  O   O2        1.0  0.22037846290339771  0.828704008938857  0.768669399935426  1.0000
  O   O3        1.0  0.5432818299231315  0.007820175906118696  0.24609609735433924  1.0000
  O   O4        1.0  0.456703105010867  0.992184043430243  0.7539112836855465  1.0000
  O   O5        1.0  0.7384743413097611  0.8361283196622865  0.4128807249072607  1.0000
  O   O6        1.0  0.2615318705845695  0.16386111386685803  0.5871176252549047  1.0000
  O   O7        1.0  0.8970779672069824  0.8858656762810073  0.6287124488304271  1.0000
  O   O8        1.0  0.102929949408761  0.11413837872833452  0.3712864814987283  1.0000
