data_image0
_chemical_formula_structural       CdH12C16S2N10
_chemical_formula_sum              "Cd1 H12 C16 S2 N10"
_cell_length_a       5.760908041890696
_cell_length_b       8.315016630555721
_cell_length_c       10.174456291500789
_cell_angle_alpha    86.33304882648663
_cell_angle_beta     81.74130874111322
_cell_angle_gamma    88.57716178978761

_space_group_name_H-M_alt    "P 1"
_space_group_IT_number       1

loop_
  _space_group_symop_operation_xyz
  'x, y, z'

loop_
  _atom_site_type_symbol
  _atom_site_label
  _atom_site_symmetry_multiplicity
  _atom_site_fract_x
  _atom_site_fract_y
  _atom_site_fract_z
  _atom_site_occupancy
  Cd  Cd1       1.0  0.5000011759751573  0.9999994833961737  0.4999984280898175  1.0000
  H   H1        1.0  0.2824282787392677  0.6939994914129103  0.7364579842908299  1.0000
  H   H2        1.0  0.7175880856752386  0.3060017055833556  0.26353507368140333  1.0000
  H   H3        1.0  0.8880064472484789  0.41020727626121106  0.6126970521972694  1.0000
  H   H4        1.0  0.11199308242398587  0.5897805152225358  0.38730315995383796  1.0000
  H   H5        1.0  0.8416572613277894  0.29185818641857963  0.8202476001831513  1.0000
  H   H6        1.0  0.15836314635043183  0.7081322093441996  0.1797457820184434  1.0000
  H   H7        1.0  0.7138614929666716  0.1126665243603782  0.02224012042240279  1.0000
  H   H8        1.0  0.286137787977367  0.8873273732549266  0.9777656347513571  1.0000
  H   H9        1.0  0.29976356863653564  0.1399675442768498  0.13948509463348566  1.0000
  H   H10       1.0  0.7002297451369799  0.8600407612381602  0.8605212592132858  1.0000
  H   H11       1.0  0.03520259843225661  0.3511382107996112  0.0492137371594978  1.0000
  H   H12       1.0  0.9648011521001506  0.6488700903784804  0.9507819102793179  1.0000
  C   C1        1.0  0.44392354078431856  0.6515690221154102  0.6806215989599167  1.0000
  C   C2        1.0  0.5560774622462786  0.3484235434923946  0.319373281143463  1.0000
  C   C3        1.0  0.7569708366425087  0.5069528021823188  0.6186706432670095  1.0000
  C   C4        1.0  0.24301999862663587  0.4930310892732736  0.3813177615594086  1.0000
  C   C5        1.0  0.4971832169707043  0.40700662640970364  0.8277682375603561  1.0000
  C   C6        1.0  0.5028030877123725  0.592998992363711  0.1722251097508618  1.0000
  C   C7        1.0  0.6622477960331138  0.2978188012786447  0.8709988789040396  1.0000
  C   C8        1.0  0.3377493921931816  0.702181031788669  0.1290017726095982  1.0000
  C   C9        1.0  0.5903725208327444  0.19923287879776547  0.984399669151955  1.0000
  C   C10       1.0  0.40961421601217296  0.8007656318323841  0.015602925234375682  1.0000
  C   C11       1.0  0.36151953651712887  0.21490243397118997  0.05009819139775831  1.0000
  C   C12       1.0  0.6384686616692362  0.785103436672365  0.9499116910044805  1.0000
  C   C13       1.0  0.2134287860540596  0.3307719834706545  0.9994031010295004  1.0000
  C   C14       1.0  0.7865676184896556  0.6692435009113992  0.0005956710801768944  1.0000
  C   C15       1.0  0.0385985407640987  0.9492695870948397  0.3345920523878263  1.0000
  C   C16       1.0  0.9614077879262267  0.05072315225746851  0.6654102327294639  1.0000
  S   S1        1.0  0.8001485800171508  0.9629753152387579  0.2654629963021549  1.0000
  S   S2        1.0  0.1998453670148379  0.03701839510029  0.7345343724563167  1.0000
  N   N1        1.0  0.5618929613797121  0.7251765356063373  0.5741997508430076  1.0000
  N   N2        1.0  0.43811495171336645  0.2748185543618788  0.4257963589794187  1.0000
  N   N3        1.0  0.7600521550149537  0.6335659878649764  0.5337291349245561  1.0000
  N   N4        1.0  0.2399571578889166  0.36643896681539445  0.4662809945691677  1.0000
  N   N5        1.0  0.5608795102952087  0.5130043293512757  0.7134158662637091  1.0000
  N   N6        1.0  0.4391435649673311  0.48700557932755123  0.2865898528584695  1.0000
  N   N7        1.0  0.2786639842688458  0.4258294199399515  0.8891728834610931  1.0000
  N   N8        1.0  0.7213203019674452  0.57418225607136  0.110824192802383  1.0000
  N   N9        1.0  0.21428371280906333  0.9334063465883633  0.3817078809095449  1.0000
  N   N10       1.0  0.7857138085511224  0.0665862159544943  0.6182902408626916  1.0000
