data_image0
_chemical_formula_structural       Cu2Hg2H28C44I4N8O8
_chemical_formula_sum              "Cu2 Hg2 H28 C44 I4 N8 O8"
_cell_length_a       5.061872116898269
_cell_length_b       15.411754508450798
_cell_length_c       16.36247097000754
_cell_angle_alpha    107.8680145861866
_cell_angle_beta     89.99230593058212
_cell_angle_gamma    99.46109550120974

_space_group_name_H-M_alt    "P 1"
_space_group_IT_number       1

loop_
  _space_group_symop_operation_xyz
  'x, y, z'

loop_
  _atom_site_type_symbol
  _atom_site_label
  _atom_site_symmetry_multiplicity
  _atom_site_fract_x
  _atom_site_fract_y
  _atom_site_fract_z
  _atom_site_occupancy
  Cu  Cu1       1.0  0.9999987645551514  0.5000005935659287  6.012174154228699e-07  1.0000
  Cu  Cu2       1.0  0.5000002019869285  0.5000009703984886  0.5000002376322072  1.0000
  Hg  Hg1       1.0  0.054573565236481186  3.5688653027999756e-06  0.7500364706689737  1.0000
  Hg  Hg2       1.0  0.9454238245960409  0.9999962954894955  0.24996340207588483  1.0000
  H   H1        1.0  0.43829703392572844  0.7250139151650004  0.9909495707974898  1.0000
  H   H2        1.0  0.7133973600107452  0.2750098938668443  0.5091165728856879  1.0000
  H   H3        1.0  0.5616983803318973  0.2749859491473784  0.009050301976110092  1.0000
  H   H4        1.0  0.2866075853246173  0.7249892775743233  0.49088370977427337  1.0000
  H   H5        1.0  0.9262734710091036  0.6600138691794938  0.7689382433958798  1.0000
  H   H6        1.0  0.2666054052765574  0.3399666800458903  0.7310167055929355  1.0000
  H   H7        1.0  0.07372159645178297  0.339985302049591  0.23106203940781714  1.0000
  H   H8        1.0  0.7333982574694601  0.6600338765694075  0.2689833679151121  1.0000
  H   H9        1.0  0.10794368357558425  0.5507106438072852  0.831422487231464  1.0000
  H   H10       1.0  0.5574945109837656  0.44934997402870636  0.6685458795619184  1.0000
  H   H11       1.0  0.8920497544992114  0.4492892195126359  0.16857799645040933  1.0000
  H   H12       1.0  0.44251542406782096  0.5506512738970598  0.3314550055888503  1.0000
  H   H13       1.0  0.3015212952734744  0.9722476780196132  0.9217707677026683  1.0000
  H   H14       1.0  0.32913855276454734  0.027760214327130897  0.578227635278374  1.0000
  H   H15       1.0  0.6984737734032719  0.027751495109548295  0.07822829334197931  1.0000
  H   H16       1.0  0.6708608132508046  0.972239651020118  0.4217716265582042  1.0000
  H   H17       1.0  0.532499686040495  0.8670450364835316  0.9747053627375096  1.0000
  H   H18       1.0  0.665299883553125  0.13299789166407547  0.5252791982623037  1.0000
  H   H19       1.0  0.4674993337860372  0.13295413673045428  0.025293698249640804  1.0000
  H   H20       1.0  0.33469948185429377  0.867001972733135  0.47472067445380633  1.0000
  H   H21       1.0  0.5441378111680066  0.6976942047550664  0.7089497089176007  1.0000
  H   H22       1.0  0.8465020189661274  0.3022787283618413  0.791060646708587  1.0000
  H   H23       1.0  0.45585957805658234  0.3023056586496934  0.2910507747067825  1.0000
  H   H24       1.0  0.15349862903062916  0.6977197508612388  0.20893943515942934  1.0000
  H   H25       1.0  0.3140511329998929  0.8092974173283378  0.6682597309839123  1.0000
  H   H26       1.0  0.5045951537421017  0.1906722848144256  0.8317279605945062  1.0000
  H   H27       1.0  0.6859478874345725  0.1907017568356935  0.3317387191237131  1.0000
  H   H28       1.0  0.4954038648685781  0.8093268864994912  0.16827232215169374  1.0000
  C   C1        1.0  0.6961229114195078  0.6266317452955904  0.9819482921516071  1.0000
  C   C2        1.0  0.0696196622576153  0.3733727887318635  0.5180652747825434  1.0000
  C   C3        1.0  0.30387052726322844  0.3733681189743691  0.0180515806507415  1.0000
  C   C4        1.0  0.9303859754553728  0.6266277669758156  0.48193540957628045  1.0000
  C   C5        1.0  0.5891859504557074  0.6899089250294281  0.9532484485697523  1.0000
  C   C6        1.0  0.8994117307743109  0.31011936030709814  0.5468046587794291  1.0000
  C   C7        1.0  0.4108114393768147  0.310090939325363  0.04675142417510613  1.0000
  C   C8        1.0  0.10059519013594806  0.6898798111764817  0.4531956238517835  1.0000
  C   C9        1.0  0.6721034714190921  0.7050633266912741  0.876221536236308  1.0000
  C   C10       1.0  0.9673823889354124  0.2949004278774793  0.623772428113476  1.0000
  C   C11       1.0  0.3278946101831223  0.29493792097999716  0.12377934908694503  1.0000
  C   C12       1.0  0.032625223744531716  0.7051001269225735  0.3762288670961311  1.0000
  C   C13       1.0  0.857906856216566  0.6528516457057876  0.8301004772562594  1.0000
  C   C14       1.0  0.20542424379705435  0.34713511687827747  0.6698608005605209  1.0000
  C   C15       1.0  0.14208821185225423  0.34714752647333574  0.16989919466791292  1.0000
  C   C16       1.0  0.794578135143759  0.6528668230110738  0.33014028555466984  1.0000
  C   C17       1.0  0.9605395463392481  0.5917891632229056  0.8639039359194172  1.0000
  C   C18       1.0  0.3690310630791344  0.4082372297630953  0.636063309650396  1.0000
  C   C19       1.0  0.03945191676859135  0.40821070100464135  0.13609593691167987  1.0000
  C   C20       1.0  0.6309768970054888  0.5917640190702894  0.36393696464959646  1.0000
  C   C21       1.0  0.6057701620324779  0.6026101805693572  0.06138825548539026  1.0000
  C   C22       1.0  0.0032255321583817883  0.39732242689687064  0.43860681089164905  1.0000
  C   C23       1.0  0.3942275745967834  0.39739037686872797  0.9386112072293784  1.0000
  C   C24       1.0  0.9967741788299165  0.6026781286835571  0.5613938735534205  1.0000
  C   C25       1.0  0.36168166533586527  0.91083541595912  0.8771332832940715  1.0000
  C   C26       1.0  0.45071586475278747  0.0891736183933531  0.6228561738440916  1.0000
  C   C27       1.0  0.6383153783078439  0.0891637562624155  0.12286638860135209  1.0000
  C   C28       1.0  0.5492835012625646  0.9108262469538956  0.3771430879924936  1.0000
  C   C29       1.0  0.4876610790928663  0.8515314434258483  0.9060977447994887  1.0000
  C   C30       1.0  0.6360349141252469  0.14850642261790628  0.5938936099018833  1.0000
  C   C31       1.0  0.5123336433950668  0.1484670375700574  0.09390111539572392  1.0000
  C   C32       1.0  0.3639684024319578  0.851493441864136  0.40610626275673684  1.0000
  C   C33       1.0  0.5579204755370739  0.7727518095887901  0.8462278148363609  1.0000
  C   C34       1.0  0.7853291967873303  0.22724366302677618  0.6537741765601339  1.0000
  C   C35       1.0  0.4420769149033815  0.22724805571603915  0.15377144702896567  1.0000
  C   C36       1.0  0.2146760947368449  0.7727562005476472  0.3462263069492622  1.0000
  C   C37       1.0  0.5017854315273452  0.7583985958367023  0.7588585725625805  1.0000
  C   C38       1.0  0.7433985770160517  0.24159061852672883  0.7411436406844842  1.0000
  C   C39       1.0  0.4982139338800735  0.24160126856050818  0.24114130015352941  1.0000
  C   C40       1.0  0.2566020709807048  0.7584078606963441  0.2588564411835391  1.0000
  C   C41       1.0  0.3703231648725023  0.8205272829814022  0.7354400186421375  1.0000
  C   C42       1.0  0.549630384903935  0.17947575321893788  0.7645466849275381  1.0000
  C   C43       1.0  0.629676201750776  0.17947258331587787  0.2645586323149232  1.0000
  C   C44       1.0  0.4503702630928288  0.8205227260041424  0.23545339694048545  1.0000
  I   I1        1.0  0.8505081205388548  0.891335372534577  0.5915343572537638  1.0000
  I   I2        1.0  0.9591223842710761  0.10880232844029784  0.9084869933350674  1.0000
  I   I3        1.0  0.1494912448685639  0.1086644918626334  0.4084655154623462  1.0000
  I   I4        1.0  0.04087535053439945  0.8911982261476721  0.09151430201826827  1.0000
  N   N1        1.0  0.8830637811682466  0.5802496209532105  0.9390113841725166  1.0000
  N   N2        1.0  0.3029870247795472  0.41976536801221437  0.5609665353666244  1.0000
  N   N3        1.0  0.11693128690056649  0.41974955122591234  0.060988287751655414  1.0000
  N   N4        1.0  0.6970182667446282  0.5802344955622091  0.4390339481427717  1.0000
  N   N5        1.0  0.3013302332433909  0.8950411672944724  0.7933135608827938  1.0000
  N   N6        1.0  0.4061467337587743  0.10496215280506499  0.7066770295872332  1.0000
  N   N7        1.0  0.6986691333798873  0.1049586990028146  0.20668509007425942  1.0000
  N   N8        1.0  0.5938506560737479  0.8950377115497258  0.29332284315762536  1.0000
  O   O1        1.0  0.7447583078283913  0.5501553924826865  0.08545541210613555  1.0000
  O   O2        1.0  0.19468918665543808  0.44971586922159895  0.4144636473140864  1.0000
  O   O3        1.0  0.25524441730123465  0.4498472395399204  0.91454587485849  1.0000
  O   O4        1.0  0.8053124999077568  0.5502846864012483  0.5855370371022417  1.0000
  O   O5        1.0  0.4044361394049859  0.6302080590923823  0.09686297465449205  1.0000
  O   O6        1.0  0.774172445143378  0.3697394259719643  0.4032021882630374  1.0000
  O   O7        1.0  0.5955589292717606  0.3697911140367794  0.9031360863901555  1.0000
  O   O8        1.0  0.22583087080590042  0.6302604375600465  0.5967982952751072  1.0000
