data_image0
_chemical_formula_structural       Cu6As4H32C32Br6N4O4
_chemical_formula_sum              "Cu6 As4 H32 C32 Br6 N4 O4"
_cell_length_a       9.922243578007581
_cell_length_b       11.380742968889084
_cell_length_c       11.613270681647146
_cell_angle_alpha    67.95326548514574
_cell_angle_beta     78.74783651410215
_cell_angle_gamma    67.91458893925865

_space_group_name_H-M_alt    "P 1"
_space_group_IT_number       1

loop_
  _space_group_symop_operation_xyz
  'x, y, z'

loop_
  _atom_site_type_symbol
  _atom_site_label
  _atom_site_symmetry_multiplicity
  _atom_site_fract_x
  _atom_site_fract_y
  _atom_site_fract_z
  _atom_site_occupancy
  Cu  Cu1       1.0  0.187662020085348  0.18110216868679876  0.3590060201421962  1.0000
  Cu  Cu2       1.0  0.8123451171205716  0.8188958442014072  0.6409964348328356  1.0000
  Cu  Cu3       1.0  0.9137545276140248  0.3384035934416971  0.2462537848063133  1.0000
  Cu  Cu4       1.0  0.08624313626013702  0.6615953779811007  0.7537386303151049  1.0000
  Cu  Cu5       1.0  0.14652045546543493  0.8539480848786879  0.5533733083971055  1.0000
  Cu  Cu6       1.0  0.8534797300745114  0.14605495576996214  0.4466284013344931  1.0000
  As  As1       1.0  0.4284216710186826  0.04845603131330019  0.3261975280093878  1.0000
  As  As2       1.0  0.5715803599593986  0.9515419712638855  0.6738031601027786  1.0000
  As  As3       1.0  0.3844465344217056  0.827000563921736  0.5825527865760092  1.0000
  As  As4       1.0  0.6155530074447811  0.1730014640728754  0.41744767630553514  1.0000
  H   H1        1.0  0.3917811459185503  0.9639191468327083  0.16866795551190703  1.0000
  H   H2        1.0  0.6082226275113811  0.0360768485331846  0.831334055632247  1.0000
  H   H3        1.0  0.583461529410329  0.9119865614226725  0.18846749331883922  1.0000
  H   H4        1.0  0.4165419131121555  0.0880104281585474  0.8115316209580282  1.0000
  H   H5        1.0  0.48774018525133317  0.0821457015729763  0.0970492869061985  1.0000
  H   H6        1.0  0.5122625711752776  0.917850290241944  0.9029520262885881  1.0000
  H   H7        1.0  0.5352154708747038  0.5938746696806376  0.5799325275850862  1.0000
  H   H8        1.0  0.4647851379533564  0.4061243496144371  0.42007059580436845  1.0000
  H   H9        1.0  0.6348678311363898  0.6594638627270583  0.6408043218035285  1.0000
  H   H10       1.0  0.3651307224738076  0.3405351569099365  0.3591991285711699  1.0000
  H   H11       1.0  0.4933309417164155  0.5965910706086817  0.7359482948929496  1.0000
  H   H12       1.0  0.5066682979896698  0.40340894679462014  0.26405295656383015  1.0000
  H   H13       1.0  0.1585428217797614  0.9712424282291893  0.821841642089687  1.0000
  H   H14       1.0  0.8414604465869789  0.028760611906598395  0.17815957716404535  1.0000
  H   H15       1.0  0.15372000049023865  0.9583718041822493  0.042360984500689425  1.0000
  H   H16       1.0  0.8462851027090326  0.04162620160400369  0.9576400745756003  1.0000
  H   H17       1.0  0.1297046698371815  0.16201003582740015  0.08887607273979367  1.0000
  H   H18       1.0  0.8702987302628746  0.8379869686415591  0.9111264873050399  1.0000
  H   H19       1.0  0.10455922515859589  0.3783385253221568  0.9185223308498462  1.0000
  H   H20       1.0  0.8954427527914464  0.6216594958646977  0.08148266447228292  1.0000
  H   H21       1.0  0.114285228534861  0.3922141735763632  0.6979649677421801  1.0000
  H   H22       1.0  0.8857149570050781  0.6077888670722942  0.30203674198941843  1.0000
  H   H23       1.0  0.4682558823546117  0.3518991725952105  0.08167773083820151  1.0000
  H   H24       1.0  0.5317374863224631  0.6481058537879106  0.918318304672567  1.0000
  H   H25       1.0  0.3323160765099332  0.35119125424169084  0.9251050382528585  1.0000
  H   H26       1.0  0.6676825619451209  0.6488077356198262  0.07489152058590068  1.0000
  H   H27       1.0  0.45813677677161746  0.32217885549206216  0.7247065132404769  1.0000
  H   H28       1.0  0.5418611967987703  0.677819129159282  0.27529052163222173  1.0000
  H   H29       1.0  0.7227963345152374  0.29345811535110755  0.6817730320890616  1.0000
  H   H30       1.0  0.27720230393981654  0.7065408745104093  0.3182235267496976  1.0000
  H   H31       1.0  0.8589281635616434  0.3002845367760045  0.8365010005305958  1.0000
  H   H32       1.0  0.14106664540687322  0.6997164718045213  0.16349714658739592  1.0000
  C   C1        1.0  0.4800073749582767  0.9950526281032309  0.17790336764485196  1.0000
  C   C2        1.0  0.5199956836287357  0.004945374302991498  0.822097156974692  1.0000
  C   C3        1.0  0.529338149456244  0.6488153271717607  0.641593315696248  1.0000
  C   C4        1.0  0.4706607169199659  0.35118569933460714  0.3584084846612185  1.0000
  C   C5        1.0  0.144307605195138  0.18896980150395137  0.6224338102667274  1.0000
  C   C6        1.0  0.8556909165982349  0.8110292292988459  0.3775722244339478  1.0000
  C   C7        1.0  0.13795620709461087  0.18172641328855826  0.7475611113970898  1.0000
  C   C8        1.0  0.8620484197885007  0.8182756324609458  0.2524428412312998  1.0000
  C   C9        1.0  0.14758266740965106  0.059082452846603004  0.8444272020807088  1.0000
  C   C10       1.0  0.8524203593605367  0.940915560725429  0.1555759068648113  1.0000
  C   C11       1.0  0.1454491160348397  0.0527282797203128  0.9667421664335689  1.0000
  C   C12       1.0  0.8545562575080085  0.947271747823052  0.03326068839346158  1.0000
  C   C13       1.0  0.13234114355909554  0.16689916894265616  0.9929749791690125  1.0000
  C   C14       1.0  0.8676604928779029  0.8330998501814618  0.00702798072781976  1.0000
  C   C15       1.0  0.12006723617589907  0.28879822162068075  0.8967107399728319  1.0000
  C   C16       1.0  0.8799285261622958  0.7112028128424299  0.1032932737464875  1.0000
  C   C17       1.0  0.12346462174932782  0.2974229540280006  0.7735332035385196  1.0000
  C   C18       1.0  0.8765331852011261  0.7025780838151264  0.22647134463754517  1.0000
  C   C19       1.0  0.7503172147455007  0.32807677284442593  0.05727710529090756  1.0000
  C   C20       1.0  0.24967380715891346  0.6719262395673696  0.9427191843383507  1.0000
  C   C21       1.0  0.6725823502547927  0.32554527732138167  0.9686040341961327  1.0000
  C   C22       1.0  0.32741273212710115  0.674460746657097  0.03138963890409487  1.0000
  C   C23       1.0  0.5235201654283372  0.33982428107403706  0.9939961624370353  1.0000
  C   C24       1.0  0.47647080651782403  0.660181743588261  0.005998164633680857  1.0000
  C   C25       1.0  0.4477635778807994  0.3385512531435991  0.9058010692569735  1.0000
  C   C26       1.0  0.5522319383948188  0.6614507457593604  0.09419315605912007  1.0000
  C   C27       1.0  0.5190252322564319  0.3213651490815437  0.7938944630212814  1.0000
  C   C28       1.0  0.4809696191345125  0.678635844611243  0.20610023832874438  1.0000
  C   C29       1.0  0.6673383275794365  0.3056700882974468  0.7694487814101049  1.0000
  C   C30       1.0  0.33265852600133894  0.6943309236630951  0.23054990016463955  1.0000
  C   C31       1.0  0.7443917217321714  0.3090493086061769  0.8555586803312138  1.0000
  C   C32       1.0  0.25560164694490345  0.6909557177769441  0.1444373551795478  1.0000
  Br  Br1       1.0  0.07289389866427601  0.0203082190169113  0.3397046771108947  1.0000
  Br  Br2       1.0  0.9271062868756634  0.9796948216317456  0.6602970326207043  1.0000
  Br  Br3       1.0  0.14354139828225954  0.3804172745107053  0.17485060000512218  1.0000
  Br  Br4       1.0  0.8564630400323454  0.6195797260653678  0.8251509351050923  1.0000
  Br  Br5       1.0  0.19983872660951363  0.6175414069884083  0.5659483789253412  1.0000
  Br  Br6       1.0  0.8001680690833555  0.3824576038370608  0.43405204062440106  1.0000
  N   N1        1.0  0.1491775840232421  0.19533179352129787  0.5192813543630165  1.0000
  N   N2        1.0  0.8508301650393124  0.8046672431867492  0.48072493178803893  1.0000
  N   N3        1.0  0.8136884736204879  0.33002248917821214  0.13115727004009864  1.0000
  N   N4        1.0  0.18630743719621298  0.6699784931778152  0.8688346834913288  1.0000
  O   O1        1.0  0.588054959225396  0.09583889592725107  0.31463869590444915  1.0000
  O   O2        1.0  0.4119491057593334  0.9041591137518881  0.6853633881064596  1.0000
  O   O3        1.0  0.49566306187185927  0.8799995591577527  0.4405903099166863  1.0000
  O   O4        1.0  0.5043389797118328  0.11999843969749689  0.5594095167534828  1.0000
