data_image0
_chemical_formula_structural       Ag4H32C48N16Cl4O16
_chemical_formula_sum              "Ag4 H32 C48 N16 Cl4 O16"
_cell_length_a       7.152743318082887
_cell_length_b       14.168038313435503
_cell_length_c       14.748996517049287
_cell_angle_alpha    89.99970478047324
_cell_angle_beta     90.00010253146645
_cell_angle_gamma    104.60473691098181

_space_group_name_H-M_alt    "P 1"
_space_group_IT_number       1

loop_
  _space_group_symop_operation_xyz
  'x, y, z'

loop_
  _atom_site_type_symbol
  _atom_site_label
  _atom_site_symmetry_multiplicity
  _atom_site_fract_x
  _atom_site_fract_y
  _atom_site_fract_z
  _atom_site_occupancy
  Ag  Ag1       1.0  0.15001082278541839  4.028446156209999e-05  0.37136702499275026  1.0000
  Ag  Ag2       1.0  0.3499863467438614  0.9999597033293453  0.8713654297444862  1.0000
  Ag  Ag3       1.0  0.8499903746996368  0.9999607213757642  0.6286332006477409  1.0000
  Ag  Ag4       1.0  0.6500127237420728  3.984384986920001e-05  0.1286347958987051  1.0000
  H   H1        1.0  0.383522336593785  0.16770771317884225  0.4907049991501537  1.0000
  H   H2        1.0  0.11647532696895271  0.832292381265958  0.9907060664296379  1.0000
  H   H3        1.0  0.7842007794437506  0.16762651958585903  0.5093552555110321  1.0000
  H   H4        1.0  0.7158011560036642  0.8323753975408362  0.0093541383534443  1.0000
  H   H5        1.0  0.6164784963972424  0.8322925632804752  0.5092938704675375  1.0000
  H   H6        1.0  0.8835262350101304  0.16770935394937675  0.009295515233659998  1.0000
  H   H7        1.0  0.21580078253459342  0.8323752156330143  0.4906449701278177  1.0000
  H   H8        1.0  0.284198278975559  0.1676248790199182  0.9906460872880984  1.0000
  H   H9        1.0  0.4759883547481821  0.35050741071280817  0.4943922947399173  1.0000
  H   H10       1.0  0.02400858383089855  0.6494912057259724  0.9943941878673358  1.0000
  H   H11       1.0  0.8741890814742987  0.35045632808373023  0.5057023895633108  1.0000
  H   H12       1.0  0.6258128500102984  0.6495456080930707  0.005705490609933899  1.0000
  H   H13       1.0  0.5240121137499257  0.6494921363632002  0.5056072528916502  1.0000
  H   H14       1.0  0.9759926136545191  0.35050980010958444  0.0056067157853903005  1.0000
  H   H15       1.0  0.125810353503077  0.6495439484858706  0.4942944460170863  1.0000
  H   H16       1.0  0.37418694946257597  0.3504553978474619  0.994295413042181  1.0000
  H   H17       1.0  0.10207068138464587  0.3445221178592772  0.2618312408930734  1.0000
  H   H18       1.0  0.3979263692480187  0.6554784414933934  0.7618334287038309  1.0000
  H   H19       1.0  0.24283872416749833  0.3444497645313119  0.7380013243996331  1.0000
  H   H20       1.0  0.2571596986095628  0.6555509190701585  0.2380011195546317  1.0000
  H   H21       1.0  0.8979252285829061  0.655476700148341  0.7381689847505513  1.0000
  H   H22       1.0  0.6020754972637337  0.34452110547233156  0.23816815296502367  1.0000
  H   H23       1.0  0.7571576102535928  0.6555527004907731  0.26199822322291055  1.0000
  H   H24       1.0  0.7428379738638209  0.34444862821403177  0.7619991060879485  1.0000
  H   H25       1.0  0.024092702332445984  0.16170817457076225  0.2690714747128453  1.0000
  H   H26       1.0  0.47590362717229334  0.8382908882405501  0.7690728240441799  1.0000
  H   H27       1.0  0.1371697586417184  0.16162845497397166  0.7311463500043658  1.0000
  H   H28       1.0  0.3628286566932459  0.8383722644032828  0.231143974635998  1.0000
  H   H29       1.0  0.9759014451296365  0.8382899141585154  0.7309294289440514  1.0000
  H   H30       1.0  0.5240975103525117  0.1617071999638569  0.2309280796157509  1.0000
  H   H31       1.0  0.8628307698170089  0.8383740097331864  0.2688531976199968  1.0000
  H   H32       1.0  0.6371683467538106  0.16162874175073227  0.7688555729904465  1.0000
  C   C1        1.0  0.32486778882721273  0.20994648069952146  0.4415299981059349  1.0000
  C   C2        1.0  0.1751308548772813  0.790053140855946  0.9415326816494698  1.0000
  C   C3        1.0  0.8849547158399105  0.20988953115560344  0.5585565078734476  1.0000
  C   C4        1.0  0.6150469085215138  0.7901113998490744  0.0585561908098455  1.0000
  C   C5        1.0  0.6751323151775991  0.7900523369949396  0.558469549527281  1.0000
  C   C6        1.0  0.8248707071014325  0.20994859436115829  0.0584682220016077  1.0000
  C   C7        1.0  0.11504927766949165  0.7901114744753098  0.44144236174380314  1.0000
  C   C8        1.0  0.38495112844552887  0.20988887681488672  0.941444712843314  1.0000
  C   C9        1.0  0.3765042804354977  0.31132825005761317  0.4431298781103195  1.0000
  C   C10       1.0  0.12349819454985327  0.6886706334535831  0.943132341355948  1.0000
  C   C11       1.0  0.9347014572200789  0.3112721802942318  0.5569087084804067  1.0000
  C   C12       1.0  0.565301563365864  0.6887287592009274  0.0569095287840824  1.0000
  C   C13       1.0  0.6234975860747839  0.6886712969151887  0.5568689915096314  1.0000
  C   C14       1.0  0.876502638441913  0.3113296430021961  0.05686788428619849  1.0000
  C   C15       1.0  0.06530010475642457  0.6887295549334878  0.44308812709729745  1.0000
  C   C16       1.0  0.43469750712007027  0.31127078797828023  0.9430906968591088  1.0000
  C   C17       1.0  0.2957625302823104  0.3613070177579302  0.37765882438704074  1.0000
  C   C18       1.0  0.20423604409149476  0.6386929370851816  0.8776616053894556  1.0000
  C   C19       1.0  0.06571449508321339  0.36124050099824956  0.6222279058602354  1.0000
  C   C20       1.0  0.43428556453033457  0.638761515999569  0.12222793788281897  1.0000
  C   C21       1.0  0.7042365402032474  0.6386925294230535  0.6223407232439158  1.0000
  C   C22       1.0  0.7957644244077144  0.3613066099855189  0.1223399762787949  1.0000
  C   C23       1.0  0.9342856688814861  0.6387612343309002  0.37777028574132027  1.0000
  C   C24       1.0  0.5657124724363386  0.36123876066616123  0.8777722877581127  1.0000
  C   C25       1.0  0.34386318405648814  0.46534629532626337  0.3769453185473992  1.0000
  C   C26       1.0  0.1561356940735408  0.5346514749997694  0.8769445054320286  1.0000
  C   C27       1.0  0.12159903893508067  0.4652842960661515  0.6230026402275186  1.0000
  C   C28       1.0  0.37839925901310784  0.5347169876147574  0.12300178344700899  1.0000
  C   C29       1.0  0.6561337594303112  0.5346517931948326  0.6230549070984848  1.0000
  C   C30       1.0  0.8438654434501557  0.46534661320993814  0.1230543641912121  1.0000
  C   C31       1.0  0.8784004560043925  0.5347188981275294  0.3769969073945915  1.0000
  C   C32       1.0  0.6215998114724499  0.4652825595662263  0.8769977641839475  1.0000
  C   C33       1.0  0.1662553230262347  0.3079584591030198  0.31359352493619497  1.0000
  C   C34       1.0  0.3337438508312545  0.69204037117683  0.8135947978337796  1.0000
  C   C35       1.0  0.1419276344859242  0.30789001954639156  0.686314465004294  1.0000
  C   C36       1.0  0.35806933417323705  0.6921109338706584  0.1863134884711215  1.0000
  C   C37       1.0  0.8337419849538608  0.6920403587996233  0.6864067007080337  1.0000
  C   C38       1.0  0.6662566176675853  0.3079591758956397  0.18640610582224326  1.0000
  C   C39       1.0  0.8580711314665947  0.6921117158859643  0.3136844046088783  1.0000
  C   C40       1.0  0.6419259067679876  0.3078893430067921  0.8136860591563675  1.0000
  C   C41       1.0  0.1229180727329791  0.20669202846207918  0.317406897879728  1.0000
  C   C42       1.0  0.3770790382254532  0.7933082408915834  0.8174083844467573  1.0000
  C   C43       1.0  0.08360234764096222  0.2066276513602858  0.6826954613857622  1.0000
  C   C44       1.0  0.4163946170896082  0.7933733209423648  0.18269403353570368  1.0000
  C   C45       1.0  0.877079235247116  0.7933067894405638  0.6825933277645007  1.0000
  C   C46       1.0  0.6229221592603409  0.20669276494220404  0.18259319721819617  1.0000
  C   C47       1.0  0.9163988498433541  0.793373354480579  0.31730340823028047  1.0000
  C   C48       1.0  0.5836009883452747  0.2066276853148636  0.8173061921023717  1.0000
  N   N1        1.0  0.2011053119390525  0.1585676180171305  0.3798187547234306  1.0000
  N   N2        1.0  0.29889429829805875  0.8414315960710749  0.8798206129523577  1.0000
  N   N3        1.0  0.9572586973986431  0.1585138592059252  0.6203283266790223  1.0000
  N   N4        1.0  0.5427398934560655  0.8414889379294761  0.12032633621940647  1.0000
  N   N5        1.0  0.7988937585465052  0.8414319291638532  0.6201807929075329  1.0000
  N   N6        1.0  0.7011093307191558  0.1585686801729835  0.12018029070323169  1.0000
  N   N7        1.0  0.042744991578097004  0.8414893346745985  0.37967054293267916  1.0000
  N   N8        1.0  0.4572553474855283  0.15851133894619804  0.8796738894203102  1.0000
  N   N9        1.0  0.3828935013276578  0.5505244672731989  0.3768407104980368  1.0000
  N   N10       1.0  0.11710537669050314  0.4494733035906079  0.8768429977638518  1.0000
  N   N11       1.0  0.16750788266841  0.5504597622520676  0.6232953503342884  1.0000
  N   N12       1.0  0.3324897465706513  0.44954297877381316  0.1232928418652719  1.0000
  N   N13       1.0  0.6171052046642416  0.4494743505280069  0.6231581591223403  1.0000
  N   N14       1.0  0.8828950918076047  0.5505262434854004  0.12315654986771558  1.0000
  N   N15       1.0  0.8324849267413869  0.44954124421510494  0.3767048753025719  1.0000
  N   N16       1.0  0.6675093838758955  0.5504594860365515  0.8767073837707073  1.0000
  Cl  Cl1       1.0  0.3413033325283975  0.9999865261976805  0.6254639507967213  1.0000
  Cl  Cl2       1.0  0.158701898193442  1.1826484424699994e-05  0.125462841668643  1.0000
  Cl  Cl3       1.0  0.6587002964877159  1.375005169279999e-05  0.37453491882217804  1.0000
  Cl  Cl4       1.0  0.8413013063698571  0.9999848027469367  0.8745380619957999  1.0000
  O   O1        1.0  0.22149990805019837  0.9998768384004536  0.5449716433366945  1.0000
  O   O2        1.0  0.2785006767674361  0.00012120523738449999  0.044969281562586595  1.0000
  O   O3        1.0  0.7784998314616943  0.00012124991069129994  0.45502858231039767  1.0000
  O   O4        1.0  0.7214983937181287  0.9998783419435991  0.9550302660683769  1.0000
  O   O5        1.0  0.2208570623466102  1.2666395222000015e-06  0.7066224065321122  1.0000
  O   O6        1.0  0.2791535439876469  0.9999988503809758  0.2066198354765802  1.0000
  O   O7        1.0  0.7791454731907309  0.9999968214599022  0.2933784971284226  1.0000
  O   O8        1.0  0.7208560415722971  2.154828273099966e-06  0.793379712155321  1.0000
  O   O9        1.0  0.5012541892716486  0.08757586948814831  0.6255496768756784  1.0000
  O   O10       1.0  0.9987516418877149  0.9124217939852244  0.125551798458865  1.0000
  O   O11       1.0  0.5859451825781221  0.08751327173775539  0.37432245259144986  1.0000
  O   O12       1.0  0.914053624024376  0.9124852823764298  0.874326770582357  1.0000
  O   O13       1.0  0.4987425096431082  0.9124273249137076  0.3744505487574443  1.0000
  O   O14       1.0  0.0012595262991438893  0.08757118759297808  0.8744531732914497  1.0000
  O   O15       1.0  0.41406373395586377  0.9124891923395565  0.6256770950365507  1.0000
  O   O16       1.0  0.0859397344912338  0.08750842995506497  0.1256754891095042  1.0000
