data_image0
_chemical_formula_structural       Zn4H16C16N32
_chemical_formula_sum              "Zn4 H16 C16 N32"
_cell_length_a       7.546166762000239
_cell_length_b       10.086368257811905
_cell_length_c       10.812472277638173
_cell_angle_alpha    111.93637747807655
_cell_angle_beta     90.00002361576554
_cell_angle_gamma    89.99997584443432

_space_group_name_H-M_alt    "P 1"
_space_group_IT_number       1

loop_
  _space_group_symop_operation_xyz
  'x, y, z'

loop_
  _atom_site_type_symbol
  _atom_site_label
  _atom_site_symmetry_multiplicity
  _atom_site_fract_x
  _atom_site_fract_y
  _atom_site_fract_z
  _atom_site_occupancy
  Zn  Zn1       1.0  0.8131241179058434  0.08151873823836546  0.1642950762530049  1.0000
  Zn  Zn2       1.0  0.18687622092090087  0.5815180837831873  0.16429436698728483  1.0000
  Zn  Zn3       1.0  0.7655568661483231  0.7144460118863519  0.5840536410211213  1.0000
  Zn  Zn4       1.0  0.234443645170856  0.21444573168882639  0.5840538539835265  1.0000
  H   H1        1.0  0.5789335318773112  0.5479574779271558  0.06418393949697071  1.0000
  H   H2        1.0  0.42106676685991556  0.04795715446381619  0.06418419114548608  1.0000
  H   H3        1.0  0.7751549867702038  0.6484472595634257  0.0798905842075257  1.0000
  H   H4        1.0  0.22484658967638177  0.1484469815909577  0.07989079518038977  1.0000
  H   H5        1.0  0.743048657268929  0.7655510559747396  0.3193956260482976  1.0000
  H   H6        1.0  0.25695299430657315  0.2655507705588889  0.3193958436766593  1.0000
  H   H7        1.0  0.5533629155652804  0.7877422132635913  0.23310249760209698  1.0000
  H   H8        1.0  0.44663734741930483  0.2877418838720942  0.23310275455128246  1.0000
  H   H9        1.0  0.6877599989363148  0.16249951554161868  0.8945304838903922  1.0000
  H   H10       1.0  0.31223939962120545  0.6624988275433095  0.8945307239006651  1.0000
  H   H11       1.0  0.639141920239652  0.05042834113525167  0.7290452535288026  1.0000
  H   H12       1.0  0.3608587691737739  0.5504276418654186  0.7290455036175131  1.0000
  H   H13       1.0  0.9230250941129512  0.20255034073366568  0.7717390174991791  1.0000
  H   H14       1.0  0.07697553459995281  0.7025507805685008  0.7717386617970946  1.0000
  H   H15       1.0  0.017467369909638805  0.09059276629822928  0.8445816853010583  1.0000
  H   H16       1.0  0.9825333649618032  0.590592996193024  0.8445815173168327  1.0000
  C   C1        1.0  0.7915329068303906  0.47300858137104723  0.14384764324518068  1.0000
  C   C2        1.0  0.20846719893270202  0.9730089862420069  0.14384823808946112  1.0000
  C   C3        1.0  0.6927144851254284  0.5934870002418078  0.12914011727310984  1.0000
  C   C4        1.0  0.3072858262141055  0.09348670315688419  0.1291403453353794  1.0000
  C   C5        1.0  0.6286435508524734  0.7095271376589024  0.2606208467603395  1.0000
  C   C6        1.0  0.371356772513863  0.20952683019952892  0.26062016481550637  1.0000
  C   C7        1.0  0.5146757938143338  0.6555257972293446  0.34371129631361436  1.0000
  C   C8        1.0  0.4853246090357359  0.1555275964910905  0.34371231397359736  1.0000
  C   C9        1.0  0.715311504043008  0.9435971572277491  0.8566955155783444  1.0000
  C   C10       1.0  0.2846877135163269  0.44359686538173554  0.8566957389562404  1.0000
  C   C11       1.0  0.7315835761242723  0.0661081570076831  0.8119480689647247  1.0000
  C   C12       1.0  0.26841582814898146  0.5661085524598023  0.8119477529474395  1.0000
  C   C13       1.0  0.9190562221022774  0.09296961309404847  0.7701855179006216  1.0000
  C   C14       1.0  0.08094314237946781  0.5929700520089085  0.7701851630211394  1.0000
  C   C15       1.0  0.9805573510923367  0.9962662263136434  0.6350988006185999  1.0000
  C   C16       1.0  0.019440380880766397  0.4962670737311115  0.6350974987802829  1.0000
  N   N1        1.0  0.851632353313825  0.2705884235236624  0.15028043026213564  1.0000
  N   N2        1.0  0.14836919568978857  0.7705888468070511  0.1502800893595334  1.0000
  N   N3        1.0  0.0036110585791319996  0.337891523316287  0.16626265254993197  1.0000
  N   N4        1.0  0.9963891366789568  0.8378917499987605  0.16626248743800418  1.0000
  N   N5        1.0  0.9691197662287935  0.46637512176615536  0.16255817165654907  1.0000
  N   N6        1.0  0.030880354312607498  0.9663745034762665  0.16255743005364545  1.0000
  N   N7        1.0  0.7161145157493111  0.35015837528687394  0.13589686191569678  1.0000
  N   N8        1.0  0.28388565467719923  0.850158762673203  0.1358974723938572  1.0000
  N   N9        1.0  0.35241196044477613  0.5973415380019629  0.3122593750379181  1.0000
  N   N10       1.0  0.6475884567046676  0.09734223083412269  0.3122600499888648  1.0000
  N   N11       1.0  0.29585083359319236  0.5623697096879283  0.4156487341187186  1.0000
  N   N12       1.0  0.7041496642679803  0.06236932059607619  0.4156490444489691  1.0000
  N   N13       1.0  0.417850539822247  0.5973072656239395  0.5066763434807271  1.0000
  N   N14       1.0  0.5821499919950738  0.09730690481589478  0.5066766285210207  1.0000
  N   N15       1.0  0.5567607725142026  0.6561271732831883  0.46448673663527257  1.0000
  N   N16       1.0  0.44323970121843803  0.1561268446794131  0.46448699288011847  1.0000
  N   N17       1.0  0.7110895284625443  0.9499974253411451  0.9833639741434935  1.0000
  N   N18       1.0  0.28891241053273836  0.44999713251601026  0.9833641983968632  1.0000
  N   N19       1.0  0.685029976583216  0.8141514156635876  0.9772622129037243  1.0000
  N   N20       1.0  0.31497071032600127  0.31415218560822905  0.9772628189045491  1.0000
  N   N21       1.0  0.6758120391759802  0.7282593034462078  0.853295075889612  1.0000
  N   N22       1.0  0.3241886231178412  0.22825900244266253  0.8532953074557098  1.0000
  N   N23       1.0  0.6942836240656122  0.8064728636277322  0.7753312412471371  1.0000
  N   N24       1.0  0.3057182732750903  0.30647363571755176  0.7753318453298519  1.0000
  N   N25       1.0  0.9319419572264991  0.8607170032539313  0.5640732871764483  1.0000
  N   N26       1.0  0.0680571345604122  0.36071676163047056  0.5640734656478585  1.0000
  N   N27       1.0  0.0269924140375153  0.8169623362917304  0.4484340847751226  1.0000
  N   N28       1.0  0.9730079594331328  0.3169618893485193  0.4484335275497386  1.0000
  N   N29       1.0  0.12915683812605747  0.9203631892872364  0.44913504872952353  1.0000
  N   N30       1.0  0.8708421522089863  0.42036383932007476  0.44913392338265357  1.0000
  N   N31       1.0  0.1031823450479408  0.034153587437849395  0.5642126532889407  1.0000
  N   N32       1.0  0.8968156059981992  0.5341527683935537  0.564212091190555  1.0000
