data_image0
_chemical_formula_structural       Dy2CoH28C40N12O20
_chemical_formula_sum              "Dy2 Co1 H28 C40 N12 O20"
_cell_length_a       9.187613465414422
_cell_length_b       10.366841677284711
_cell_length_c       12.421021047821533
_cell_angle_alpha    90.6969995183561
_cell_angle_beta     95.98107273738209
_cell_angle_gamma    114.228979715871

_space_group_name_H-M_alt    "P 1"
_space_group_IT_number       1

loop_
  _space_group_symop_operation_xyz
  'x, y, z'

loop_
  _atom_site_type_symbol
  _atom_site_label
  _atom_site_symmetry_multiplicity
  _atom_site_fract_x
  _atom_site_fract_y
  _atom_site_fract_z
  _atom_site_occupancy
  Dy  Dy1       1.0  0.27772749623709103  0.0494012288640775  0.022595253807786302  1.0000
  Dy  Dy2       1.0  0.7222742910274251  0.9505990953092296  0.9774066845916565  1.0000
  Co  Co1       1.0  0.500000779309609  0.5000023037352153  0.4999985845848656  1.0000
  H   H1        1.0  0.1922595807234799  0.9215995422097619  0.36376604362158105  1.0000
  H   H2        1.0  0.807735629476234  0.07841244030497313  0.6362348310992232  1.0000
  H   H3        1.0  0.03721505472402249  0.7222010633526639  0.8367801215011142  1.0000
  H   H4        1.0  0.9627834254776035  0.2777992971339885  0.1632175552778179  1.0000
  H   H5        1.0  0.7306339023710963  0.41110977450996705  0.3717231679831769  1.0000
  H   H6        1.0  0.26936608776787824  0.5888937347333681  0.6282778946314593  1.0000
  H   H7        1.0  0.45254127562364505  0.1798558655323177  0.6527675427290874  1.0000
  H   H8        1.0  0.5474627194483405  0.8201444293699254  0.3472377736337862  1.0000
  H   H9        1.0  0.3843443547121766  0.41897410884079295  0.7360489398869632  1.0000
  H   H10       1.0  0.6156579158476206  0.5810156513614262  0.26394962041895553  1.0000
  H   H11       1.0  0.007224736057701051  0.8170786267131975  0.6720579041632391  1.0000
  H   H12       1.0  0.9927846317976404  0.18291214335196324  0.327946818255576  1.0000
  H   H13       1.0  0.8128175629081583  0.2628538070413884  0.8347288432026687  1.0000
  H   H14       1.0  0.18718140046321735  0.7371476359349035  0.1652664724481312  1.0000
  H   H15       1.0  0.05600127472431647  0.6094796652331597  0.3859772442656393  1.0000
  H   H16       1.0  0.9439980993290007  0.3905249335420892  0.6140205735637778  1.0000
  H   H17       1.0  0.3173588677326012  0.4889844500520441  0.940176473520637  1.0000
  H   H18       1.0  0.6826391200026337  0.5110148431314698  0.059821953737184706  1.0000
  H   H19       1.0  0.601631312139496  0.3951880392940339  0.8973102372977451  1.0000
  H   H20       1.0  0.39837293293415854  0.6048059825274877  0.1026861264172538  1.0000
  H   H21       1.0  0.32584043337401175  0.18450347875793235  0.2434312650544115  1.0000
  H   H22       1.0  0.6741547815995406  0.8154968497028323  0.7565693980256116  1.0000
  H   H23       1.0  0.29752138297561714  0.27773841731699633  0.1514842921443389  1.0000
  H   H24       1.0  0.7024738273496286  0.7222619187370186  0.8485155656110664  1.0000
  H   H25       1.0  0.46703122333155306  0.9321523372500381  0.17046858224252762  1.0000
  H   H26       1.0  0.5329672801116347  0.06784798527036878  0.8295331211595142  1.0000
  H   H27       1.0  0.4092114886621091  0.024620384935133202  0.24712214683139422  1.0000
  H   H28       1.0  0.5907902939540862  0.9753799468314244  0.752878986243431  1.0000
  C   C1        1.0  0.4453735350460094  0.17692289190720356  0.43837324679927286  1.0000
  C   C2        1.0  0.5546291460701981  0.8230816705547  0.5616288326506549  1.0000
  C   C3        1.0  0.2064776405225857  0.941845836868346  0.45148254477003047  1.0000
  C   C4        1.0  0.7935216563945887  0.05816084280948531  0.5485193310415042  1.0000
  C   C5        1.0  0.34101447493109316  0.7530185721103281  0.9288614898793028  1.0000
  C   C6        1.0  0.658988589102684  0.24697754524930107  0.07113724283610173  1.0000
  C   C7        1.0  0.04695160471790433  0.62161958062746  0.8483610760831298  1.0000
  C   C8        1.0  0.953051263208778  0.3783807668765605  0.15163852467491523  1.0000
  C   C9        1.0  0.7918883283736878  0.5192917039080457  0.40565845488327323  1.0000
  C   C10       1.0  0.20810947255107248  0.48071180423335147  0.5943424510664316  1.0000
  C   C11       1.0  0.35101999728829014  0.08683747356938203  0.6146938915197069  1.0000
  C   C12       1.0  0.6489817853279122  0.9131628581971755  0.38530724155511115  1.0000
  C   C13       1.0  0.09218842832483898  0.8545151509539437  0.5148430479425699  1.0000
  C   C14       1.0  0.9078137510283499  0.14548835939132232  0.4851581713369981  1.0000
  C   C15       1.0  0.33504797770884653  0.06191112286239081  0.5022360558827046  1.0000
  C   C16       1.0  0.6649505164377135  0.9380892148445175  0.49776403687010173  1.0000
  C   C17       1.0  0.5116124927183564  0.44795790379086503  0.7366216280745235  1.0000
  C   C18       1.0  0.4883867132432655  0.5520392331085519  0.26338087277986943  1.0000
  C   C19       1.0  0.10187671488597544  0.8836057873626405  0.6257410534169878  1.0000
  C   C20       1.0  0.8981269745300937  0.11638922527858143  0.3742625347328854  1.0000
  C   C21       1.0  0.2476806561882867  0.028016263910437496  0.795786336036997  1.0000
  C   C22       1.0  0.7523230285794754  0.9719787563240275  0.2042164467882515  1.0000
  C   C23       1.0  0.06603734204728813  0.3632227924259654  0.8931983303551334  1.0000
  C   C24       1.0  0.933962323842515  0.636775464929336  0.10679778274801072  1.0000
  C   C25       1.0  0.07640103577732305  0.22978209673275535  0.9312200618597828  1.0000
  C   C26       1.0  0.9235926553139325  0.7702151057510706  0.06877479941066873  1.0000
  C   C27       1.0  0.9195552467669049  0.3630221184723368  0.8490295140373406  1.0000
  C   C28       1.0  0.08044382163049602  0.6369771980418906  0.15096657557907633  1.0000
  C   C29       1.0  0.9135636616083291  0.49203257759545954  0.8246800733899847  1.0000
  C   C30       1.0  0.08643701245582495  0.5079677763998731  0.17531856537850393  1.0000
  C   C31       1.0  0.9499615742368877  0.6157196442880633  0.41197928687476093  1.0000
  C   C32       1.0  0.05003840195714562  0.3842838877350161  0.5880193597660011  1.0000
  C   C33       1.0  0.20303754077666994  0.49066583260535895  0.9088553754692087  1.0000
  C   C34       1.0  0.7969592519737461  0.5093355788959999  0.0911430048151516  1.0000
  C   C35       1.0  0.23483982829399264  0.9994980076058583  0.6764585060770757  1.0000
  C   C36       1.0  0.7651619589705236  0.0005023165674487007  0.3235434323223743  1.0000
  C   C37       1.0  0.19377175300378016  0.620012303917818  0.8909361939146622  1.0000
  C   C38       1.0  0.8062278264532665  0.3799880495265455  0.10906236652136408  1.0000
  C   C39       1.0  0.6189296849229821  0.437270448567709  0.8179598796317152  1.0000
  C   C40       1.0  0.3810782639505563  0.5627267155191832  0.1820408319085374  1.0000
  N   N1        1.0  0.7622852858568907  0.4879929136380384  0.7765062536312258  1.0000
  N   N2        1.0  0.23771806523954106  0.5120085163556142  0.22349098599868714  1.0000
  N   N3        1.0  0.5934660260050536  0.5016200457272078  0.6499524089376935  1.0000
  N   N4        1.0  0.4065345709229647  0.4983823891707005  0.35005028781291975  1.0000
  N   N5        1.0  0.9558562744714865  0.731804205731038  0.4685537401472928  1.0000
  N   N6        1.0  0.04414331428218088  0.2681961325268319  0.5314464309379758  1.0000
  N   N7        1.0  0.8108234749837068  0.7113486191828217  0.49639803997862947  1.0000
  N   N8        1.0  0.18917870436948195  0.2886548911624446  0.5036031793009386  1.0000
  N   N9        1.0  0.7469046890530394  0.526468027590056  0.6740118493808893  1.0000
  N   N10       1.0  0.2530956792296735  0.47353869060497533  0.3259860781399979  1.0000
  N   N11       1.0  0.7125418052341957  0.5824649167701139  0.4588015376872505  1.0000
  N   N12       1.0  0.28745818490478575  0.41753859247322117  0.5411995249273858  1.0000
  O   O1        1.0  0.4764952412855267  0.7465189925597926  0.9319431436057286  1.0000
  O   O2        1.0  0.5235010543501916  0.2534813592316781  0.06805518183288942  1.0000
  O   O3        1.0  0.3231558234012654  0.861410686019454  0.9607363366175363  1.0000
  O   O4        1.0  0.6768486827303664  0.1385906458129398  0.039271450564946506  1.0000
  O   O5        1.0  0.530048549321613  0.2943577502708977  0.4899307897913587  1.0000
  O   O6        1.0  0.46995423217229887  0.7056446933221922  0.5100712582995683  1.0000
  O   O7        1.0  0.21510297190056354  0.2387721497004236  0.9672937049212751  1.0000
  O   O8        1.0  0.7848989064450295  0.7612260707905634  0.03270659146991759  1.0000
  O   O9        1.0  0.12563928309727174  0.9671333847980111  0.8449722547651604  1.0000
  O   O10       1.0  0.8743573276165081  0.032860587607267205  0.15502839257030845  1.0000
  O   O11       1.0  0.4445544030461832  0.1529900394519927  0.33706413124492235  1.0000
  O   O12       1.0  0.5554448845743709  0.8470166554123325  0.6629361339173699  1.0000
  O   O13       1.0  0.3840478338705395  0.11225307019139309  0.8475692669863691  1.0000
  O   O14       1.0  0.6159514771171005  0.8877419402459594  0.15243400783364086  1.0000
  O   O15       1.0  0.25186040338353893  0.18260847582351405  0.17751645295964383  1.0000
  O   O16       1.0  0.7481365947706138  0.8173886903469738  0.8224826699313182  1.0000
  O   O17       1.0  0.37937629020386515  0.9641226314652795  0.1779532828754142  1.0000
  O   O18       1.0  0.6206238049611345  0.03587875131598389  0.8220485537048391  1.0000
  O   O19       1.0  0.9478668723595265  0.11851569433913066  0.9277496476229032  1.0000
  O   O20       1.0  0.05213379240799307  0.8814846748427031  0.07224738049633568  1.0000
