data_image0
_chemical_formula_structural       Cu2H28C24N2O8
_chemical_formula_sum              "Cu2 H28 C24 N2 O8"
_cell_length_a       7.58605884592534
_cell_length_b       7.972167069774495
_cell_length_c       11.898485705474357
_cell_angle_alpha    86.59748847321276
_cell_angle_beta     85.93955393120054
_cell_angle_gamma    81.96577027277002

_space_group_name_H-M_alt    "P 1"
_space_group_IT_number       1

loop_
  _space_group_symop_operation_xyz
  'x, y, z'

loop_
  _atom_site_type_symbol
  _atom_site_label
  _atom_site_symmetry_multiplicity
  _atom_site_fract_x
  _atom_site_fract_y
  _atom_site_fract_z
  _atom_site_occupancy
  Cu  Cu1       1.0  0.6160829235681006  0.5175887167954443  0.9160485885100303  1.0000
  Cu  Cu2       1.0  0.3839216104569446  0.4824107648191927  0.08395430257293411  1.0000
  H   H1        1.0  0.47521150678602453  0.983818178076845  0.8729488797038488  1.0000
  H   H2        1.0  0.524775451936904  0.016201252112232105  0.12702259210804107  1.0000
  H   H3        1.0  0.37145869989908686  0.1068424140258628  0.762916334301629  1.0000
  H   H4        1.0  0.6285188538030296  0.8931943786655268  0.23707203831375523  1.0000
  H   H5        1.0  0.1816332151379214  0.013200751028833202  0.9909551015240087  1.0000
  H   H6        1.0  0.8183608189161333  0.9868219763552943  0.009033461180386778  1.0000
  H   H7        1.0  0.07592167605913154  0.12980786867337457  0.8787054563653032  1.0000
  H   H8        1.0  0.9240704875727771  0.8701984644009356  0.12128121837581322  1.0000
  H   H9        1.0  0.17173186471308816  0.8730005074951634  0.7563929266287988  1.0000
  H   H10       1.0  0.828278758095486  0.12700928992488514  0.24360082974772015  1.0000
  H   H11       1.0  0.014095591019881233  0.8410845937791078  0.8717209820203424  1.0000
  H   H12       1.0  0.9859230493422686  0.15891381412464506  0.1282700764407139  1.0000
  H   H13       1.0  0.010364459359550411  0.40191571241154384  0.8838902649742554  1.0000
  H   H14       1.0  0.9896578679837659  0.5980833711192233  0.11612239535139685  1.0000
  H   H15       1.0  0.27078295446914075  0.43195348297693675  0.7477053717895503  1.0000
  H   H16       1.0  0.7292238945127565  0.568049697621305  0.2523006149400332  1.0000
  H   H17       1.0  0.9106336422897243  0.7432221914345118  0.5315536342388897  1.0000
  H   H18       1.0  0.08935041813723643  0.2567646199187195  0.46845605205200525  1.0000
  H   H19       1.0  0.6638849018875207  0.6984198248508661  0.677365720572972  1.0000
  H   H20       1.0  0.3361089115360656  0.30156550398218224  0.3226492542699405  1.0000
  H   H21       1.0  0.22118621629947197  0.6512616788393827  0.4612776485210334  1.0000
  H   H22       1.0  0.778801531609574  0.348721678893547  0.5387176042032282  1.0000
  H   H23       1.0  0.3157515815656352  0.7404669057352039  0.5706216144574158  1.0000
  H   H24       1.0  0.6842434181721587  0.25953276809492826  0.4293768548930503  1.0000
  H   H25       1.0  0.37947150219273607  0.3609816274019693  0.5259853671048875  1.0000
  H   H26       1.0  0.6205313561573365  0.6390126656881276  0.4740228428115076  1.0000
  H   H27       1.0  0.4818504577303813  0.4598776903085948  0.6275399148071658  1.0000
  H   H28       1.0  0.5181439696095751  0.5401180768172082  0.37246291940846993  1.0000
  C   C1        1.0  0.40849865967349075  0.24303175203120017  0.9066238190438373  1.0000
  C   C2        1.0  0.5915036775275482  0.7569728992866872  0.09337569190982015  1.0000
  C   C3        1.0  0.3642600484278732  0.08485018574524618  0.8552004580066072  1.0000
  C   C4        1.0  0.6357353913429763  0.9151647555360043  0.14479498287275314  1.0000
  C   C5        1.0  0.1859050881179982  0.02965280107700609  0.8985629984238063  1.0000
  C   C6        1.0  0.8140872501073206  0.9703701118904816  0.10141894239774984  1.0000
  C   C7        1.0  0.2781422526063935  0.7172817100183264  0.8959935120993382  1.0000
  C   C8        1.0  0.7218654413289585  0.28271395012536266  0.10400928925783864  1.0000
  C   C9        1.0  0.1515166150286618  0.8644423616180602  0.8486989754209662  1.0000
  C   C10       1.0  0.8485028930550129  0.135560999783749  0.15129607627383024  1.0000
  C   C11       1.0  0.9935291904904633  0.4735837615362045  0.8035534436127423  1.0000
  C   C12       1.0  0.006487676927711998  0.5264166240998024  0.19645953711730618  1.0000
  C   C13       1.0  0.1381269378516663  0.490831818733831  0.7271469480874021  1.0000
  C   C14       1.0  0.8618716079663713  0.5091471880838443  0.27286622900420815  1.0000
  C   C15       1.0  0.11364031323972061  0.5907982942072536  0.6273598634589208  1.0000
  C   C16       1.0  0.8863447323315299  0.40918093027934077  0.3726491533464157  1.0000
  C   C17       1.0  0.9389958664804183  0.6656383139594555  0.6085455328280464  1.0000
  C   C18       1.0  0.06099208138754619  0.3343496958329624  0.3914655410839601  1.0000
  C   C19       1.0  0.8010940706817351  0.6408525129733746  0.688761473343334  1.0000
  C   C20       1.0  0.19889725059415753  0.3591369387691898  0.3112417632713545  1.0000
  C   C21       1.0  0.2686164519274783  0.6230991416801429  0.5466315978348322  1.0000
  C   C22       1.0  0.7313684781252336  0.37688906218011187  0.4533729413430693  1.0000
  C   C23       1.0  0.4265160136039158  0.48092089522238973  0.5440433919548228  1.0000
  C   C24       1.0  0.5734930191641823  0.5190723750636721  0.45595350823211345  1.0000
  N   N1        1.0  0.8267985390540815  0.5467533021842003  0.7852219680216665  1.0000
  N   N2        1.0  0.17322709029459563  0.45323833247250184  0.21478397811831237  1.0000
  O   O1        1.0  0.52592389404397  0.3202167755040577  0.8511544962150029  1.0000
  O   O2        1.0  0.474065997552927  0.6797929584313566  0.14884820220190426  1.0000
  O   O3        1.0  0.3277716566524305  0.28454274817533326  0.0003452802066234985  1.0000
  O   O4        1.0  0.6722459155283573  0.7154501834181983  0.9996619992641843  1.0000
  O   O5        1.0  0.2274942785694449  0.6494751192094482  0.990187986313089  1.0000
  O   O6        1.0  0.7725043749579542  0.3505258637466681  0.009807677513748588  1.0000
  O   O7        1.0  0.42821090310594917  0.679279397459318  0.8415462052508431  1.0000
  O   O8        1.0  0.5718036467579424  0.32074169097938215  0.15845030333142066  1.0000
