data_image0
_chemical_formula_structural       Zn2H24C44N6O12
_chemical_formula_sum              "Zn2 H24 C44 N6 O12"
_cell_length_a       16.523189116596896
_cell_length_b       17.860188805887695
_cell_length_c       19.46245840959952
_cell_angle_alpha    90.3486355978065
_cell_angle_beta     89.99359445789474
_cell_angle_gamma    90.01333060118436

_space_group_name_H-M_alt    "P 1"
_space_group_IT_number       1

loop_
  _space_group_symop_operation_xyz
  'x, y, z'

loop_
  _atom_site_type_symbol
  _atom_site_label
  _atom_site_symmetry_multiplicity
  _atom_site_fract_x
  _atom_site_fract_y
  _atom_site_fract_z
  _atom_site_occupancy
  Zn  Zn1       1.0  0.41552096659298593  0.4999663525803444  0.5015443904420777  1.0000
  Zn  Zn2       1.0  0.5844853282000103  0.4999999297675402  0.5015385923153842  1.0000
  H   H1        1.0  0.3697721904373807  0.5023290603105012  0.28178153183846166  1.0000
  H   H2        1.0  0.6305313731963053  0.12215180976110675  0.47524992677715255  1.0000
  H   H3        1.0  0.3695429985657981  0.12203498564760916  0.4752351329148396  1.0000
  H   H4        1.0  0.6304934744792163  0.877438884047635  0.47534171432317845  1.0000
  H   H5        1.0  0.37034572685529105  0.7376670456429866  0.48875027428845624  1.0000
  H   H6        1.0  0.6296348010639079  0.26201954211988016  0.4881324391386386  1.0000
  H   H7        1.0  0.3703470673527037  0.26190965896463336  0.4881267727554074  1.0000
  H   H8        1.0  0.6296988256951367  0.7378022051912653  0.48879045663545617  1.0000
  H   H9        1.0  0.1353364563567609  0.4152300152706375  0.4202522798914075  1.0000
  H   H10       1.0  0.8658004404111213  0.5850723736021025  0.5799180652965106  1.0000
  H   H11       1.0  0.1342418957608302  0.585064693425622  0.5799476010952915  1.0000
  H   H12       1.0  0.6302329256773975  0.4978896213460685  0.720978712123667  1.0000
  H   H13       1.0  0.864642409380295  0.4152396733473581  0.42022602994882846  1.0000
  H   H14       1.0  0.28763068277536535  0.41905460043824416  0.42458198089227744  1.0000
  H   H15       1.0  0.7134977305159965  0.5813053436824233  0.577129502537872  1.0000
  H   H16       1.0  0.2865341419618019  0.5812936446566044  0.5771433836602781  1.0000
  H   H17       1.0  0.7123537822289095  0.41905373078333247  0.42457595343913096  1.0000
  H   H18       1.0  0.36959981887865473  0.5032904737344167  0.7211005210956357  1.0000
  H   H19       1.0  0.6303332472777046  0.4966651534469762  0.28171267681371853  1.0000
  H   H20       1.0  0.361008481931627  0.5037080515326834  0.10009741704213578  1.0000
  H   H21       1.0  0.6388828429440425  0.49640878474554756  0.9026968740048672  1.0000
  H   H22       1.0  0.3611056617285087  0.5046402147125093  0.9028381504078524  1.0000
  H   H23       1.0  0.6390144065678172  0.49524772519599486  0.09999378433354877  1.0000
  H   H24       1.0  0.36945002399075827  0.877305229995365  0.4753145296498074  1.0000
  C   C1        1.0  0.4999707916952901  0.35336034012478745  0.4962698290023226  1.0000
  C   C2        1.0  0.8339916445223068  0.5476128740682499  0.5448122347769839  1.0000
  C   C3        1.0  0.16603038725747146  0.5476010177427284  0.5448403468768959  1.0000
  C   C4        1.0  0.8333338450415086  0.4526974045154476  0.455673876341528  1.0000
  C   C5        1.0  0.2505845301075809  0.4545316635090587  0.4578339439526785  1.0000
  C   C6        1.0  0.7500409512517835  0.5457691825862837  0.5434940551559888  1.0000
  C   C7        1.0  0.2499825140142705  0.5457616387974369  0.543505559695049  1.0000
  C   C8        1.0  0.7494077342470363  0.4545440853617253  0.45781588564376086  1.0000
  C   C9        1.0  0.12248918470616131  0.5001018952754707  0.5000813097142041  1.0000
  C   C10       1.0  0.8775220117926638  0.500111258596732  0.5000533401651237  1.0000
  C   C11       1.0  0.0368955328669855  0.5000305891450767  0.49978326132477224  1.0000
  C   C12       1.0  0.5000380149008236  0.6465732867415712  0.4982180043177777  1.0000
  C   C13       1.0  0.9631204948526246  0.5000312782789039  0.4997666089022913  1.0000
  C   C14       1.0  0.5000248127549014  0.4990973843366363  0.36620064227898297  1.0000
  C   C15       1.0  0.4999536507137778  0.5009033091571524  0.636473994546776  1.0000
  C   C16       1.0  0.42650230307612  0.5008250039988554  0.25350615330594906  1.0000
  C   C17       1.0  0.5734652875444581  0.49937012651547275  0.749239617467097  1.0000
  C   C18       1.0  0.42639233202098853  0.5025055662477771  0.7493018352613772  1.0000
  C   C19       1.0  0.5735710103520547  0.49758716552775445  0.25347488811893015  1.0000
  C   C20       1.0  0.4254621729878922  0.5012162286446441  0.1819626823732889  1.0000
  C   C21       1.0  0.5745308393893112  0.4990057937430807  0.8207893543990108  1.0000
  C   C22       1.0  0.42539962404260484  0.5026751548087348  0.820857895890647  1.0000
  C   C23       1.0  0.5000219914305504  0.7299181974585666  0.4903213178581111  1.0000
  C   C24       1.0  0.5745970000918846  0.4973761797645297  0.18193408116903234  1.0000
  C   C25       1.0  0.500032746606287  0.49944600566680464  0.14380210725727235  1.0000
  C   C26       1.0  0.4999778156322919  0.5007659609181874  0.8589596520751072  1.0000
  C   C27       1.0  0.5000353555981577  0.4991582374007565  0.2887356947657338  1.0000
  C   C28       1.0  0.4999255738302324  0.5009981738786636  0.7139698518057926  1.0000
  C   C29       1.0  0.5000023797572697  0.5004072399042485  0.9329675709313531  1.0000
  C   C30       1.0  0.5000202803640404  0.4997464613815767  0.06977700956728938  1.0000
  C   C31       1.0  0.42629756233506555  0.8465157199999072  0.47843081578797325  1.0000
  C   C32       1.0  0.5737037583785851  0.15305891691162543  0.47772434705758815  1.0000
  C   C33       1.0  0.4263387348658584  0.1529943148557464  0.4777271251842307  1.0000
  C   C34       1.0  0.4999893932729691  0.2698982969854313  0.48869060550700977  1.0000
  C   C35       1.0  0.5736674272482672  0.8465792330978773  0.47844241979012725  1.0000
  C   C36       1.0  0.42669736639094685  0.7692536467633816  0.48603157245079825  1.0000
  C   C37       1.0  0.57330320171193  0.23045679099111988  0.4848925678583098  1.0000
  C   C38       1.0  0.42669650669326137  0.2303945113216059  0.4848916923608753  1.0000
  C   C39       1.0  0.5733197969037249  0.7693176383413843  0.48604683980504837  1.0000
  C   C40       1.0  0.4999736835235638  0.8865340799288149  0.4750367658533321  1.0000
  C   C41       1.0  0.5000331524444661  0.11299286673671825  0.4744237756454054  1.0000
  C   C42       1.0  0.49996681935871146  0.9655222256424383  0.47054391382081207  1.0000
  C   C43       1.0  0.5000364685917447  0.03390777859320341  0.47037055961119006  1.0000
  C   C44       1.0  0.1666574479508611  0.452678988721118  0.455704934823224  1.0000
  N   N1        1.0  0.5718315851571276  0.497249121842252  0.03479541866862949  1.0000
  N   N2        1.0  0.4281898516368727  0.5027903871721123  0.9679631134811896  1.0000
  N   N3        1.0  0.5718213512723126  0.4975800342017181  0.967882497383307  1.0000
  N   N4        1.0  0.42819040248435425  0.5024622710648501  0.034875018641074  1.0000
  N   N5        1.0  0.2913276484224099  0.5000930342971587  0.5009349660320481  1.0000
  N   N6        1.0  0.7086798962903273  0.5001058230169165  0.5009193539748152  1.0000
  O   O1        1.0  0.4312957509907776  0.38578974096670765  0.4991020109734165  1.0000
  O   O2        1.0  0.6476862491210156  0.4969952269544963  0.8517781667194199  1.0000
  O   O3        1.0  0.35225260121339375  0.5046114389596638  0.8519140064427614  1.0000
  O   O4        1.0  0.6477827372512621  0.4952737129278261  0.15092820123949474  1.0000
  O   O5        1.0  0.5687142070098048  0.6141760184841091  0.5010733149288953  1.0000
  O   O6        1.0  0.4313684390834496  0.6141326117417806  0.5010018295395113  1.0000
  O   O7        1.0  0.5686542301598012  0.38583450763992744  0.4990208986750984  1.0000
  O   O8        1.0  0.4313670395500679  0.499111752408787  0.39579290001977796  1.0000
  O   O9        1.0  0.5686319904028778  0.5007926199650471  0.6068726331883808  1.0000
  O   O10       1.0  0.4313080242410052  0.5008826072995449  0.606864339134276  1.0000
  O   O11       1.0  0.5686855698786601  0.49912029844003314  0.395796431920921  1.0000
  O   O12       1.0  0.3522613733930983  0.5032403469686815  0.15103044480525796  1.0000
