data_image0
_chemical_formula_structural       K4Na2H10C12O14
_chemical_formula_sum              "K4 Na2 H10 C12 O14"
_cell_length_a       5.528288626136389
_cell_length_b       7.599241234424594
_cell_length_c       11.331169705491162
_cell_angle_alpha    82.57897017024028
_cell_angle_beta     88.85722683432127
_cell_angle_gamma    83.88681547635493

_space_group_name_H-M_alt    "P 1"
_space_group_IT_number       1

loop_
  _space_group_symop_operation_xyz
  'x, y, z'

loop_
  _atom_site_type_symbol
  _atom_site_label
  _atom_site_symmetry_multiplicity
  _atom_site_fract_x
  _atom_site_fract_y
  _atom_site_fract_z
  _atom_site_occupancy
  K   K1        1.0  0.7614149200696757  0.5358003744109965  0.864625613571896  1.0000
  K   K2        1.0  0.2385826637421502  0.46420605342733273  0.1353581067210428  1.0000
  K   K3        1.0  0.2552776944682407  0.6398752370333156  0.41326049382340113  1.0000
  K   K4        1.0  0.7447010877238184  0.36012301973223526  0.5867417163431699  1.0000
  Na  Na1       1.0  0.7427964288434479  0.8677418931141503  0.5977987546872898  1.0000
  Na  Na2       1.0  0.2572082019217632  0.1322656676694649  0.40220069416551507  1.0000
  H   H1        1.0  0.2703447506297465  0.6931057732100924  0.8786947895930697  1.0000
  H   H2        1.0  0.7296490659922341  0.3068884397589358  0.12130849356935164  1.0000
  H   H3        1.0  0.005665946632262833  0.8150036496863675  0.8129376846815505  1.0000
  H   H4        1.0  0.9943371525570156  0.18497594271961762  0.18706052538767895  1.0000
  H   H5        1.0  0.2554129143015373  0.9866903804281081  0.96544347121057  1.0000
  H   H6        1.0  0.7445803449759012  0.0133078148773649  0.03456125794073021  1.0000
  H   H7        1.0  0.036095260135923  0.1083351257155485  0.8662119830478971  1.0000
  H   H8        1.0  0.9639114089683787  0.891657684912701  0.13379482582588761  1.0000
  H   H9        1.0  0.6383366990913971  0.021717520489644895  0.8118486398597755  1.0000
  H   H10       1.0  0.3616585569634765  0.978279378044533  0.18815264624901573  1.0000
  C   C1        1.0  0.23033810148660894  0.6667811517073831  0.6932327293543921  1.0000
  C   C2        1.0  0.7696739528080557  0.3332250284900624  0.3067694110147486  1.0000
  C   C3        1.0  0.19932582929415332  0.777156904751486  0.797931461809313  1.0000
  C   C4        1.0  0.8006724896962325  0.22284398919840237  0.20206947070113307  1.0000
  C   C5        1.0  0.32545922736918703  0.9487002386967375  0.7820420920895544  1.0000
  C   C6        1.0  0.674548325657497  0.051299291549987906  0.21795974874964946  1.0000
  C   C7        1.0  0.23139132556050157  0.0674464409121143  0.8774805754535396  1.0000
  C   C8        1.0  0.7686073634034187  0.9325517533255052  0.12252322110484931  1.0000
  C   C9        1.0  0.3656259434970224  0.2325936147410488  0.8814003147354939  1.0000
  C   C10       1.0  0.634367319081683  0.7674046736548304  0.11859646387008382  1.0000
  C   C11       1.0  0.2605114812030465  0.0530119796049888  0.6573607081058059  1.0000
  C   C12       1.0  0.7394873473345029  0.9469982095550976  0.34264299304975054  1.0000
  O   O1        1.0  0.03938758274443187  0.6136467308357185  0.653481664041955  1.0000
  O   O2        1.0  0.9606199243188983  0.38636612867453823  0.34651997446139415  1.0000
  O   O3        1.0  0.4428768189549571  0.6360740124950864  0.6506149253198573  1.0000
  O   O4        1.0  0.5571354223439116  0.36393087473480534  0.3493837884064136  1.0000
  O   O5        1.0  0.2509977565374655  0.368182627357811  0.9186437597218816  1.0000
  O   O6        1.0  0.749005438829748  0.6318223616378231  0.08134796885087071  1.0000
  O   O7        1.0  0.5910902003255316  0.22290984285300647  0.8503140507878371  1.0000
  O   O8        1.0  0.40890324485568635  0.7770870284547797  0.1496899019025122  1.0000
  O   O9        1.0  0.03949265139110739  0.0645610903522353  0.6259584856245441  1.0000
  O   O10       1.0  0.9605052928572491  0.9354423688460047  0.3740510669595737  1.0000
  O   O11       1.0  0.4285348514603698  0.11975857906575982  0.5945499495195676  1.0000
  O   O12       1.0  0.5714605934327395  0.8802370782177605  0.4054434929765165  1.0000
  O   O13       1.0  0.5831841873834378  0.9045948211620287  0.7953940880788793  1.0000
  O   O14       1.0  0.4168201175375544  0.09540205835342871  0.20460711603167434  1.0000
