data_image0
_chemical_formula_structural       Cu2H36C38N4O8
_chemical_formula_sum              "Cu2 H36 C38 N4 O8"
_cell_length_a       9.660574936012184
_cell_length_b       10.174622102548694
_cell_length_c       10.900823054111617
_cell_angle_alpha    113.48366002587176
_cell_angle_beta     116.87489923768365
_cell_angle_gamma    91.41128607736468

_space_group_name_H-M_alt    "P 1"
_space_group_IT_number       1

loop_
  _space_group_symop_operation_xyz
  'x, y, z'

loop_
  _atom_site_type_symbol
  _atom_site_label
  _atom_site_symmetry_multiplicity
  _atom_site_fract_x
  _atom_site_fract_y
  _atom_site_fract_z
  _atom_site_occupancy
  Cu  Cu1       1.0  0.5676841914246893  0.5608968266265038  0.7053280756901257  1.0000
  Cu  Cu2       1.0  0.43231713604880906  0.43910706935975724  0.29468041050575516  1.0000
  H   H1        1.0  0.66776236116025  0.8781936838211737  0.9755882803510258  1.0000
  H   H2        1.0  0.3322490938815648  0.12181330936950022  0.02440978997658047  1.0000
  H   H3        1.0  0.5875972363267794  0.9929987217119778  0.17632641340298963  1.0000
  H   H4        1.0  0.41240222565723883  0.0070194011764713  0.8236672550352961  1.0000
  H   H5        1.0  0.3805704884851551  0.8389056858086337  0.17735659648396046  1.0000
  H   H6        1.0  0.6194198148242551  0.16110460307584162  0.8226177067946165  1.0000
  H   H7        1.0  0.19284453417840552  0.5872985766937193  0.053749119470808196  1.0000
  H   H8        1.0  0.8071466410594895  0.41272307052272345  0.9462562831936975  1.0000
  H   H9        1.0  0.0847808635542293  0.32677541731538184  0.8533807457896782  1.0000
  H   H10       1.0  0.9152264995717018  0.673241801289656  0.1466405213150776  1.0000
  H   H11       1.0  0.09039551549685143  0.11518167796801045  0.6282556918963492  1.0000
  H   H12       1.0  0.9095965563305839  0.8848223081316535  0.3717518787459039  1.0000
  H   H13       1.0  0.2003052170188866  0.03484835846558811  0.44614694566698165  1.0000
  H   H14       1.0  0.7996860290873046  0.965173469175426  0.5538759817218731  1.0000
  H   H15       1.0  0.39480402879208043  0.22294717474054696  0.46991334916410893  1.0000
  H   H16       1.0  0.6051755211946456  0.7770492853455268  0.5301011459550647  1.0000
  H   H17       1.0  0.9499216678199643  0.930399932747392  0.8186390313349104  1.0000
  H   H18       1.0  0.050122846224105906  0.06959241664300464  0.18136599379105425  1.0000
  H   H19       1.0  0.10035321867954389  0.8908747647132885  0.9609094337628573  1.0000
  H   H20       1.0  0.8996616853973763  0.10909456337697784  0.039081770571868964  1.0000
  H   H21       1.0  0.048445716827139114  0.6356995563284827  0.7535045965799508  1.0000
  H   H22       1.0  0.9515541137219684  0.36426983391879036  0.24647693408915908  1.0000
  H   H23       1.0  0.8978896452057656  0.6743433368747703  0.6138919054250348  1.0000
  H   H24       1.0  0.10209990782013281  0.32563499213991787  0.3860887790689843  1.0000
  H   H25       1.0  0.25398174092845244  0.8379006910741896  0.8137244544566257  1.0000
  H   H26       1.0  0.7460134323001455  0.16208533362146232  0.18625853419982244  1.0000
  H   H27       1.0  0.10616804448269336  0.8906849602838851  0.6860949105168712  1.0000
  H   H28       1.0  0.8938189800002477  0.10929676907871064  0.31389150865275167  1.0000
  H   H29       1.0  0.044989436909240524  0.6412442715932801  0.46310282284796495  1.0000
  H   H30       1.0  0.9550173750480867  0.3587460633100578  0.5368818056917204  1.0000
  H   H31       1.0  0.20026778160725917  0.5948361889558529  0.591160283614087  1.0000
  H   H32       1.0  0.7997372447118567  0.4051519116544002  0.408820063181679  1.0000
  H   H33       1.0  0.24465026847719426  0.8629233444884862  0.5366744143957474  1.0000
  H   H34       1.0  0.7553659057704679  0.13708383629821705  0.4633467113795431  1.0000
  H   H35       1.0  0.39994448819394535  0.8097531242095998  0.6617890360783247  1.0000
  H   H36       1.0  0.6000538915569535  0.1902485356907135  0.33821378569280103  1.0000
  C   C1        1.0  0.5780218162921714  0.8150853347671546  0.9789598851715122  1.0000
  C   C2        1.0  0.42197944031301665  0.18491838079453524  0.021031076300019432  1.0000
  C   C3        1.0  0.5315701352040352  0.8777771033095693  0.09056260707659897  1.0000
  C   C4        1.0  0.4684421925247193  0.12222883240004025  0.9094409305237785  1.0000
  C   C5        1.0  0.41777725879956057  0.7932463035597692  0.09128396825677483  1.0000
  C   C6        1.0  0.5822301274642924  0.20675855620842046  0.9087172008582908  1.0000
  C   C7        1.0  0.3501937063345721  0.6430427587450326  0.9793331145453478  1.0000
  C   C8        1.0  0.6498218145199817  0.3569621135732179  0.020677733335546074  1.0000
  C   C9        1.0  0.2319330089721063  0.5448344133547992  0.9688717366586913  1.0000
  C   C10       1.0  0.7680621134860602  0.45518056431739506  0.031133726928551597  1.0000
  C   C11       1.0  0.17289895347343534  0.3999950647685325  0.8577935221069949  1.0000
  C   C12       1.0  0.827094776416786  0.600023248572214  0.14221260235930086  1.0000
  C   C13       1.0  0.22908120887533565  0.34190226106420607  0.7504552814570643  1.0000
  C   C14       1.0  0.7709202222709807  0.6581061456097715  0.24956223195371746  1.0000
  C   C15       1.0  0.17752975433629103  0.19282168047087825  0.6358868083869208  1.0000
  C   C16       1.0  0.8224600746157266  0.8071867557545789  0.3641214899850879  1.0000
  C   C17       1.0  0.2379561556642074  0.14861296998848425  0.5365054708106668  1.0000
  C   C18       1.0  0.7620325045082837  0.8513912006531827  0.46351639886735524  1.0000
  C   C19       1.0  0.35036281433828254  0.25251985829063983  0.5504733000748273  1.0000
  C   C20       1.0  0.6496320761942372  0.7474775419361706  0.44954124999454564  1.0000
  C   C21       1.0  0.34467611581969493  0.43738085450115005  0.7574782391409582  1.0000
  C   C22       1.0  0.6553172172703514  0.5626318793819325  0.24252202034845982  1.0000
  C   C23       1.0  0.405148823666309  0.5888371282345023  0.8722159063756718  1.0000
  C   C24       1.0  0.5948444169406457  0.4111711234489591  0.12777809296057532  1.0000
  C   C25       1.0  0.8627760212047307  0.7707766025970176  0.8682918511722445  1.0000
  C   C26       1.0  0.13723090561514786  0.2292182714821181  0.13170457164408586  1.0000
  C   C27       1.0  0.9875536689730995  0.8412796909061913  0.849176377155231  1.0000
  C   C28       1.0  0.012452446361550107  0.15869973197858664  0.15082050263242755  1.0000
  C   C29       1.0  0.012567068289783389  0.7254874145524683  0.7236578746372685  1.0000
  C   C30       1.0  0.9874190656213601  0.27449108001216177  0.27633526418468785  1.0000
  C   C31       1.0  0.13850564117350223  0.7939281618308984  0.7042528068645877  1.0000
  C   C32       1.0  0.861484924746577  0.20605796014962152  0.29573479696157523  1.0000
  C   C33       1.0  0.16070711806596452  0.6888691543168833  0.5722319172602892  1.0000
  C   C34       1.0  0.8392973294582547  0.3111168277455151  0.42775659871934824  1.0000
  C   C35       1.0  0.28226275072023554  0.768197680745523  0.554954456371803  1.0000
  C   C36       1.0  0.7177425567780488  0.23180387595962781  0.4450455932373669  1.0000
  C   C37       1.0  0.30607436596555004  0.6691224064638278  0.42215354074801315  1.0000
  C   C38       1.0  0.6939635708492348  0.33089217223894013  0.5778578866883277  1.0000
  N   N1        1.0  0.5155208224089165  0.6740001576418566  0.8719254142848025  1.0000
  N   N2        1.0  0.4844682457472587  0.3260014499314111  0.12806265662400307  1.0000
  N   N3        1.0  0.4029918693529951  0.3928944998937781  0.6589616826805978  1.0000
  N   N4        1.0  0.5970042839652764  0.6070949875045529  0.34103672281743486  1.0000
  O   O1        1.0  0.7161307728421633  0.7316759074900788  0.7521793969092128  1.0000
  O   O2        1.0  0.2838673010685042  0.2683413157640899  0.24783265345669742  1.0000
  O   O3        1.0  0.9030566762292908  0.7502163816221882  0.9836105527317326  1.0000
  O   O4        1.0  0.0969278525152077  0.24977307835145282  0.016373103604053103  1.0000
  O   O5        1.0  0.26440214878362406  0.6903225536220887  0.30691663030169963  1.0000
  O   O6        1.0  0.7355937911775002  0.3096869793297189  0.6930972639442812  1.0000
  O   O7        1.0  0.3749018419876577  0.5658473842928373  0.445281475656813  1.0000
  O   O8        1.0  0.6250862841426399  0.4341466107391768  0.5547172006441982  1.0000
