data_image0
_chemical_formula_structural       Zn2H28C20N4O8
_chemical_formula_sum              "Zn2 H28 C20 N4 O8"
_cell_length_a       6.063202974107273
_cell_length_b       9.540568249741355
_cell_length_c       10.882189019180124
_cell_angle_alpha    88.0697997844894
_cell_angle_beta     90.000539421993
_cell_angle_gamma    90.00264997139443

_space_group_name_H-M_alt    "P 1"
_space_group_IT_number       1

loop_
  _space_group_symop_operation_xyz
  'x, y, z'

loop_
  _atom_site_type_symbol
  _atom_site_label
  _atom_site_symmetry_multiplicity
  _atom_site_fract_x
  _atom_site_fract_y
  _atom_site_fract_z
  _atom_site_occupancy
  Zn  Zn1       1.0  0.07952843258694033  0.0884571749003058  0.8141605557906999  1.0000
  Zn  Zn2       1.0  0.5795267017874934  0.9115330509868756  0.18581996621799848  1.0000
  H   H1        1.0  0.7346654523135996  0.0446912774853487  0.5167071044333227  1.0000
  H   H2        1.0  0.23469926820865084  0.9553367004183148  0.483272564888054  1.0000
  H   H3        1.0  0.7895537824272625  0.382385225766008  0.4816761351082234  1.0000
  H   H4        1.0  0.28955656797480606  0.6176561502112677  0.5183422652448397  1.0000
  H   H5        1.0  0.9443701125125372  0.5026700918213862  0.5639265387505574  1.0000
  H   H6        1.0  0.4443587720247706  0.49736446291957054  0.4361097626384236  1.0000
  H   H7        1.0  0.4926759859163711  0.4021653979280231  0.6220396524345018  1.0000
  H   H8        1.0  0.9926767450660634  0.5978406072577088  0.37798648188785927  1.0000
  H   H9        1.0  0.6422169528276314  0.5340720538975675  0.6956701648556843  1.0000
  H   H10       1.0  0.142212517593407  0.4659228906154381  0.3043744028432939  1.0000
  H   H11       1.0  0.5619892571662959  0.24295622141558226  0.7880423256793917  1.0000
  H   H12       1.0  0.06199036026656301  0.7570269259294307  0.21196968777125139  1.0000
  H   H13       1.0  0.7322979374027695  0.3662894511549339  0.8605514384210196  1.0000
  H   H14       1.0  0.2322838362968938  0.6336807902260517  0.13946376175449865  1.0000
  H   H15       1.0  0.42745337341443  0.8301188830242765  0.7421953270387717  1.0000
  H   H16       1.0  0.927469937695747  0.16988328495423843  0.25776783277044046  1.0000
  H   H17       1.0  0.8862329305236258  0.6030286367488672  0.8313890576490832  1.0000
  H   H18       1.0  0.38621417715629053  0.3969350724815542  0.16863214659665  1.0000
  H   H19       1.0  0.0157528025604279  0.6016938194975127  0.9767317760026941  1.0000
  H   H20       1.0  0.5157097073460407  0.39830152909749483  0.023279372420759597  1.0000
  H   H21       1.0  0.25914642176123687  0.5518635101568139  0.7594169266781275  1.0000
  H   H22       1.0  0.7591363401501212  0.4481316586147059  0.24058352267403646  1.0000
  H   H23       1.0  0.37857557481656573  0.6347777778471199  0.8869399211719438  1.0000
  H   H24       1.0  0.878561138952307  0.36523799526156614  0.1130418317539963  1.0000
  H   H25       1.0  0.1352797585085455  0.9205992281926785  0.4559407934477661  1.0000
  H   H26       1.0  0.6352461609992731  0.07942679042044892  0.5440295122818026  1.0000
  H   H27       1.0  0.2009713966223359  0.7802527260248413  0.6510991822634933  1.0000
  H   H28       1.0  0.7010048495746374  0.21972815967757955  0.348887567924848  1.0000
  C   C1        1.0  0.18292968157759054  0.22405108114013222  0.5830622763321003  1.0000
  C   C2        1.0  0.6829319896536886  0.7759696858594296  0.4169252975216863  1.0000
  C   C3        1.0  0.9718175157916065  0.2893779613777454  0.6318888318121549  1.0000
  C   C4        1.0  0.4718179872947132  0.7106329542345193  0.36810916012827016  1.0000
  C   C5        1.0  0.8426703747062094  0.40777247544730233  0.574880648423587  1.0000
  C   C6        1.0  0.3426643606846653  0.5922495086493599  0.42514651528510666  1.0000
  C   C7        1.0  0.6500699932871897  0.4256777805601289  0.6658458552415141  1.0000
  C   C8        1.0  0.1500739436089162  0.5743165538760451  0.33419822344672667  1.0000
  C   C9        1.0  0.6967994978018056  0.31817067838128577  0.7721197704030941  1.0000
  C   C10       1.0  0.1967950432116155  0.6818123128221175  0.2278957223987419  1.0000
  C   C11       1.0  0.8268789838945738  0.8849333462289193  0.9641280653693938  1.0000
  C   C12       1.0  0.326886623550017  0.11504489323235845  0.03585906683691319  1.0000
  C   C13       1.0  0.984709925400118  0.8056687610591243  0.8849884724667089  1.0000
  C   C14       1.0  0.48470403103979715  0.19431681892469752  0.11500339182468619  1.0000
  C   C15       1.0  0.020815594108981407  0.650482818738631  0.8840811172083889  1.0000
  C   C16       1.0  0.5207933676574684  0.3495055778882161  0.11592608976918937  1.0000
  C   C17       1.0  0.24558182763568945  0.6423027962035163  0.8182374836258787  1.0000
  C   C18       1.0  0.7455799542482638  0.35769714416832704  0.18175366931417608  1.0000
  C   C19       1.0  0.2615214415493199  0.7842624676828437  0.7462957837542986  1.0000
  C   C20       1.0  0.7615327236851713  0.21572706360185384  0.25368617534500965  1.0000
  N   N1        1.0  0.8947841338488943  0.2424106471902334  0.7353715241076628  1.0000
  N   N2        1.0  0.3947908821679747  0.7575835457951782  0.2646259237786239  1.0000
  N   N3        1.0  0.11157265156882798  0.8769404464694972  0.8120009540373586  1.0000
  N   N4        1.0  0.6115839161614217  0.1230462473731677  0.18798033901600059  1.0000
  O   O1        1.0  0.2740018321159141  0.13369444094252717  0.6577647689365804  1.0000
  O   O2        1.0  0.7740127389464178  0.8663291023201225  0.3422244134921541  1.0000
  O   O3        1.0  0.2501843320329584  0.26432871813045017  0.4793507958042793  1.0000
  O   O4        1.0  0.7502019473612763  0.7357123942610571  0.5206388269024202  1.0000
  O   O5        1.0  0.8030842632206757  0.013886099964501892  0.9403707420765741  1.0000
  O   O6        1.0  0.3030909852077954  0.986086878254064  0.05960873437197018  1.0000
  O   O7        1.0  0.7374715271749892  0.8122633473646702  0.0517561259872892  1.0000
  O   O8        1.0  0.23749914171099823  0.18771637721713574  0.9482301781057599  1.0000
