data_image0
_chemical_formula_structural       Na4H24C28S4N4O20
_chemical_formula_sum              "Na4 H24 C28 S4 N4 O20"
_cell_length_a       6.950095101003787
_cell_length_b       10.802643419010504
_cell_length_c       12.025319155011967
_cell_angle_alpha    89.9998616941934
_cell_angle_beta     90.00008548221416
_cell_angle_gamma    90.00008094324826

_space_group_name_H-M_alt    "P 1"
_space_group_IT_number       1

loop_
  _space_group_symop_operation_xyz
  'x, y, z'

loop_
  _atom_site_type_symbol
  _atom_site_label
  _atom_site_symmetry_multiplicity
  _atom_site_fract_x
  _atom_site_fract_y
  _atom_site_fract_z
  _atom_site_occupancy
  Na  Na1       1.0  0.25000123582492517  0.9028671682046221  0.6323291250639329  1.0000
  Na  Na2       1.0  0.7500006237926513  0.5971308652073757  0.1323304728655046  1.0000
  Na  Na3       1.0  0.24999955332625493  0.40286793619684147  0.8676697831789753  1.0000
  Na  Na4       1.0  0.7499989412940308  0.09713070749912589  0.3676719625603083  1.0000
  H   H1        1.0  0.1390039154849987  0.9068886544259767  0.40935702725933254  1.0000
  H   H2        1.0  0.6390031223752287  0.5931150128201566  0.9093601172076191  1.0000
  H   H3        1.0  0.13900440895735502  0.40688831486155397  0.0906433676389682  1.0000
  H   H4        1.0  0.6390050546697027  0.0931100447618789  0.5906447944353842  1.0000
  H   H5        1.0  0.8609948228067807  0.09311014697534863  0.5906448919420342  1.0000
  H   H6        1.0  0.3609956159247218  0.4068884170745689  0.09064429672501009  1.0000
  H   H7        1.0  0.8609957681687208  0.5931141893367169  0.909359383137776  1.0000
  H   H8        1.0  0.3609951224502553  0.906888756641223  0.4093562931878552  1.0000
  H   H9        1.0  0.25000056509496466  0.1044559006551538  0.7857487885162442  1.0000
  H   H10       1.0  0.7500049161740421  0.39554388870784857  0.2857511518969176  1.0000
  H   H11       1.0  0.24999669977404446  0.6044558383974987  0.714248272568426  1.0000
  H   H12       1.0  0.7499996120238848  0.8955438264495325  0.2142506359484742  1.0000
  H   H13       1.0  0.2499994289052978  0.16446133206964927  0.9733803339214191  1.0000
  H   H14       1.0  0.7499993334708108  0.3355388791852931  0.47338116435922467  1.0000
  H   H15       1.0  0.2499994048166982  0.6644608479209637  0.5266165969473349  1.0000
  H   H16       1.0  0.7500007482156618  0.835538395032806  0.0266207537008185  1.0000
  H   H17       1.0  0.2499983433588113  0.10301726645250403  0.16879302330017507  1.0000
  H   H18       1.0  0.7499982086931568  0.39698098554470806  0.668794622248228  1.0000
  H   H19       1.0  0.2500005295954111  0.603018741560433  0.3312039706370911  1.0000
  H   H20       1.0  0.7500003949328615  0.8969833863497526  0.8312072327416614  1.0000
  H   H21       1.0  0.24999925063335135  0.8771619725937896  0.2229096659087091  1.0000
  H   H22       1.0  0.7499999607603273  0.6228376689993523  0.7229110281949858  1.0000
  H   H23       1.0  0.2500002163584298  0.37716390950626516  0.2770867331102025  1.0000
  H   H24       1.0  0.749999487661434  0.1228396059055825  0.7770922532896448  1.0000
  C   C1        1.0  0.25000423154602197  0.7381830879985783  0.8664370196259839  1.0000
  C   C2        1.0  0.750001098706278  0.7618161682149492  0.3664380100461813  1.0000
  C   C3        1.0  0.24999907841046823  0.2381835588919685  0.6335597512610106  1.0000
  C   C4        1.0  0.7500002620626346  0.26181663910585934  0.1335640679981509  1.0000
  C   C5        1.0  0.2500030052422701  0.851836656734065  0.9370188067787026  1.0000
  C   C6        1.0  0.750001064958525  0.6481633356610246  0.4370192122581074  1.0000
  C   C7        1.0  0.24999767332793976  0.35183639144634776  0.5629777174696926  1.0000
  C   C8        1.0  0.7500000495371071  0.14816399607018127  0.0629814492650311  1.0000
  C   C9        1.0  0.25000166528767664  0.9779789702335152  0.907177466080249  1.0000
  C   C10       1.0  0.7500023293280266  0.5220201765871976  0.4071789768803882  1.0000
  C   C11       1.0  0.2499964089626516  0.47797955051571245  0.5928212791624503  1.0000
  C   C12       1.0  0.7499999506615183  0.0220198311702475  0.0928236215436229  1.0000
  C   C13       1.0  0.2499993482534819  0.0662723746535718  0.9936967411635109  1.0000
  C   C14       1.0  0.7499994655820927  0.43372685634996333  0.4936981901025633  1.0000
  C   C15       1.0  0.24999927270337002  0.5662719450580552  0.5062987396262457  1.0000
  C   C16       1.0  0.749999390038198  0.9337282781486846  0.006303514878332799  1.0000
  C   C17       1.0  0.24999962377744112  0.03136359383478289  0.1050101785232727  1.0000
  C   C18       1.0  0.7499967667210541  0.46863668082242077  0.6050124535519217  1.0000
  C   C19       1.0  0.25000053273938516  0.531362120580475  0.3949878024912934  1.0000
  C   C20       1.0  0.7500005533435185  0.9686361332676722  0.894990909098965  1.0000
  C   C21       1.0  0.24999917218793397  0.9060651997783891  0.1362424961066964  1.0000
  C   C22       1.0  0.7499983808562689  0.5939346745224938  0.6362439211146124  1.0000
  C   C23       1.0  0.2500003574312473  0.4060650525837559  0.3637538401919542  1.0000
  C   C24       1.0  0.7499995661007334  0.09393267592581367  0.863757759938153  1.0000
  C   C25       1.0  0.250001849084903  0.8212545920723283  0.0502748074281669  1.0000
  C   C26       1.0  0.7499983638709864  0.6787464387586936  0.5502768799659208  1.0000
  C   C27       1.0  0.2500003744175316  0.32125421404691673  0.4497208813396369  1.0000
  C   C28       1.0  0.7499997668642352  0.1787451350319031  0.9497254486159434  1.0000
  S   S1        1.0  0.250001681661253  0.6578603151791781  0.057858151436939  1.0000
  S   S2        1.0  0.7499999893272573  0.8421388438946094  0.5578582062400415  1.0000
  S   S3        1.0  0.250000187788487  0.1578599575129545  0.4421395550681524  1.0000
  S   S4        1.0  0.7499999342889438  0.34213941192393793  0.942142936185931  1.0000
  N   N1        1.0  0.2500041897239953  0.6306398867364252  0.9254160283393205  1.0000
  N   N2        1.0  0.7499998510873666  0.8693601368137182  0.42541595380119895  1.0000
  N   N3        1.0  0.250000326027319  0.13063866459496154  0.5745809759282352  1.0000
  N   N4        1.0  0.7500003038846615  0.36935984036801267  0.0745850592848072  1.0000
  O   O1        1.0  0.0756141551615315  0.6105050882761843  0.11045797757236639  1.0000
  O   O2        1.0  0.5756125654420857  0.8894946946701122  0.6104587611885961  1.0000
  O   O3        1.0  0.0756110892276354  0.11050579754581953  0.3895380153424385  1.0000
  O   O4        1.0  0.5756123771688096  0.38949447823836886  0.8895412936972206  1.0000
  O   O5        1.0  0.924387460786555  0.3894946388291628  0.8895414468929773  1.0000
  O   O6        1.0  0.42438617284332747  0.11050503243837542  0.3895373369604442  1.0000
  O   O7        1.0  0.9243876490598809  0.8894939295604372  0.6104597459641212  1.0000
  O   O8        1.0  0.4243877999552623  0.6105061745612018  0.1104614570815343  1.0000
  O   O9        1.0  0.2500026605958396  0.7392542634353275  0.7611973999807233  1.0000
  O   O10       1.0  0.7499995254353493  0.76074434965345  0.2611992243049315  1.0000
  O   O11       1.0  0.2499992128532256  0.23925537745169112  0.7387993685803877  1.0000
  O   O12       1.0  0.7499989553532985  0.26074546366890416  0.23880285606337986  1.0000
  O   O13       1.0  0.2500004807952863  0.010474255487729098  0.7995855294897966  1.0000
  O   O14       1.0  0.7500107908375924  0.48952642242587535  0.2995868573449272  1.0000
  O   O15       1.0  0.2499893862802125  0.5104733046799267  0.7004117355410243  1.0000
  O   O16       1.0  0.7499996963246218  0.9895254716158419  0.2004147265536815  1.0000
  O   O17       1.0  0.24999949230717533  0.8567713133816496  0.43118025180972813  1.0000
  O   O18       1.0  0.7500002466280621  0.6432277689767074  0.9311898856347157  1.0000
  O   O19       1.0  0.2499999305044867  0.35677195811346246  0.0688203493538921  1.0000
  O   O20       1.0  0.7499992459835525  0.1432274880207913  0.5688208358128789  1.0000
