data_image0
_chemical_formula_structural       Ag16H32C24S8Br8N24
_chemical_formula_sum              "Ag16 H32 C24 S8 Br8 N24"
_cell_length_a       7.683154593004045
_cell_length_b       10.076143145005164
_cell_length_c       19.062434530000512
_cell_angle_alpha    90.0000021633568
_cell_angle_beta     89.99997138760718
_cell_angle_gamma    90.0001147485355

_space_group_name_H-M_alt    "P 1"
_space_group_IT_number       1

loop_
  _space_group_symop_operation_xyz
  'x, y, z'

loop_
  _atom_site_type_symbol
  _atom_site_label
  _atom_site_symmetry_multiplicity
  _atom_site_fract_x
  _atom_site_fract_y
  _atom_site_fract_z
  _atom_site_occupancy
  Ag  Ag1       1.0  0.9205393791942668  0.9285395404281185  0.7080841751229487  1.0000
  Ag  Ag2       1.0  0.07945628418016071  0.5714617801656131  0.20808464471085136  1.0000
  Ag  Ag3       1.0  0.42054174605065947  0.07146122760244819  0.79191506824062  1.0000
  Ag  Ag4       1.0  0.5794590014271747  0.42853942021297087  0.2919154347826733  1.0000
  Ag  Ag5       1.0  0.07945947700424229  0.07145995511211108  0.29191548630551983  1.0000
  Ag  Ag6       1.0  0.9205399689232506  0.4285397002591296  0.7919155413098766  1.0000
  Ag  Ag7       1.0  0.5794571101504928  0.9285402528242342  0.20808459318785574  1.0000
  Ag  Ag8       1.0  0.42053985477175354  0.5714610677705493  0.7080858004216923  1.0000
  Ag  Ag9       1.0  0.6032366080219517  0.30302615323311943  0.6768835731205557  1.0000
  Ag  Ag10      1.0  0.3967616679901197  0.19697349179411106  0.1768839758192442  1.0000
  Ag  Ag11      1.0  0.10323799707565229  0.696973143131103  0.8231162635807723  1.0000
  Ag  Ag12      1.0  0.8967653439532269  0.8030252104819193  0.3231170841118215  1.0000
  Ag  Ag13      1.0  0.3967635497249731  0.6969733423081191  0.3231166128997317  1.0000
  Ag  Ag14      1.0  0.6032358866606912  0.8030269961883791  0.8231162102013345  1.0000
  Ag  Ag15      1.0  0.8967621606721748  0.30302635241005754  0.17688234866361804  1.0000
  Ag  Ag16      1.0  0.10323741689011709  0.19697329261803986  0.6768825773162137  1.0000
  H   H1        1.0  0.7585377612230673  0.5093016182916869  0.525769071608245  1.0000
  H   H2        1.0  0.24146071387416868  0.9906977010247143  0.025767938523223708  1.0000
  H   H3        1.0  0.25853973115309253  0.4906979126244122  0.974232829813886  1.0000
  H   H4        1.0  0.741462109247891  0.009305728914625897  0.4742321058711526  1.0000
  H   H5        1.0  0.2414597934248093  0.49069688480437884  0.47423163900428744  1.0000
  H   H6        1.0  0.758540745424412  0.009303779403928996  0.9742317229049747  1.0000
  H   H7        1.0  0.7414617281429656  0.5093025753611042  0.025768929982163506  1.0000
  H   H8        1.0  0.25853935004936796  0.9906947590707913  0.5257675555570387  1.0000
  H   H9        1.0  0.9316999938595173  0.7077050421381799  0.4850271438978668  1.0000
  H   H10       1.0  0.06829925724544948  0.7922933260299984  0.9850273815301311  1.0000
  H   H11       1.0  0.4317006609351708  0.2922937129029107  0.014973383871947002  1.0000
  H   H12       1.0  0.5682991019033921  0.2077059175671962  0.5149729873327402  1.0000
  H   H13       1.0  0.06829886233767721  0.2922934609588238  0.5149725175305947  1.0000
  H   H14       1.0  0.9316995989504304  0.20770418462377904  0.014972279898323402  1.0000
  H   H15       1.0  0.5682994968114627  0.7077057826383494  0.9850273267403086  1.0000
  H   H16       1.0  0.4317036589396536  0.7922925855327847  0.4850271986872628  1.0000
  H   H17       1.0  0.13489186655679217  0.7244777253622059  0.5291863328224979  1.0000
  H   H18       1.0  0.865106604629183  0.7755215942615192  0.02918663521324311  1.0000
  H   H19       1.0  0.6348926712136985  0.27552161881053644  0.9708140216125473  1.0000
  H   H20       1.0  0.3651065699967475  0.22447805264624068  0.470813382392578  1.0000
  H   H21       1.0  0.8651069896417167  0.27552177017801677  0.4708133286059706  1.0000
  H   H22       1.0  0.1348935531174433  0.22447790127974085  0.9708140753990125  1.0000
  H   H23       1.0  0.36510748653292774  0.7244778767307235  0.02918668899970811  1.0000
  H   H24       1.0  0.6348935877507812  0.7755214428949483  0.5291857544437804  1.0000
  H   H25       1.0  0.9571180582341796  0.8275961758237426  0.5544002327515046  1.0000
  H   H26       1.0  0.04288168564730199  0.6724031460680988  0.05440123634922862  1.0000
  H   H27       1.0  0.45711791417473085  0.17240365500651217  0.9455995272792921  1.0000
  H   H28       1.0  0.5428826574402804  0.3275979990705692  0.44559937566057795  1.0000
  H   H29       1.0  0.04288079796463509  0.1724033197164658  0.4455989040849958  1.0000
  H   H30       1.0  0.9571184721006457  0.32759734191638756  0.9455994742630411  1.0000
  H   H31       1.0  0.5428822435735156  0.827596832977953  0.05440065874100952  1.0000
  H   H32       1.0  0.45712140495603387  0.6724034813600139  0.5543997611753755  1.0000
  C   C1        1.0  0.9860915042153023  0.6226497291535792  0.6555777559181808  1.0000
  C   C2        1.0  0.013905520790743297  0.8773505942768193  0.15557824423339645  1.0000
  C   C3        1.0  0.4860920201550911  0.3773511378790386  0.8444230470191912  1.0000
  C   C4        1.0  0.5139086672373238  0.12264951465756009  0.3444223740540339  1.0000
  C   C5        1.0  0.013907351982190598  0.377348773943396  0.3444213809183126  1.0000
  C   C6        1.0  0.9860933354090874  0.12264989370663668  0.8444214171950722  1.0000
  C   C7        1.0  0.5139068360438372  0.6226493501044883  0.15557818818517433  1.0000
  C   C8        1.0  0.4860927920586207  0.8773499808846307  0.6555772873741504  1.0000
  C   C9        1.0  0.8226038900236003  0.5279992992727995  0.5755837932717045  1.0000
  C   C10       1.0  0.1773958296166711  0.9719990320804471  0.0755831983822404  1.0000
  C   C11       1.0  0.322604565760237  0.4720013208446259  0.9244180942702374  1.0000
  C   C12       1.0  0.6773986331911955  0.028000331329856493  0.4244168598920199  1.0000
  C   C13       1.0  0.17739626771967204  0.4719972189387318  0.4244158681566006  1.0000
  C   C14       1.0  0.8226017250331238  0.02800046345879539  0.9244164630463634  1.0000
  C   C15       1.0  0.6773955919884287  0.5280001595831292  0.07558366552596142  1.0000
  C   C16       1.0  0.3226028261041448  0.9719991642123911  0.5755838507200935  1.0000
  C   C17       1.0  0.9934493677599149  0.728118655742463  0.535650786636005  1.0000
  C   C18       1.0  0.006549096029857499  0.7718816569057478  0.0356512749849358  1.0000
  C   C19       1.0  0.4934494663994187  0.27188122995917746  0.9643494901153179  1.0000
  C   C20       1.0  0.5065497822098735  0.22811943335956633  0.464348820304622  1.0000
  C   C21       1.0  0.0065494884385942  0.27188083979776667  0.4643488747924638  1.0000
  C   C22       1.0  0.9934510617183889  0.22811883107871006  0.9643489110353588  1.0000
  C   C23       1.0  0.5065493897998151  0.7281192580243283  0.03565122049708691  1.0000
  C   C24       1.0  0.4934529786350906  0.7718800621835836  0.5356503165314594  1.0000
  S   S1        1.0  0.1273714355242674  0.7333461997546208  0.6940398834974959  1.0000
  S   S2        1.0  0.8726281485672941  0.7666551195792903  0.19404070871954815  1.0000
  S   S3        1.0  0.6273711037310434  0.26665511794561064  0.8059604725670371  1.0000
  S   S4        1.0  0.37262832612780966  0.23334652357486618  0.3059593072566643  1.0000
  S   S5        1.0  0.8726287222235669  0.2666532957865471  0.3059587287469015  1.0000
  S   S6        1.0  0.12737200918448366  0.23334735329154904  0.8059579035248634  1.0000
  S   S7        1.0  0.3726290540179206  0.7333463624821235  0.19404076263719364  1.0000
  S   S8        1.0  0.6273731331684401  0.7666529719673035  0.694039829579552  1.0000
  Br  Br1       1.0  0.8125501486242825  0.10608984440228397  0.6086844950880776  1.0000
  Br  Br2       1.0  0.1874482054294404  0.3939097944928703  0.10868494604926583  1.0000
  Br  Br3       1.0  0.3125519825852976  0.8939097680885407  0.8913152962640754  1.0000
  Br  Br4       1.0  0.6874486773077421  0.6060905765410067  0.3913151100473443  1.0000
  Br  Br5       1.0  0.1874500091229478  0.8939096511389337  0.3913151663402489  1.0000
  Br  Br6       1.0  0.8125506507700916  0.6060906934906071  0.8913152399711708  1.0000
  Br  Br7       1.0  0.6874481751632472  0.10609071989590285  0.1086843651642582  1.0000
  Br  Br8       1.0  0.3125514804405043  0.3939099114434582  0.6086850759729502  1.0000
  N   N1        1.0  0.8006687675173793  0.46145497466105195  0.6343674724575763  1.0000
  N   N2        1.0  0.19933085869769224  0.038545658987501986  0.1343663418114716  1.0000
  N   N3        1.0  0.30066968722613296  0.5385466047711489  0.865633895244763  1.0000
  N   N4        1.0  0.6993336051531429  0.9614547299944785  0.3656342363024124  1.0000
  N   N5        1.0  0.19933139022955257  0.5385445208801795  0.365632713562711  1.0000
  N   N6        1.0  0.8006692990511511  0.9614548289969062  0.865632795024901  1.0000
  N   N7        1.0  0.6993304705228311  0.46145487565658516  0.13436733995947492  1.0000
  N   N8        1.0  0.30066915568787067  0.03854178821899979  0.6343649005336476  1.0000
  N   N9        1.0  0.903047337346706  0.5203019752712236  0.6847062576413665  1.0000
  N   N10       1.0  0.0969509558779151  0.9796993432223854  0.18470515570258075  1.0000
  N   N11       1.0  0.40304685684723296  0.4796997587822813  0.815295087880145  1.0000
  N   N12       1.0  0.5969538638779568  0.020301883578547095  0.3152949200005893  1.0000
  N   N13       1.0  0.0969528204002259  0.47969752027000817  0.3152939283789281  1.0000
  N   N14       1.0  0.9030479003248502  0.020303129647494696  0.815293981133941  1.0000
  N   N15       1.0  0.596951999353017  0.5203017216444721  0.18470614732422772  1.0000
  N   N16       1.0  0.40304629386633195  0.9796956270762391  0.684705266019684  1.0000
  N   N17       1.0  0.9379654869041187  0.628845512737982  0.5860032271422853  1.0000
  N   N18       1.0  0.0620329192649578  0.8711538119944178  0.0860037049388751  1.0000
  N   N19       1.0  0.4379672083231654  0.37115428916759186  0.9139975862217685  1.0000
  N   N20       1.0  0.5620333994546272  0.12884736206801506  0.4139974275137065  1.0000
  N   N21       1.0  0.06203206774435439  0.3711529903580342  0.4139964342863181  1.0000
  N   N22       1.0  0.9379672384856261  0.12884866087652108  0.9139970056734017  1.0000
  N   N23       1.0  0.5620342509731984  0.6288461988178964  0.08600364898232023  1.0000
  N   N24       1.0  0.43796936138769377  0.8711501485886894  0.5860017093223535  1.0000
