data_image0
_chemical_formula_structural       Zn4H20C28N6O14
_chemical_formula_sum              "Zn4 H20 C28 N6 O14"
_cell_length_a       8.041309877597772
_cell_length_b       8.54051090761928
_cell_length_c       12.218559044858416
_cell_angle_alpha    101.46479154304355
_cell_angle_beta     94.91279582562224
_cell_angle_gamma    95.28495867686607

_space_group_name_H-M_alt    "P 1"
_space_group_IT_number       1

loop_
  _space_group_symop_operation_xyz
  'x, y, z'

loop_
  _atom_site_type_symbol
  _atom_site_label
  _atom_site_symmetry_multiplicity
  _atom_site_fract_x
  _atom_site_fract_y
  _atom_site_fract_z
  _atom_site_occupancy
  Zn  Zn1       1.0  0.8175064452593901  0.9157835290460883  0.8965436531008567  1.0000
  Zn  Zn2       1.0  0.18247900002974402  0.0842045066022763  0.10346949527533414  1.0000
  Zn  Zn3       1.0  0.3641926000275646  0.5081752668297596  0.7821612065261124  1.0000
  Zn  Zn4       1.0  0.6357898840984648  0.4918202339762273  0.21783798941751806  1.0000
  H   H1        1.0  0.5740425471541502  0.7217013069387052  0.48620894616932747  1.0000
  H   H2        1.0  0.4259865907563665  0.27832202429621594  0.513799319343562  1.0000
  H   H3        1.0  0.825500474233806  0.3187864219011587  0.8373960286475824  1.0000
  H   H4        1.0  0.17447513791174174  0.6811980845232386  0.16260915904688747  1.0000
  H   H5        1.0  0.18256475746150608  0.9987374891521057  0.6747017730564551  1.0000
  H   H6        1.0  0.8174314170627142  0.0012606856545716004  0.3252875804174807  1.0000
  H   H7        1.0  0.5809464321337076  0.17718418617271683  0.006872088755521596  1.0000
  H   H8        1.0  0.4190453161296475  0.8228161624804144  0.993128648016395  1.0000
  H   H9        1.0  0.9811730332140983  0.34119409953598284  0.26086129546414594  1.0000
  H   H10       1.0  0.018812205315796877  0.6588073316786023  0.7391439207408441  1.0000
  H   H11       1.0  0.5587259542623856  0.6328940041819565  0.6481942901182622  1.0000
  H   H12       1.0  0.44127832534716305  0.3671099306868371  0.3518122027009128  1.0000
  H   H13       1.0  0.36932426713898536  0.5634222313833206  0.5885982842872794  1.0000
  H   H14       1.0  0.6306838484150037  0.4365913929449903  0.4114066704469083  1.0000
  H   H15       1.0  0.10312578545897817  0.2469207899946539  0.9057486286545784  1.0000
  H   H16       1.0  0.896844498321599  0.7530636177061465  0.09426015705661683  1.0000
  H   H17       1.0  0.4235509179158258  0.7964349449974861  0.32199948215014024  1.0000
  H   H18       1.0  0.5764734992563447  0.2035907681148004  0.6780086945689024  1.0000
  H   H19       1.0  0.0644940213338288  0.7374176422278751  0.5426472579269233  1.0000
  H   H20       1.0  0.9355115652471966  0.2625795527884236  0.45733297772289944  1.0000
  C   C1        1.0  0.5843967149581387  0.9577101829541235  0.5929667172405005  1.0000
  C   C2        1.0  0.41564757708684397  0.0423325608367975  0.4070391594687879  1.0000
  C   C3        1.0  0.5397707754736987  0.8432051792945998  0.4927591181636261  1.0000
  C   C4        1.0  0.460265180583832  0.15682210127359042  0.5072331234730073  1.0000
  C   C5        1.0  0.6744734369233357  0.910907826024598  0.6911262946123389  1.0000
  C   C6        1.0  0.3255439887624334  0.0890986607665596  0.3088768457547175  1.0000
  C   C7        1.0  0.8459105390265622  0.5419523675800874  0.9603684437463973  1.0000
  C   C8        1.0  0.1540658872341538  0.45803349359322715  0.03962881615131411  1.0000
  C   C9        1.0  0.9023139130370127  0.3977033305095149  0.908424918303368  1.0000
  C   C10       1.0  0.0976591637678013  0.6022908068240156  0.09157978100517991  1.0000
  C   C11       1.0  0.6821652892464558  0.5869310738222779  0.9166154427865792  1.0000
  C   C12       1.0  0.3178182157539737  0.41305238616641304  0.08338375753149313  1.0000
  C   C13       1.0  0.06326071392353332  0.14461263413656408  0.5736553399297437  1.0000
  C   C14       1.0  0.9367523451612172  0.855401550756554  0.4263206388474857  1.0000
  C   C15       1.0  0.1012711488855089  0.9973973128038696  0.5984169966619748  1.0000
  C   C16       1.0  0.898737928238198  0.002577023594781701  0.4015627357708028  1.0000
  C   C17       1.0  0.139760362087344  0.3006433553076562  0.6467794740478043  1.0000
  C   C18       1.0  0.8602516228309298  0.6993512859261061  0.35321081454435443  1.0000
  C   C19       1.0  0.7001191091576403  0.1865902891733384  0.05785591827362422  1.0000
  C   C20       1.0  0.29987203384688144  0.8134064072474062  0.942146698079256  1.0000
  C   C21       1.0  0.9041853660317187  0.2705804982158497  0.18704680585067732  1.0000
  C   C22       1.0  0.0958007840734751  0.7294185190431008  0.8129589667171546  1.0000
  C   C23       1.0  0.05613226180465599  0.3562810636096572  0.9479239259838794  1.0000
  C   C24       1.0  0.9438537934789084  0.6437082810082586  0.052083728352137405  1.0000
  C   C25       1.0  0.4559016775031921  0.8846641885669584  0.40027829371982904  1.0000
  C   C26       1.0  0.5441502181961867  0.11535083412798741  0.5997308553768266  1.0000
  C   C27       1.0  0.038419303471783885  0.8536671957623554  0.52519341486979  1.0000
  C   C28       1.0  0.9616006643874115  0.14633841493957084  0.47479261903698966  1.0000
  N   N1        1.0  0.8185682203383068  0.08965821599461782  0.03582891119962992  1.0000
  N   N2        1.0  0.18141685532971508  0.9103335273191391  0.9641789980257447  1.0000
  N   N3        1.0  0.94977077239669  0.14357922474584234  0.11867343620836125  1.0000
  N   N4        1.0  0.05021325561554589  0.8564149020039695  0.8813355391585563  1.0000
  N   N5        1.0  0.7484531608596329  0.3009830131992501  0.15188666529731173  1.0000
  N   N6        1.0  0.2515372699547456  0.6990184862193516  0.848116575395345  1.0000
  O   O1        1.0  0.46241407757957387  0.5427630706128782  0.63845173858595  1.0000
  O   O2        1.0  0.5375847691014997  0.4572480491311381  0.3615552897791547  1.0000
  O   O3        1.0  0.7166779243842217  0.020882454840588597  0.7809562458486285  1.0000
  O   O4        1.0  0.2833164495766027  0.9791080090931247  0.21905888515762242  1.0000
  O   O5        1.0  0.7070282412029344  0.7671723138400639  0.6865664589093471  1.0000
  O   O6        1.0  0.2929921595820346  0.23283194771911303  0.31342761735525937  1.0000
  O   O7        1.0  0.6603046794607438  0.7351412972377319  0.9241691978299756  1.0000
  O   O8        1.0  0.339666967492569  0.26484224402747003  0.07582155560767491  1.0000
  O   O9        1.0  0.5684526533899968  0.47205858175578896  0.8731036104615983  1.0000
  O   O10       1.0  0.4315273802808194  0.5279260940850037  0.12689380839409387  1.0000
  O   O11       1.0  0.24195365013240902  0.2916101821508407  0.7335915522445762  1.0000
  O   O12       1.0  0.7580524739379016  0.7083783801238823  0.26639978823386923  1.0000
  O   O13       1.0  0.11174135812337481  0.43234767363249205  0.6215116364254032  1.0000
  O   O14       1.0  0.8882806640592308  0.5676505426046107  0.3784841790918848  1.0000
