data_image0
_chemical_formula_structural       Co2H64C58N8O12
_chemical_formula_sum              "Co2 H64 C58 N8 O12"
_cell_length_a       8.130795343824305
_cell_length_b       12.475365584471286
_cell_length_c       14.068341379383762
_cell_angle_alpha    97.74613217880513
_cell_angle_beta     99.20156296213163
_cell_angle_gamma    95.88133526990276

_space_group_name_H-M_alt    "P 1"
_space_group_IT_number       1

loop_
  _space_group_symop_operation_xyz
  'x, y, z'

loop_
  _atom_site_type_symbol
  _atom_site_label
  _atom_site_symmetry_multiplicity
  _atom_site_fract_x
  _atom_site_fract_y
  _atom_site_fract_z
  _atom_site_occupancy
  Co  Co1       1.0  0.5952417542205239  0.3991204420628165  0.2761736828864869  1.0000
  Co  Co2       1.0  0.40475891101927886  0.6008782941492682  0.7238252671302732  1.0000
  H   H1        1.0  0.4828685680374606  0.016348456135631302  0.6080621651839307  1.0000
  H   H2        1.0  0.5171372812770869  0.9836575567532505  0.3919424729675213  1.0000
  H   H3        1.0  0.6299508739240524  0.09463824699224689  0.5566065404864416  1.0000
  H   H4        1.0  0.3700489095525938  0.9053686266440266  0.4433948099067493  1.0000
  H   H5        1.0  0.8720120389691246  0.5831103965928861  0.9961844321581949  1.0000
  H   H6        1.0  0.12798408277088666  0.4168842360889541  0.0038156994449493795  1.0000
  H   H7        1.0  0.8720292272812176  0.4756526488747356  0.06657916977244581  1.0000
  H   H8        1.0  0.127976419942577  0.5243460629643266  0.933421655753328  1.0000
  H   H9        1.0  0.15437221937195741  0.6659838420229179  0.0911820102295025  1.0000
  H   H10       1.0  0.8456241088539826  0.33401820022587697  0.9088141289793512  1.0000
  H   H11       1.0  0.9968359208421518  0.6527495599068444  0.16498911342108613  1.0000
  H   H12       1.0  0.0031622538052075437  0.34724919835694107  0.8350081892938944  1.0000
  H   H13       1.0  0.9946436519195603  0.2718228390990802  0.1426540401114806  1.0000
  H   H14       1.0  0.005349862030193618  0.7281775547739854  0.8573430480868467  1.0000
  H   H15       1.0  0.1668872144618021  0.18292179547925966  0.0334069400514849  1.0000
  H   H16       1.0  0.8331058155605717  0.8170761322134368  0.9665912043946462  1.0000
  H   H17       1.0  0.5442126482500171  0.14151530196179612  0.9403095919612879  1.0000
  H   H18       1.0  0.45577837390862186  0.8584850843673947  0.05968797757707728  1.0000
  H   H19       1.0  0.7155750541451981  0.05182511507329219  0.826166400458753  1.0000
  H   H20       1.0  0.28441596761387433  0.9481752613906947  0.17383187862687777  1.0000
  H   H21       1.0  0.24951863832848187  0.020214369714857093  0.92672894305516  1.0000
  H   H22       1.0  0.7504745507388364  0.9797843241351955  0.07327287007623076  1.0000
  H   H23       1.0  0.2687585066362246  0.1583259511581119  0.904898847126141  1.0000
  H   H24       1.0  0.7312345221874638  0.8416719469390088  0.09510142596180061  1.0000
  H   H25       1.0  0.4083475978400629  0.051259684109211896  0.7886400060497608  1.0000
  H   H26       1.0  0.5916530650023687  0.9487389929117072  0.21136320125062008  1.0000
  H   H27       1.0  0.22966585918937452  0.09922827585140939  0.7275810770862845  1.0000
  H   H28       1.0  0.7703315086459811  0.9007663655349631  0.27241845907320794  1.0000
  H   H29       1.0  0.2785832349807507  0.8656777697170099  0.7490873294689351  1.0000
  H   H30       1.0  0.7214192734839814  0.13431760358851363  0.2509184604321034  1.0000
  H   H31       1.0  0.07226225676755146  0.9043847717097647  0.7439200728056645  1.0000
  H   H32       1.0  0.9277368382935977  0.09561227550515382  0.2560827784932656  1.0000
  H   H33       1.0  0.9330776707172106  0.775936061167698  0.3194703801497738  1.0000
  H   H34       1.0  0.06693339937215369  0.22405855758626098  0.6805311206968057  1.0000
  H   H35       1.0  0.9138811758240167  0.5773388513403572  0.5444055594059805  1.0000
  H   H36       1.0  0.08612788640160571  0.4226582260500891  0.4555953665328261  1.0000
  H   H37       1.0  0.08104713582776664  0.7265947376699984  0.6672048848558632  1.0000
  H   H38       1.0  0.9189606819007637  0.2734023704766812  0.3327937983375194  1.0000
  H   H39       1.0  0.36390673946565505  0.18264393714807875  0.1985214096191328  1.0000
  H   H40       1.0  0.6360926752836279  0.8173546818423317  0.8014859408612409  1.0000
  H   H41       1.0  0.24531458900853662  0.0809030742091892  0.5084478114778221  1.0000
  H   H42       1.0  0.7546815733799194  0.919098034173942  0.4915567213493545  1.0000
  H   H43       1.0  0.3827959310564069  0.19073232359779269  0.5797755133041845  1.0000
  H   H44       1.0  0.6172030460077949  0.809270443026264  0.4202273609862459  1.0000
  H   H45       1.0  0.094033092005226  0.9300784708707749  0.44221973350045823  1.0000
  H   H46       1.0  0.9059722335326229  0.0699186198668329  0.5577801405802276  1.0000
  H   H47       1.0  0.2485014713481277  0.3775395253875971  0.3354289416940688  1.0000
  H   H48       1.0  0.7515076351219817  0.6224641164908958  0.6645699995433461  1.0000
  H   H49       1.0  0.6821160299694001  0.2920147989063223  0.5596825383553252  1.0000
  H   H50       1.0  0.3178826672559723  0.7079928519131613  0.4403216570722321  1.0000
  H   H51       1.0  0.5098234785598237  0.36901652282732295  0.5620480506224084  1.0000
  H   H52       1.0  0.49017132093501914  0.6309903258559969  0.43795497199810995  1.0000
  H   H53       1.0  0.6676130985440524  0.402654462014226  0.4927589220060399  1.0000
  H   H54       1.0  0.3323812198203413  0.59734998954508  0.5072401900313963  1.0000
  H   H55       1.0  0.9839321414316659  0.4798325083477407  0.25331706609006227  1.0000
  H   H56       1.0  0.016069329421462393  0.5201703151461672  0.746681779123996  1.0000
  H   H57       1.0  0.22683247731692546  0.053031266982372885  0.3216446411083211  1.0000
  H   H58       1.0  0.7731735334399372  0.9469755712550307  0.6783594084447699  1.0000
  H   H59       1.0  0.558921317899717  0.5400410212576859  0.1175859023452688  1.0000
  H   H60       1.0  0.441081078961048  0.45996022930007996  0.88240855779096  1.0000
  H   H61       1.0  0.4900872191417562  0.6679650961894479  0.14646868401413823  1.0000
  H   H62       1.0  0.5099179915956356  0.3320377928788574  0.8535255366798964  1.0000
  H   H63       1.0  0.38100013228157786  0.5768894100835096  0.04256932347315257  1.0000
  H   H64       1.0  0.6190027477074482  0.42311428692423897  0.9574254995098173  1.0000
  C   C1        1.0  0.5040530848638838  0.04750068240524999  0.5410615189875685  1.0000
  C   C2        1.0  0.4959490281624426  0.9525053536959974  0.4589413577584835  1.0000
  C   C3        1.0  0.9536551952954042  0.5320448601211112  0.035131469208557975  1.0000
  C   C4        1.0  0.0463447061781892  0.4679562941060311  0.9648698581931257  1.0000
  C   C5        1.0  0.07097204427935107  0.6073785910280308  0.11861169985112949  1.0000
  C   C6        1.0  0.9290281808779924  0.39262423362653454  0.881387031259308  1.0000
  C   C7        1.0  0.6503445386682715  0.26989903977043633  0.11011725927204445  1.0000
  C   C8        1.0  0.349653796222718  0.7301005142462884  0.8898815834863926  1.0000
  C   C9        1.0  0.7577768431887578  0.2133150021932764  0.04775738891004271  1.0000
  C   C10       1.0  0.24221526282378383  0.7866845477615382  0.9522415928775628  1.0000
  C   C11       1.0  0.9331037938622161  0.22288213889787292  0.07360657794478699  1.0000
  C   C12       1.0  0.06688722869597535  0.7771182572965002  0.9263902820463059  1.0000
  C   C13       1.0  0.030682042034932494  0.17292358342717049  0.011726085582410001  1.0000
  C   C14       1.0  0.9693099033344198  0.8270751609095087  0.9882720657090118  1.0000
  C   C15       1.0  0.6805613645863033  0.14957933188244243  0.9587675509717499  1.0000
  C   C16       1.0  0.31943198752157553  0.850420226776905  0.04123083537220403  1.0000
  C   C17       1.0  0.7750392514994999  0.10014343253416767  0.895908518049616  1.0000
  C   C18       1.0  0.2249539395656299  0.8998553106418539  0.10408974734542648  1.0000
  C   C19       1.0  0.9512799508003413  0.1133527297085379  0.9212295279938516  1.0000
  C   C20       1.0  0.04871573165634395  0.8866460111461691  0.07876896560843248  1.0000
  C   C21       1.0  0.2137407042852288  0.0742915473502492  0.873129850524833  1.0000
  C   C22       1.0  0.7862532493474177  0.9257047482151322  0.1268681661270961  1.0000
  C   C23       1.0  0.2703942157498603  0.041851873385248005  0.7767574598246866  1.0000
  C   C24       1.0  0.7296033127286848  0.9581435736192603  0.22324290683099693  1.0000
  C   C25       1.0  0.19782556864885234  0.9268179352146574  0.7271845495243524  1.0000
  C   C26       1.0  0.802177864624838  0.0731758355591339  0.2728189839406738  1.0000
  C   C27       1.0  0.4982045516215053  0.2618793279387148  0.42801425246263136  1.0000
  C   C28       1.0  0.5017931793473522  0.7381234299808026  0.5719892172714509  1.0000
  C   C29       1.0  0.8022030241313303  0.5816202230404813  0.3520857535799848  1.0000
  C   C30       1.0  0.1977998092158444  0.4183768502880553  0.6479153113879973  1.0000
  C   C31       1.0  0.9657961873373183  0.7669007366045263  0.3959517065531628  1.0000
  C   C32       1.0  0.034211628792966985  0.23309633208138078  0.6040498148292953  1.0000
  C   C33       1.0  0.9097014824758459  0.6683412806117843  0.42505056250005413  1.0000
  C   C34       1.0  0.09030524900141051  0.3316566047181056  0.5749509657277017  1.0000
  C   C35       1.0  0.953211670162098  0.6552563110826309  0.5228406377173228  1.0000
  C   C36       1.0  0.04679349393343557  0.3447399543064548  0.47715982496171694  1.0000
  C   C37       1.0  0.046220555607376874  0.739286341343238  0.5918678375798692  1.0000
  C   C38       1.0  0.9537849329710326  0.2607116142036716  0.4081286097133727  1.0000
  C   C39       1.0  0.09615772607833148  0.8387417193032505  0.562238405663301  1.0000
  C   C40       1.0  0.9038466750501185  0.16125698383127934  0.43776301530612466  1.0000
  C   C41       1.0  0.38583756494237065  0.1889418284166737  0.2773127410284815  1.0000
  C   C42       1.0  0.6141679702778974  0.8110627508094409  0.7226774642797551  1.0000
  C   C43       1.0  0.37273036920653624  0.12402529546818637  0.5189217878116139  1.0000
  C   C44       1.0  0.6272657935814722  0.8759758227801484  0.48108203546829725  1.0000
  C   C45       1.0  0.05685064748929847  0.851760355412317  0.4636807031024119  1.0000
  C   C46       1.0  0.9431532725087024  0.14823595059820596  0.5363168072839243  1.0000
  C   C47       1.0  0.3386982001625611  0.5308434189604723  0.17918629781166828  1.0000
  C   C48       1.0  0.6613006210531864  0.4691586604277801  0.8208072314153511  1.0000
  C   C49       1.0  0.24458788250080232  0.43307361770958863  0.2826126132216089  1.0000
  C   C50       1.0  0.7554170499960121  0.566934195014916  0.7173800904204697  1.0000
  C   C51       1.0  0.5944832251077089  0.33507082593352777  0.5155030232043386  1.0000
  C   C52       1.0  0.40551249799740663  0.6649343906224839  0.4844998716219705  1.0000
  C   C53       1.0  0.11399786911251647  0.48388526408624694  0.24439868900244474  1.0000
  C   C54       1.0  0.8860215238106478  0.5161199698780621  0.7556035356035621  1.0000
  C   C55       1.0  0.31849173828972976  0.12532890367080537  0.3371389797896782  1.0000
  C   C56       1.0  0.6814949711687177  0.874655812062336  0.6628689494665636  1.0000
  C   C57       1.0  0.44686631911072544  0.5815499237036191  0.11761355872722129  1.0000
  C   C58       1.0  0.5531364002351111  0.41845296768600077  0.8823804337595718  1.0000
  N   N1        1.0  0.3837964014484569  0.4624252186296473  0.24188368290687373  1.0000
  N   N2        1.0  0.6162094514621402  0.5375808830459831  0.7581145693191544  1.0000
  N   N3        1.0  0.39001486741607755  0.17186878687893173  0.4315376830941702  1.0000
  N   N4        1.0  0.6099845915776925  0.8281363965995254  0.5684676826848118  1.0000
  N   N5        1.0  0.17503223764468598  0.5457728794702986  0.18021387294700017  1.0000
  N   N6        1.0  0.8249678272690348  0.4542291494313275  0.8197833181199883  1.0000
  N   N7        1.0  0.49750838440199635  0.2735214977844578  0.334493514220938  1.0000
  N   N8        1.0  0.5024915150737926  0.7264796071167081  0.6655113609170938  1.0000
  O   O1        1.0  0.7314250867926901  0.33488808302433887  0.18761598572195476  1.0000
  O   O2        1.0  0.2685734099401813  0.6651123062060973  0.8123815588908556  1.0000
  O   O3        1.0  0.0330199238193956  0.0673647837607518  0.8518875673494435  1.0000
  O   O4        1.0  0.9669740290141321  0.9326314920742503  0.14811186839701657  1.0000
  O   O5        1.0  0.7462330529526043  0.4942661007739274  0.3843980640888702  1.0000
  O   O6        1.0  0.2537666886769259  0.5057342675654651  0.6156010137220916  1.0000
  O   O7        1.0  0.7674986553593612  0.5933338007442686  0.2641120488789496  1.0000
  O   O8        1.0  0.2325143061950357  0.4066641182431141  0.7358872116778272  1.0000
  O   O9        1.0  0.1827773537607698  0.9277078039732558  0.6235515935474892  1.0000
  O   O10       1.0  0.8172264035962301  0.07228764709316239  0.3764486340790185  1.0000
  O   O11       1.0  0.4933361927599621  0.2548507182844162  0.0867174520478855  1.0000
  O   O12       1.0  0.5066584030458899  0.7451487898883044  0.9132845961360375  1.0000
