data_image0
_chemical_formula_structural       Sr4H56C48O20
_chemical_formula_sum              "Sr4 H56 C48 O20"
_cell_length_a       7.176774228002009
_cell_length_b       11.731301906000578
_cell_length_c       14.601209841003557
_cell_angle_alpha    90.0000134784627
_cell_angle_beta     89.99992104882881
_cell_angle_gamma    89.99996671233505

_space_group_name_H-M_alt    "P 1"
_space_group_IT_number       1

loop_
  _space_group_symop_operation_xyz
  'x, y, z'

loop_
  _atom_site_type_symbol
  _atom_site_label
  _atom_site_symmetry_multiplicity
  _atom_site_fract_x
  _atom_site_fract_y
  _atom_site_fract_z
  _atom_site_occupancy
  Sr  Sr1       1.0  0.0616864396252836  0.06022689569597617  0.014359068874902901  1.0000
  Sr  Sr2       1.0  0.5616850636247719  0.9397729775290812  0.985641510096819  1.0000
  Sr  Sr3       1.0  0.5616838744372076  0.43977291669037294  0.0143596201076974  1.0000
  Sr  Sr4       1.0  0.061684842043994985  0.5602261041150667  0.9856423286143893  1.0000
  H   H1        1.0  0.49200993454017095  0.5489092084734251  0.3889614890784614  1.0000
  H   H2        1.0  0.9920086789271992  0.4510905120824446  0.6110381131889824  1.0000
  H   H3        1.0  0.9920101453510455  0.9510921032029029  0.3889620424513396  1.0000
  H   H4        1.0  0.4920112548832591  0.04890846977278328  0.6110375598152373  1.0000
  H   H5        1.0  0.5434994177193744  0.5316570889103431  0.5544840551923969  1.0000
  H   H6        1.0  0.04349641148696999  0.46834364318765853  0.4455165361137148  1.0000
  H   H7        1.0  0.0434974144731584  0.968344430311326  0.5544835811614846  1.0000
  H   H8        1.0  0.543498414732781  0.03165715420698939  0.4455170101447123  1.0000
  H   H9        1.0  0.30034577462572537  0.19598594730019406  0.5490277087268822  1.0000
  H   H10       1.0  0.8003460247852772  0.804015546094348  0.4509733932692583  1.0000
  H   H11       1.0  0.8003461253689395  0.3040147892523776  0.5490261796540067  1.0000
  H   H12       1.0  0.30034846081267835  0.6959858517210616  0.4509728677168496  1.0000
  H   H13       1.0  0.24497571592424802  0.2139464290031441  0.3846975109427362  1.0000
  H   H14       1.0  0.7449783098381034  0.786053379194314  0.6153029437276274  1.0000
  H   H15       1.0  0.7449760837545795  0.2860534266983521  0.3846966633470785  1.0000
  H   H16       1.0  0.24497654862521057  0.7139480863397691  0.6153024215744125  1.0000
  H   H17       1.0  0.4763917819224091  0.39770516967267605  0.2368172383158011  1.0000
  H   H18       1.0  0.9763913498534221  0.6022954088443341  0.7631823745430921  1.0000
  H   H19       1.0  0.9763923245790237  0.10229541308565619  0.2368177257094146  1.0000
  H   H20       1.0  0.4763922005804702  0.8977051654311052  0.7631818871490097  1.0000
  H   H21       1.0  0.2792920204175928  0.48168736129638023  0.2569224963743508  1.0000
  H   H22       1.0  0.7792931179262794  0.5183124347264962  0.7430765652749614  1.0000
  H   H23       1.0  0.7792926429731324  0.018313297270466898  0.2569243376311832  1.0000
  H   H24       1.0  0.2792924953674571  0.9816873511730149  0.743076778642475  1.0000
  H   H25       1.0  0.28086809788891287  0.22123800344314756  0.23074518835358052  1.0000
  H   H26       1.0  0.7808660875436857  0.7787609396010066  0.7692552419773762  1.0000
  H   H27       1.0  0.7808670792722765  0.2787609420657303  0.2307450242537712  1.0000
  H   H28       1.0  0.2808684995455124  0.7212388533982901  0.7692540363272826  1.0000
  H   H29       1.0  0.08382823666092781  0.2991279489983824  0.2637932089193455  1.0000
  H   H30       1.0  0.583827786334382  0.7008719163709997  0.7362066701615575  1.0000
  H   H31       1.0  0.5838286855312519  0.20087192850414226  0.2637937149600305  1.0000
  H   H32       1.0  0.08382873084772062  0.7991279368649985  0.7362061641203965  1.0000
  H   H33       1.0  0.6077970056418778  0.37217522309126133  0.6811433855874113  1.0000
  H   H34       1.0  0.10779559569027701  0.6278246337749137  0.31885784698858527  1.0000
  H   H35       1.0  0.10779532636583158  0.1278256204242822  0.6811428471430927  1.0000
  H   H36       1.0  0.6077958815843161  0.8721767937027634  0.3188563308093606  1.0000
  H   H37       1.0  0.4478700492174497  0.25853910070560454  0.685839615256981  1.0000
  H   H38       1.0  0.9478665617942711  0.7414623403513187  0.31416138669492705  1.0000
  H   H39       1.0  0.9478676727038433  0.24146332837441517  0.6858394441019939  1.0000
  H   H40       1.0  0.44786893830843166  0.7585389651027155  0.31416087297523637  1.0000
  H   H41       1.0  0.3355227710710906  0.5106015137194077  0.7047353716589484  1.0000
  H   H42       1.0  0.8355223631348353  0.4893991147748338  0.2952650216068449  1.0000
  H   H43       1.0  0.8355229454362602  0.9893990934345637  0.7047359322781475  1.0000
  H   H44       1.0  0.3355207953860031  0.010601535059926396  0.2952644609881148  1.0000
  H   H45       1.0  0.18798019872381388  0.3924279570970198  0.7180925228408981  1.0000
  H   H46       1.0  0.6879783223713429  0.607572723742258  0.2819079704833101  1.0000
  H   H47       1.0  0.687976556209513  0.10757286878124009  0.7180923263594536  1.0000
  H   H48       1.0  0.18797778473504678  0.8924269596384772  0.2819081669660974  1.0000
  H   H49       1.0  0.956656429015723  0.8189909179740837  0.9952378298006292  1.0000
  H   H50       1.0  0.4566549302054029  0.18100881512455658  0.004762481317087  1.0000
  H   H51       1.0  0.4566560925230476  0.681007173930304  0.9952386711655805  1.0000
  H   H52       1.0  0.9566552666988885  0.3189908543277226  0.0047616399519796  1.0000
  H   H53       1.0  0.8981801647401825  0.8095144404266176  0.09733348719218779  1.0000
  H   H54       1.0  0.3981817164374561  0.19048531341753963  0.902666863580933  1.0000
  H   H55       1.0  0.398179819232638  0.6904834095412224  0.0973336454749543  1.0000
  H   H56       1.0  0.8981806685631071  0.30951463946246344  0.90266602042373  1.0000
  C   C1        1.0  0.3660007772015419  0.3828381465623564  0.3730210561960234  1.0000
  C   C2        1.0  0.865997925571385  0.6171616186991996  0.6269800012762161  1.0000
  C   C3        1.0  0.8659985189477765  0.11716336762731319  0.3730201766534548  1.0000
  C   C4        1.0  0.3659987904430011  0.8828372500545993  0.626979511069834  1.0000
  C   C5        1.0  0.4488038819400444  0.47100397191042737  0.4238736718275007  1.0000
  C   C6        1.0  0.9487984698038757  0.5289966163952255  0.5761273294916903  1.0000
  C   C7        1.0  0.9488017075684353  0.028997527779431195  0.4238720907324803  1.0000
  C   C8        1.0  0.44880064417835547  0.971003060525916  0.5761268559624426  1.0000
  C   C9        1.0  0.47731795837877666  0.4613724835200371  0.5178282043946254  1.0000
  C   C10       1.0  0.9773155869083396  0.5386263898282094  0.4821720927114228  1.0000
  C   C11       1.0  0.9773171682254899  0.03862903354009009  0.5178279948705651  1.0000
  C   C12       1.0  0.47731637706273494  0.9613715446485712  0.4821709324861345  1.0000
  C   C13       1.0  0.42563315943948515  0.3618362324676454  0.5648893812364477  1.0000
  C   C14       1.0  0.9256294316533129  0.6381643640577577  0.43510889629667554  1.0000
  C   C15       1.0  0.9256308812011369  0.1381661691176248  0.5648905602910048  1.0000
  C   C16       1.0  0.42563170988933763  0.8618352798282838  0.43510908699171574  1.0000
  C   C17       1.0  0.3420581190045198  0.27440093154488915  0.5146058968565157  1.0000
  C   C18       1.0  0.8420569540086262  0.7255996946309934  0.48539517685226485  1.0000
  C   C19       1.0  0.8420571509674915  0.22560148497981194  0.5146043529510748  1.0000
  C   C20       1.0  0.34205652866445746  0.7743999936163278  0.4853946661339918  1.0000
  C   C21       1.0  0.31212557814770747  0.2844518109419454  0.4203972762762405  1.0000
  C   C22       1.0  0.8121255523268615  0.7155479734328194  0.5796038177312113  1.0000
  C   C23       1.0  0.8121246196729786  0.21554888380083528  0.4203964153441433  1.0000
  C   C24       1.0  0.3121251174199884  0.7844526054144932  0.5796026240396798  1.0000
  C   C25       1.0  0.3392395866579675  0.3970351966263334  0.27091445926781427  1.0000
  C   C26       1.0  0.8392392494194353  0.6029645781288479  0.7290852466025157  1.0000
  C   C27       1.0  0.8392401286785045  0.10296459234523782  0.2709142619133331  1.0000
  C   C28       1.0  0.3392401007821563  0.8970360348300089  0.7290854439566061  1.0000
  C   C29       1.0  0.2170942856156017  0.3065098798389981  0.2268859488036412  1.0000
  C   C30       1.0  0.7170951323611161  0.693489085830059  0.7731138399006312  1.0000
  C   C31       1.0  0.7170947415095484  0.19348908716619917  0.2268864534478539  1.0000
  C   C32       1.0  0.2170960698504345  0.8065107309229232  0.7731133352560278  1.0000
  C   C33       1.0  0.17053171386747581  0.3262647141723106  0.1271017694066643  1.0000
  C   C34       1.0  0.6705336934103768  0.6737317107549713  0.8728980508739994  1.0000
  C   C35       1.0  0.6705335819393453  0.17373338773984406  0.1271029551881924  1.0000
  C   C36       1.0  0.17053321872054988  0.8262664468684234  0.8728968650923149  1.0000
  C   C37       1.0  0.4623654043489934  0.3485282548860482  0.6660967343155662  1.0000
  C   C38       1.0  0.9623619472651299  0.6514714761876234  0.3339042578059548  1.0000
  C   C39       1.0  0.9623631134526744  0.15147331085512405  0.6660958612631518  1.0000
  C   C40       1.0  0.4623628447784824  0.8485289774795248  0.3339037611095748  1.0000
  C   C41       1.0  0.3335260649049232  0.4207453351487728  0.7262465949900729  1.0000
  C   C42       1.0  0.8335242383264614  0.5792544416336013  0.2737524298807088  1.0000
  C   C43       1.0  0.8335238427145839  0.07925544147843767  0.7262470780263045  1.0000
  C   C44       1.0  0.33352367374850195  0.9207443353045331  0.2737526317201713  1.0000
  C   C45       1.0  0.37696605395137783  0.4158302868320972  0.8280607456206965  1.0000
  C   C46       1.0  0.8769659011444163  0.5841694745386546  0.17193961953962855  1.0000
  C   C47       1.0  0.876963827084836  0.08417050416939278  0.8280612295866802  1.0000
  C   C48       1.0  0.37696394786050297  0.9158301096223126  0.17193845070039518  1.0000
  O   O1        1.0  0.0634851016362319  0.25328135311757183  0.08898303973541029  1.0000
  O   O2        1.0  0.5634841182455048  0.7467159622084693  0.9110182228908954  1.0000
  O   O3        1.0  0.5634855068888173  0.24671677562079705  0.0889835544483972  1.0000
  O   O4        1.0  0.0634851063772857  0.7532830969657167  0.9110163384281691  1.0000
  O   O5        1.0  0.2342191174589203  0.4134067726501911  0.08587092610471099  1.0000
  O   O6        1.0  0.7342182777024249  0.586590482102842  0.9141274812370384  1.0000
  O   O7        1.0  0.7342182816716091  0.0865912946053768  0.0858714105284051  1.0000
  O   O8        1.0  0.2342191134885141  0.9134085174085839  0.9141269968135858  1.0000
  O   O9        1.0  0.3112330705170621  0.49562622348345536  0.8787243853942286  1.0000
  O   O10       1.0  0.8112331354786234  0.5043752660484557  0.1212760243438638  1.0000
  O   O11       1.0  0.8112309195685723  0.004374605660267199  0.8787248542657976  1.0000
  O   O12       1.0  0.3112283195095813  0.9956251790322594  0.12127555547449728  1.0000
  O   O13       1.0  0.47705697655878515  0.33564650491388187  0.8599032709168168  1.0000
  O   O14       1.0  0.9770610167702714  0.6643540733664322  0.1400970263642094  1.0000
  O   O15       1.0  0.9770588535567556  0.16435511231264846  0.8599030851744872  1.0000
  O   O16       1.0  0.47705635300783916  0.8356454659678574  0.1400951574832163  1.0000
  O   O17       1.0  0.890905356280534  0.8626756266872989  0.04521589564645011  1.0000
  O   O18       1.0  0.39090681263365923  0.13732327731750618  0.9547844600601252  1.0000
  O   O19       1.0  0.3909064547343561  0.6373222106141938  0.04521604387262809  1.0000
  O   O20       1.0  0.8909057141812015  0.36267584097020483  0.9547836269591199  1.0000
