data_image0
_chemical_formula_structural       Al2H36C54O12
_chemical_formula_sum              "Al2 H36 C54 O12"
_cell_length_a       4.020592767017425
_cell_length_b       24.49980645526619
_cell_length_c       24.49979647921339
_cell_angle_alpha    120.00036215717653
_cell_angle_beta     90.00017050225385
_cell_angle_gamma    90.00017127362504

_space_group_name_H-M_alt    "P 1"
_space_group_IT_number       1

loop_
  _space_group_symop_operation_xyz
  'x, y, z'

loop_
  _atom_site_type_symbol
  _atom_site_label
  _atom_site_symmetry_multiplicity
  _atom_site_fract_x
  _atom_site_fract_y
  _atom_site_fract_z
  _atom_site_occupancy
  Al  Al1       1.0  0.9999960817797772  0.49999998879020763  0.4999982281198568  1.0000
  Al  Al2       1.0  0.9999912865686301  0.16666531657612152  0.8333348045475047  1.0000
  H   H1        1.0  0.41703890668608784  0.49991749026570875  0.673288300037079  1.0000
  H   H2        1.0  0.5829664743475577  0.3267156513849016  0.5000864123071692  1.0000
  H   H3        1.0  0.4170631628038279  0.16675250537534933  0.6600470793274837  1.0000
  H   H4        1.0  0.582927466976095  0.3399539719298799  0.8332504762779819  1.0000
  H   H5        1.0  0.15601817999400683  0.45956732996361865  0.7626495386787437  1.0000
  H   H6        1.0  0.5300455696918007  0.5000558317236921  0.7721734932707846  1.0000
  H   H7        1.0  0.8440021938854515  0.23735273308828633  0.5404334599183541  1.0000
  H   H8        1.0  0.469972300379375  0.22782992987462325  0.499947046903891  1.0000
  H   H9        1.0  0.15607379736810867  0.20709137314491224  0.5706778531220492  1.0000
  H   H10       1.0  0.5301251550446083  0.16661567140155842  0.5611638623732063  1.0000
  H   H11       1.0  0.8439490962276682  0.4293236760189668  0.7929102086543265  1.0000
  H   H12       1.0  0.4698952680429543  0.4388391748283237  0.8333893255833685  1.0000
  H   H13       1.0  0.4170338414029049  0.6733682170446968  0.5000839660160777  1.0000
  H   H14       1.0  0.582933905594139  0.6733693967722161  0.6732894504351279  1.0000
  H   H15       1.0  0.4170746780121135  0.9932945469884017  0.8332456923792717  1.0000
  H   H16       1.0  0.5829291777306409  0.9932931674305651  0.6600423609866013  1.0000
  H   H17       1.0  0.1560166573904525  0.8030793845165859  0.540431145442916  1.0000
  H   H18       1.0  0.530040447440861  0.7721127784384193  0.4999440776203057  1.0000
  H   H19       1.0  0.8439944322207468  0.803082307254158  0.7626507705891682  1.0000
  H   H20       1.0  0.469959846557238  0.7721204155084677  0.7721752917055225  1.0000
  H   H21       1.0  0.15607182143827464  0.8635894025808922  0.7929083122997511  1.0000
  H   H22       1.0  0.5301242912286668  0.8945502054261779  0.8333872120202983  1.0000
  H   H23       1.0  0.843965794816377  0.8635783787497926  0.5706744437323362  1.0000
  H   H24       1.0  0.46993158221076925  0.8945445504308437  0.5611579813481241  1.0000
  H   H25       1.0  0.4170564589854919  0.32671277311311536  0.32663037799858324  1.0000
  H   H26       1.0  0.5829589172311741  0.49991618762470574  0.3266285885135644  1.0000
  H   H27       1.0  0.4170883669083949  0.3399575382187123  0.0067070276265681844  1.0000
  H   H28       1.0  0.582918087706773  0.1667510373579972  0.006702427906247969  1.0000
  H   H29       1.0  0.1560133209723702  0.23734472632633438  0.19691681425878466  1.0000
  H   H30       1.0  0.5300504156596375  0.22782460343573516  0.22788168780027002  1.0000
  H   H31       1.0  0.8440083867317941  0.4595635315048839  0.19692037595845588  1.0000
  H   H32       1.0  0.4699845915629697  0.5000529381394756  0.22788463546713433  1.0000
  H   H33       1.0  0.1560716689884529  0.4293230703203932  0.13641525463121695  1.0000
  H   H34       1.0  0.5301257574375314  0.43883897193978066  0.1054536924462751  1.0000
  H   H35       1.0  0.843948351578277  0.2070931422854443  0.13641516535876252  1.0000
  H   H36       1.0  0.46991329718918723  0.16660976212705952  0.10544987100803377  1.0000
  C   C1        1.0  0.49999383714574464  0.45176371295475076  0.40352673037531867  1.0000
  C   C2        1.0  0.5000001826365335  0.45176471189654405  0.5482371429328267  1.0000
  C   C3        1.0  0.49999152711438216  0.5964722518281959  0.5482343659010452  1.0000
  C   C4        1.0  0.49999782272229265  0.21490079490260428  0.7850979875276495  1.0000
  C   C5        1.0  0.49998160624431165  0.07019198421906442  0.7850971372606493  1.0000
  C   C6        1.0  0.4999942194306826  0.2149029721123055  0.9298072218066764  1.0000
  C   C7        1.0  0.4245878727198615  0.45245545130382675  0.7526626679728922  1.0000
  C   C8        1.0  0.5754300124340263  0.2473401779974578  0.5475463947058187  1.0000
  C   C9        1.0  0.42463137061607636  0.21421045312953155  0.5806719191802754  1.0000
  C   C10       1.0  0.5753815757356977  0.41932920229309173  0.7857907223321658  1.0000
  C   C11       1.0  0.4551345898814034  0.4489890485120963  0.6485684152283395  1.0000
  C   C12       1.0  0.4668766702260499  0.41689859045278865  0.6820752571114709  1.0000
  C   C13       1.0  0.5448956772234439  0.3514374045219596  0.5510162724568771  1.0000
  C   C14       1.0  0.5331511449189891  0.3179288936023993  0.5831060039748905  1.0000
  C   C15       1.0  0.4551229168469746  0.21768026047018904  0.6847709897238446  1.0000
  C   C16       1.0  0.466889807809011  0.2497733222167679  0.6512615668641926  1.0000
  C   C17       1.0  0.5448726732544174  0.31523111269670057  0.78232328135352  1.0000
  C   C18       1.0  0.5331306189933475  0.3487413880026295  0.750230130080574  1.0000
  C   C19       1.0  0.500015124670135  0.4167458937153937  0.5832600713453076  1.0000
  C   C20       1.0  0.5000226217609909  0.35064663012170144  0.6493569397784212  1.0000
  C   C21       1.0  0.4999978039135585  0.2499231772359704  0.750077209340098  1.0000
  C   C22       1.0  0.5000201531832786  0.31602278587264  0.6839816285684535  1.0000
  C   C23       1.0  0.424591524380773  0.8002043915571732  0.5475431941681703  1.0000
  C   C24       1.0  0.5754269482064558  0.8002083209083962  0.7526647281272644  1.0000
  C   C25       1.0  0.42462919460148646  0.8664615820698457  0.7857906162726065  1.0000
  C   C26       1.0  0.5754060130908274  0.8664559317655928  0.5806678293145848  1.0000
  C   C27       1.0  0.45509362284698085  0.6995786411280704  0.5510150443121872  1.0000
  C   C28       1.0  0.46687387068064384  0.7651712324819255  0.5831013279325531  1.0000
  C   C29       1.0  0.5448599178256119  0.6995822902067558  0.6485679482911307  1.0000
  C   C30       1.0  0.5331436437044275  0.7651693884051768  0.6820711506806133  1.0000
  C   C31       1.0  0.45514048754222375  0.9670909895971532  0.7823200660023132  1.0000
  C   C32       1.0  0.466904031550918  0.9014855039547456  0.7502246583029474  1.0000
  C   C33       1.0  0.5448750875607402  0.9670893596977593  0.6847677652785434  1.0000
  C   C34       1.0  0.5331520316236578  0.9014845849288875  0.651257726689934  1.0000
  C   C35       1.0  0.4999725874127563  0.6665154344885024  0.5832611669602484  1.0000
  C   C36       1.0  0.5000191646057389  0.7987099399620944  0.6493550411243019  1.0000
  C   C37       1.0  0.4999955715927555  0.0001506067455350221  0.7500726126981263  1.0000
  C   C38       1.0  0.5000400091190331  0.8679591539713271  0.6839790600897755  1.0000
  C   C39       1.0  0.42458328839664017  0.24733351494232633  0.199792130346708  1.0000
  C   C40       1.0  0.5754285507175184  0.4524533696690654  0.19979349015777348  1.0000
  C   C41       1.0  0.4246289673445248  0.41932733582336124  0.13354005632643143  1.0000
  C   C42       1.0  0.5753934601953219  0.21420955994186386  0.13353935807830908  1.0000
  C   C43       1.0  0.4551204705890086  0.3514319617267389  0.30041894025636395  1.0000
  C   C44       1.0  0.46685911219429954  0.31792712718090843  0.23483018274913545  1.0000
  C   C45       1.0  0.5448817386992388  0.448983542991563  0.3004189345517715  1.0000
  C   C46       1.0  0.5331387808412344  0.41689870211885705  0.23483058755570593  1.0000
  C   C47       1.0  0.45514745885103747  0.315231856101029  0.03291197101626145  1.0000
  C   C48       1.0  0.46688545516604313  0.34873991674761123  0.09851385186065896  1.0000
  C   C49       1.0  0.544872162460088  0.21767657964567633  0.0329068656048221  1.0000
  C   C50       1.0  0.5331185852600484  0.24977186133037318  0.0985141372456296  1.0000
  C   C51       1.0  0.4999953477021322  0.41674171743966326  0.33348361165266016  1.0000
  C   C52       1.0  0.499998478823379  0.3506413419081369  0.20128820671120448  1.0000
  C   C53       1.0  0.5000026576550455  0.24992685286869662  0.9998484552961172  1.0000
  C   C54       1.0  0.4999925388796527  0.3160174954552133  0.13203960833512693  1.0000
  O   O1        1.0  0.7340066398596152  0.568871157562313  0.5603481452148741  1.0000
  O   O2        1.0  0.7340096982797422  0.49148167070941173  0.43112827514072893  1.0000
  O   O3        1.0  0.7340099683082641  0.43965013982215584  0.5085193893662207  1.0000
  O   O4        1.0  0.2659980442265137  0.5688714156338719  0.5085156897260318  1.0000
  O   O5        1.0  0.2659854076773556  0.4914791792316178  0.5603484480468309  1.0000
  O   O6        1.0  0.26598372013776134  0.4396499451153062  0.43112784552432254  1.0000
  O   O7        1.0  0.7339864628827187  0.17518863467078916  0.9022074069123179  1.0000
  O   O8        1.0  0.7340085775009444  0.22701310041948355  0.8248111127835712  1.0000
  O   O9        1.0  0.7339895212801723  0.09779815896618507  0.772986076676844  1.0000
  O   O10       1.0  0.2659713599195045  0.22701670067826968  0.9022032447338687  1.0000
  O   O11       1.0  0.26596449738752176  0.09779265487012578  0.8248147104792591  1.0000
  O   O12       1.0  0.26598210833583386  0.1751838855162261  0.7729837742581721  1.0000
