data_image0
_chemical_formula_structural       Zn2H38C52N6O12
_chemical_formula_sum              "Zn2 H38 C52 N6 O12"
_cell_length_a       10.227874382182868
_cell_length_b       10.864234050792838
_cell_length_c       12.801723356318995
_cell_angle_alpha    79.39783634769279
_cell_angle_beta     63.1172292912009
_cell_angle_gamma    60.81003660362025

_space_group_name_H-M_alt    "P 1"
_space_group_IT_number       1

loop_
  _space_group_symop_operation_xyz
  'x, y, z'

loop_
  _atom_site_type_symbol
  _atom_site_label
  _atom_site_symmetry_multiplicity
  _atom_site_fract_x
  _atom_site_fract_y
  _atom_site_fract_z
  _atom_site_occupancy
  Zn  Zn1       1.0  0.5051269416385509  0.8048574575917726  0.3901125685176865  1.0000
  Zn  Zn2       1.0  0.4948747537349831  0.1951529565823051  0.609882131086941  1.0000
  H   H1        1.0  0.1699404183969194  0.6521007280502146  0.536228627481627  1.0000
  H   H2        1.0  0.8300620359287831  0.3479215142636178  0.46377482859611535  1.0000
  H   H3        1.0  0.8552385197720654  0.6064519612192427  0.22951599096936803  1.0000
  H   H4        1.0  0.1447605175409379  0.39355658890335127  0.7704891927737592  1.0000
  H   H5        1.0  0.1399028159914549  0.5125880337386661  0.21787487146471565  1.0000
  H   H6        1.0  0.8601004821399842  0.4874053491680357  0.7821225254961136  1.0000
  H   H7        1.0  0.17446307135926972  0.5816285372464379  0.3759606058633481  1.0000
  H   H8        1.0  0.8255581939567516  0.4183846323491736  0.6240208992987849  1.0000
  H   H9        1.0  0.6419946869018605  0.8154777104017014  0.5475147149717757  1.0000
  H   H10       1.0  0.35802085646870546  0.18452677468518175  0.452484469436918  1.0000
  H   H11       1.0  0.5906173345878329  0.878268701245929  0.9222198352304293  1.0000
  H   H12       1.0  0.4093796859066927  0.12171572890446208  0.0777860603029836  1.0000
  H   H13       1.0  0.7386293373033083  0.8217373396825496  0.04862127897531825  1.0000
  H   H14       1.0  0.26136102847910786  0.17823172770920337  0.9513821292821305  1.0000
  H   H15       1.0  0.045023520626642784  0.703195404704921  0.9629111898258033  1.0000
  H   H16       1.0  0.9549705160480713  0.29677976196664707  0.03710602915298731  1.0000
  H   H17       1.0  0.21395909730504323  0.6409649220470826  0.7504316142118982  1.0000
  H   H18       1.0  0.7860149307862302  0.3590395191710344  0.24957935187769226  1.0000
  H   H19       1.0  0.9506365135202444  0.027911656981217378  0.6032103772537527  1.0000
  H   H20       1.0  0.049368129384745656  0.9720914428130103  0.39678325646837465  1.0000
  H   H21       1.0  0.6798731646150316  0.1532167773947393  0.7737817592615174  1.0000
  H   H22       1.0  0.32013121618751933  0.8467949731374843  0.22620876295417255  1.0000
  H   H23       1.0  0.9342282701106654  0.1327684531294153  0.9728797317318085  1.0000
  H   H24       1.0  0.06577323568640019  0.8672301373058247  0.027118545448459524  1.0000
  H   H25       1.0  0.2031593542884238  0.0095691775327964  0.8037145432759658  1.0000
  H   H26       1.0  0.7968415102532516  0.9904144161627643  0.19628777754915205  1.0000
  H   H27       1.0  0.7241552935403565  0.419963415337179  0.928080562874442  1.0000
  H   H28       1.0  0.27584279456031874  0.5800405721886436  0.0719293081067249  1.0000
  H   H29       1.0  0.6475393518584764  0.5886325862330039  0.07962839808989497  1.0000
  H   H30       1.0  0.3524727560133627  0.4113594623742145  0.9203825758333795  1.0000
  H   H31       1.0  0.4155574628126857  0.36769734340209237  0.35004637171805103  1.0000
  H   H32       1.0  0.5844387638353651  0.6322950075070323  0.649952750040818  1.0000
  H   H33       1.0  0.4943473109420323  0.19832823338644096  0.1983315403830659  1.0000
  H   H34       1.0  0.505633139191808  0.801679678449915  0.8016612385224137  1.0000
  H   H35       1.0  0.5704561672561397  0.010556471932922314  0.33074963518525635  1.0000
  H   H36       1.0  0.42953531338099515  0.9894666961865043  0.669245718555999  1.0000
  H   H37       1.0  0.4098768346414658  0.05816117084253139  0.3090740296564363  1.0000
  H   H38       1.0  0.5901152304363252  0.9418608119279097  0.6909228079406873  1.0000
  C   C1        1.0  0.8751978076410581  0.6336916489452022  0.2970091021648144  1.0000
  C   C2        1.0  0.12480896019970789  0.36631351082449737  0.7029843887183844  1.0000
  C   C3        1.0  0.032553782166971204  0.5835791059605739  0.29092096733729994  1.0000
  C   C4        1.0  0.9674484873840402  0.4164303207495194  0.7090728510921097  1.0000
  C   C5        1.0  0.05171948973955398  0.6199234474733545  0.3800386806747441  1.0000
  C   C6        1.0  0.9482857383031273  0.38009663035046515  0.6199522994710946  1.0000
  C   C7        1.0  0.9098579655721296  0.7052990621741416  0.47593463478508363  1.0000
  C   C8        1.0  0.09014364631522635  0.2947138609831867  0.5240551481385298  1.0000
  C   C9        1.0  0.7562020919484734  0.750527652714169  0.4755711496559913  1.0000
  C   C10       1.0  0.24380447332860203  0.24948411054193545  0.5244186279959138  1.0000
  C   C11       1.0  0.9106749203181295  0.7387709214431695  0.5808840070925215  1.0000
  C   C12       1.0  0.08933062252361879  0.26123859031441293  0.4191079061475023  1.0000
  C   C13       1.0  0.8207193709703943  0.7895871819203465  0.7649559929258418  1.0000
  C   C14       1.0  0.17927090037896679  0.21040368162147874  0.23504999975503438  1.0000
  C   C15       1.0  0.7251028050309357  0.8279601145585502  0.884952046627156  1.0000
  C   C16       1.0  0.2748758677960907  0.1720354375226663  0.11506369521607242  1.0000
  C   C17       1.0  0.808885264969149  0.7955344898753439  0.9545580698882931  1.0000
  C   C18       1.0  0.1910895815997122  0.2044424795705524  0.04545532224619109  1.0000
  C   C19       1.0  0.9832731070814233  0.7287142387397765  0.9056553667040461  1.0000
  C   C20       1.0  0.016710789460603254  0.271270444875654  0.09435105449362882  1.0000
  C   C21       1.0  0.07991427137749693  0.6920574160936184  0.7864394949649737  1.0000
  C   C22       1.0  0.9200784438248064  0.30794303877434  0.21356393888270028  1.0000
  C   C23       1.0  0.996182086066355  0.7218207763209603  0.7167367500322542  1.0000
  C   C24       1.0  0.0038116720976403644  0.27818153427551817  0.2832692782894668  1.0000
  C   C25       1.0  0.2579775838779382  0.9366674628130767  0.5922506430669614  1.0000
  C   C26       1.0  0.7420357640578813  0.0633190440563496  0.40775105830659447  1.0000
  C   C27       1.0  0.09539030738024219  0.01168437397198829  0.6916085919556637  1.0000
  C   C28       1.0  0.9046163270017474  0.988306980768954  0.308387086434621  1.0000
  C   C29       1.0  0.9472790409830479  0.051437526527436696  0.6838280334848366  1.0000
  C   C30       1.0  0.05272208635809486  0.9485555798087193  0.3161732614145621  1.0000
  C   C31       1.0  0.7960125325817201  0.12128972809821899  0.7782082541739259  1.0000
  C   C32       1.0  0.20398543782216175  0.8787174280275282  0.2217888166892835  1.0000
  C   C33       1.0  0.7925928976514243  0.15086049592732562  0.8814354302296155  1.0000
  C   C34       1.0  0.20741054078091262  0.8491465600847901  0.11856135591151694  1.0000
  C   C35       1.0  0.9385324304413561  0.1119338119956907  0.8910806916824114  1.0000
  C   C36       1.0  0.06146703048504784  0.8880602754424985  0.10892185667410811  1.0000
  C   C37       1.0  0.0888708516338355  0.04268914394747009  0.7960751028239985  1.0000
  C   C38       1.0  0.9111271878749605  0.9572976036631075  0.20392786877759753  1.0000
  C   C39       1.0  0.6130913539829164  0.30022542719155604  0.0556433296949593  1.0000
  C   C40       1.0  0.386913355302944  0.6997754934277581  0.9443512789897073  1.0000
  C   C41       1.0  0.6585196708125662  0.40866825234715526  0.020869652505666688  1.0000
  C   C42       1.0  0.34148718735650613  0.5913342665159504  0.9791303317459352  1.0000
  C   C43       1.0  0.6143674294765233  0.5027978931742112  0.10536397149873986  1.0000
  C   C44       1.0  0.3856348174703754  0.49719469183054343  0.8946432578683315  1.0000
  C   C45       1.0  0.5235506414065298  0.4901709150843132  0.22450528775009107  1.0000
  C   C46       1.0  0.4764568634659838  0.5098101418379812  0.7755005044083633  1.0000
  C   C47       1.0  0.4810797607984656  0.37981604780940603  0.2573270711225248  1.0000
  C   C48       1.0  0.5189218846024629  0.6201780523526709  0.742674732670203  1.0000
  C   C49       1.0  0.5262360211960129  0.2844218098438063  0.17354583255137607  1.0000
  C   C50       1.0  0.4737527664729554  0.7155819904622264  0.8264562593235852  1.0000
  C   C51       1.0  0.4744300567910996  0.5900837254244636  0.31730969314639873  1.0000
  C   C52       1.0  0.5255715003218738  0.40991387558577236  0.6827004091893017  1.0000
  N   N1        1.0  0.7384600956853689  0.7165758039322014  0.3889680840219327  1.0000
  N   N2        1.0  0.261550211666666  0.2834388875639036  0.6110232640898658  1.0000
  N   N3        1.0  0.7716325540132377  0.8011919663954075  0.6778459356427149  1.0000
  N   N4        1.0  0.22835763934875078  0.19881857764334404  0.32213778770101703  1.0000
  N   N5        1.0  0.04897832135780076  0.6926020163360107  0.5996681050725671  1.0000
  N   N6        1.0  0.951022190069445  0.30741195828594675  0.4003344770132314  1.0000
  O   O1        1.0  0.5216236400445736  0.9747589622205767  0.29763816782671887  1.0000
  O   O2        1.0  0.47836359756312424  0.025259954024591014  0.7023590482797957  1.0000
  O   O3        1.0  0.264238198693597  0.8932321037408999  0.5023414421912663  1.0000
  O   O4        1.0  0.7357937268418979  0.1067361500179373  0.4976604328533227  1.0000
  O   O5        1.0  0.389644584590343  0.9155548029968301  0.5961020545412268  1.0000
  O   O6        1.0  0.6103567104201985  0.08445144875139482  0.4039049362880291  1.0000
  O   O7        1.0  0.6400856670953557  0.2114081823917786  0.9750929520320782  1.0000
  O   O8        1.0  0.35991568541358987  0.788595162163297  0.024898645160959573  1.0000
  O   O9        1.0  0.37129457139819505  0.5908533957791563  0.41958873168901095  1.0000
  O   O10       1.0  0.6286886715982616  0.4091528817004287  0.5804103049144161  1.0000
  O   O11       1.0  0.5473377938883458  0.6696746972782253  0.28225723368429817  1.0000
  O   O12       1.0  0.452673722700709  0.33031866860131487  0.7177506796957263  1.0000
