data_image0
_chemical_formula_structural       Al2H16C8Br6O4
_chemical_formula_sum              "Al2 H16 C8 Br6 O4"
_cell_length_a       6.6261122828094425
_cell_length_b       6.625850066930173
_cell_length_c       12.540733881193077
_cell_angle_alpha    92.23527281478619
_cell_angle_beta     103.07720387311574
_cell_angle_gamma    119.89076240532474

_space_group_name_H-M_alt    "P 1"
_space_group_IT_number       1

loop_
  _space_group_symop_operation_xyz
  'x, y, z'

loop_
  _atom_site_type_symbol
  _atom_site_label
  _atom_site_symmetry_multiplicity
  _atom_site_fract_x
  _atom_site_fract_y
  _atom_site_fract_z
  _atom_site_occupancy
  Al  Al1       1.0  0.5464439204661887  0.2965474428660428  0.2500869005693858  1.0000
  Al  Al2       1.0  0.45354328537565886  0.7034560090973868  0.7499080764043239  1.0000
  H   H1        1.0  0.6876390837679053  0.42344968253481585  0.035097134134964784  1.0000
  H   H2        1.0  0.8883052478271766  0.652594251219149  0.46493415437316077  1.0000
  H   H3        1.0  0.3123884336330889  0.5765538152535044  0.9649050387647619  1.0000
  H   H4        1.0  0.11171358094787821  0.3474161693152809  0.535077511882072  1.0000
  H   H5        1.0  0.3747063485862725  0.20743747217662906  0.9654326563878752  1.0000
  H   H6        1.0  0.7419295887626022  0.4095645108221646  0.53469472200247  1.0000
  H   H7        1.0  0.6253081579640635  0.7925677789432655  0.03456721007541571  1.0000
  H   H8        1.0  0.25808510593959966  0.5904352341628539  0.46532098624499696  1.0000
  H   H9        1.0  0.18516585893811305  0.8445218657674616  0.02994733394444889  1.0000
  H   H10       1.0  0.31483700211664717  0.15506880183674102  0.47002786627161425  1.0000
  H   H11       1.0  0.8148424899736143  0.1554834853997491  0.9700430296934283  1.0000
  H   H12       1.0  0.6851566290960563  0.8449292370323322  0.5299773184307452  1.0000
  H   H13       1.0  0.35833584183102113  0.7907607797207985  0.14520064586314155  1.0000
  H   H14       1.0  0.1454539471007905  0.2126335535872528  0.35481719699917846  1.0000
  H   H15       1.0  0.6416712071313385  0.2092392148142181  0.8547934245477503  1.0000
  H   H16       1.0  0.8545536769183996  0.7873732796792581  0.6451954425986981  1.0000
  C   C1        1.0  0.5537720078937127  0.23421302461920132  0.006544770661754716  1.0000
  C   C2        1.0  0.7276624247857841  0.5474343272892386  0.4934977946363474  1.0000
  C   C3        1.0  0.44624555349131606  0.7657834339017312  0.9934520642019319  1.0000
  C   C4        1.0  0.27233116035407073  0.45256359979213556  0.5065161535233997  1.0000
  C   C5        1.0  0.36393766074697703  0.8701536694098804  0.07018564593480647  1.0000
  C   C6        1.0  0.2999657211686895  0.2934880803087765  0.4298180404475075  1.0000
  C   C7        1.0  0.6360538067850641  0.129837436329943  0.9298079548400577  1.0000
  C   C8        1.0  0.7000222208548622  0.7064992699132732  0.5701917980830301  1.0000
  Br  Br1       1.0  0.8954231901477668  0.6448873172955844  0.2501848511928698  1.0000
  Br  Br2       1.0  0.10452831820661852  0.3551480195156031  0.7497962530916238  1.0000
  Br  Br3       1.0  0.6052374870802454  0.025003606851633695  0.34575378143946267  1.0000
  Br  Br4       1.0  0.17903126607127717  0.259309197851195  0.154414234450158  1.0000
  Br  Br5       1.0  0.39471382582907916  0.9749645024279089  0.654229712457166  1.0000
  Br  Br6       1.0  0.8209645739467676  0.7406871992533867  0.8455816059813227  1.0000
  O   O1        1.0  0.5383200010392174  0.12480581115610787  0.10589367136001467  1.0000
  O   O2        1.0  0.5188561210903941  0.43241362249230525  0.3941294585393891  1.0000
  O   O3        1.0  0.46169326001147226  0.8751942154443242  0.8940995450630138  1.0000
  O   O4        1.0  0.48115389056095376  0.5675773558683517  0.6058791071866663  1.0000
