data_image0
_chemical_formula_structural       Cd2H32C34N8O8
_chemical_formula_sum              "Cd2 H32 C34 N8 O8"
_cell_length_a       8.75878068560392
_cell_length_b       10.13111051699439
_cell_length_c       12.462397571678725
_cell_angle_alpha    90.70352771361729
_cell_angle_beta     110.53418128671467
_cell_angle_gamma    113.56601632705214

_space_group_name_H-M_alt    "P 1"
_space_group_IT_number       1

loop_
  _space_group_symop_operation_xyz
  'x, y, z'

loop_
  _atom_site_type_symbol
  _atom_site_label
  _atom_site_symmetry_multiplicity
  _atom_site_fract_x
  _atom_site_fract_y
  _atom_site_fract_z
  _atom_site_occupancy
  Cd  Cd1       1.0  0.8478708682650054  0.0788354839476852  0.895813205829505  1.0000
  Cd  Cd2       1.0  0.15213306017526643  0.9211658164571757  0.10418946338985074  1.0000
  H   H1        1.0  0.9515016618871499  0.0659023749383678  0.6789703461955697  1.0000
  H   H2        1.0  0.04849495849919085  0.9341042566146027  0.3210251942612388  1.0000
  H   H3        1.0  0.9447990027019488  0.885794394531807  0.5336588700270185  1.0000
  H   H4        1.0  0.055205202057592814  0.1142102182415314  0.4663399411819143  1.0000
  H   H5        1.0  0.6135979641856367  0.5395763495330285  0.6637053128722457  1.0000
  H   H6        1.0  0.386404432753878  0.4604250398212102  0.33628898302648486  1.0000
  H   H7        1.0  0.6352784428704651  0.732459835931074  0.8030582780064606  1.0000
  H   H8        1.0  0.3647329206451603  0.26753950390126846  0.19694361565429117  1.0000
  H   H9        1.0  0.7025534964356339  0.47157920575074297  0.5126339703262346  1.0000
  H   H10       1.0  0.2974570520066848  0.5284254744983555  0.487371099951396  1.0000
  H   H11       1.0  0.03165669506640257  0.6537519595979404  0.3226556909485438  1.0000
  H   H12       1.0  0.968340307192996  0.3462426602356173  0.6773476259608204  1.0000
  H   H13       1.0  0.6974288955245385  0.0740618043592534  0.0961508521299947  1.0000
  H   H14       1.0  0.3025722609267517  0.9259361403888274  0.9038543044393067  1.0000
  H   H15       1.0  0.7070842762124911  0.24134638034213649  0.24671581771216475  1.0000
  H   H16       1.0  0.2929128156256127  0.7586482045671514  0.7532899269836335  1.0000
  H   H17       1.0  0.13233099283838362  0.5923781578294722  0.18180382238210768  1.0000
  H   H18       1.0  0.8676585444860979  0.40761843421802973  0.8181994608237063  1.0000
  H   H19       1.0  0.10574529465213807  0.4062283707728512  0.03165306225226061  1.0000
  H   H20       1.0  0.8942518787771336  0.593773823793974  0.9683505068917029  1.0000
  H   H21       1.0  0.4781377637678901  0.20089186278126894  0.9879929323311671  1.0000
  H   H22       1.0  0.5218726055170181  0.7991128873163686  0.012007282373588167  1.0000
  H   H23       1.0  0.4902326329808773  0.37486821699346945  0.02284924493979901  1.0000
  H   H24       1.0  0.5097720350406831  0.625137524579543  0.9771472948158506  1.0000
  H   H25       1.0  0.6002717685508544  0.3990024613973588  0.8685807728527025  1.0000
  H   H26       1.0  0.39972757987822405  0.6009977907931727  0.1314119960523996  1.0000
  H   H27       1.0  0.377204574691021  0.38343220419960744  0.8044902497262003  1.0000
  H   H28       1.0  0.6227901186392233  0.6165657196384089  0.19550541072582928  1.0000
  H   H29       1.0  0.2745618582665372  0.1049028472375042  0.7433869808380039  1.0000
  H   H30       1.0  0.7254328947828411  0.8950950533176678  0.25661029813831254  1.0000
  H   H31       1.0  0.3938243400435298  0.22700088798615067  0.6686181435924612  1.0000
  H   H32       1.0  0.6061748891494717  0.772993879908526  0.33137926061806416  1.0000
  C   C1        1.0  0.8772563042496203  0.9479301682999123  0.6711813153323619  1.0000
  C   C2        1.0  0.12274461312293282  0.052073400441116705  0.328809494785773  1.0000
  C   C3        1.0  0.8727738789711453  0.8488709989054185  0.5910917648065706  1.0000
  C   C4        1.0  0.12722816615708152  0.15113685966525028  0.4089034362557556  1.0000
  C   C5        1.0  0.7774391903562474  0.6980392824149176  0.5865741425113526  1.0000
  C   C6        1.0  0.22256285497417852  0.301963045294201  0.4134289309049778  1.0000
  C   C7        1.0  0.6884792710737033  0.6550395186927815  0.6631576098159189  1.0000
  C   C8        1.0  0.3115275643645107  0.3449608633626439  0.336839271070609  1.0000
  C   C9        1.0  0.7000927846031076  0.7616710326730711  0.7409563104029432  1.0000
  C   C10       1.0  0.29991877994195454  0.23833587025111314  0.2590466447545624  1.0000
  C   C11       1.0  0.7691324928039978  0.5873408447781188  0.506120155667773  1.0000
  C   C12       1.0  0.2308706582078841  0.4126636706818089  0.4938832304148661  1.0000
  C   C13       1.0  0.9273868159934938  0.5414968113798294  0.3065509601301812  1.0000
  C   C14       1.0  0.07260763087705158  0.45849778844828387  0.6934493675944111  1.0000
  C   C15       1.0  0.7938688766685048  0.18889746070252036  0.11771179863662706  1.0000
  C   C16       1.0  0.20612803601218851  0.8110971940553071  0.8822890904862961  1.0000
  C   C17       1.0  0.7983377168418714  0.2834522874044794  0.20165011201918057  1.0000
  C   C18       1.0  0.20165802265288577  0.7165423166056467  0.798352114928875  1.0000
  C   C19       1.0  0.9186846916586688  0.4322438268301454  0.22452417562566757  1.0000
  C   C20       1.0  0.08130968770740302  0.5677529100010685  0.7754778025903661  1.0000
  C   C21       1.0  0.03420683887533478  0.4779645357148042  0.16418347314485263  1.0000
  C   C22       1.0  0.9657882504146476  0.5220311230644371  0.8358194386993321  1.0000
  C   C23       1.0  0.020951533987577927  0.3756220816068137  0.08208024113768893  1.0000
  C   C24       1.0  0.979045243684155  0.6243768471572294  0.9179239489681168  1.0000
  C   C25       1.0  0.5495412421862512  0.1353737576278107  0.7892194117939368  1.0000
  C   C26       1.0  0.45045670867141746  0.8646252218839404  0.2107834404867432  1.0000
  C   C27       1.0  0.2230165827743491  0.21193414180644507  0.9331150475047352  1.0000
  C   C28       1.0  0.7769891015521537  0.788068291580103  0.06688724948479323  1.0000
  C   C29       1.0  0.4223453251893475  0.27809675760442326  0.9532265012672597  1.0000
  C   C30       1.0  0.5776604264394436  0.7219090696405741  0.04676627287682317  1.0000
  C   C31       1.0  0.45701669029971015  0.323593824911775  0.844268976338256  1.0000
  C   C32       1.0  0.5429816718861816  0.6764041929622451  0.1557267169491112  1.0000
  C   C33       1.0  0.4058672402640299  0.19244168336035727  0.7531503152551412  1.0000
  C   C34       1.0  0.5941325716292667  0.8075541667682983  0.24684805455068215  1.0000
  N   N1        1.0  0.7941440506232524  0.9052283746307663  0.7459923794882428  1.0000
  N   N2        1.0  0.20585449072005702  0.0947695733947143  0.2540081693720069  1.0000
  N   N3        1.0  0.83814873859604  0.6244244206322591  0.42874196949329507  1.0000
  N   N4        1.0  0.1618464400704482  0.3755767340842695  0.5712554977833335  1.0000
  N   N5        1.0  0.81396204718547  0.506627855714946  0.35737890548300305  1.0000
  N   N6        1.0  0.18603094219233904  0.4933710255787886  0.642622014738869  1.0000
  N   N7        1.0  0.902002905073239  0.23416111170858755  0.05801635669298823  1.0000
  N   N8        1.0  0.0979967640257442  0.7658411261465332  0.941988583111453  1.0000
  O   O1        1.0  0.11920859414879453  0.25937373258103935  0.8641546405480726  1.0000
  O   O2        1.0  0.8807920172471172  0.7406210045713734  0.1358470906723426  1.0000
  O   O3        1.0  0.5345314313779923  0.033954398493925494  0.849996548728342  1.0000
  O   O4        1.0  0.4654641133886629  0.9660445028052538  0.15000736067829482  1.0000
  O   O5        1.0  0.1635375598893631  0.11054160322227347  0.9886847204785456  1.0000
  O   O6        1.0  0.8364706499664296  0.8894608618111448  0.011319756433607608  1.0000
  O   O7        1.0  0.6872137858125383  0.19777699879154645  0.7629805175964535  1.0000
  O   O8        1.0  0.31278324630642357  0.8022176094005926  0.2370236085750506  1.0000
