data_image0
_chemical_formula_structural       Zn3H33C30N3O12
_chemical_formula_sum              "Zn3 H33 C30 N3 O12"
_cell_length_a       6.787776686317024
_cell_length_b       12.200146920340565
_cell_length_c       12.195436970734836
_cell_angle_alpha    120.01314315093958
_cell_angle_beta     89.96489942800129
_cell_angle_gamma    90.00861247793424

_space_group_name_H-M_alt    "P 1"
_space_group_IT_number       1

loop_
  _space_group_symop_operation_xyz
  'x, y, z'

loop_
  _atom_site_type_symbol
  _atom_site_label
  _atom_site_symmetry_multiplicity
  _atom_site_fract_x
  _atom_site_fract_y
  _atom_site_fract_z
  _atom_site_occupancy
  Zn  Zn1       1.0  0.09984691188208218  0.35807330815251254  0.8215614746302151  1.0000
  Zn  Zn2       1.0  0.43380907600110413  0.1784796443226426  0.5364763503995816  1.0000
  Zn  Zn3       1.0  0.7669895954561954  0.4633394861592065  0.6420905007954615  1.0000
  H   H1        1.0  0.6278907630414706  0.415343450597085  0.003309327429505521  1.0000
  H   H2        1.0  0.9618563546599362  0.9970743814759756  0.41233403146342346  1.0000
  H   H3        1.0  0.2953021494370489  0.5875676320051967  0.5848793429749578  1.0000
  H   H4        1.0  0.7893684254396334  0.584365961708997  0.1971780397339488  1.0000
  H   H5        1.0  0.12317295454955972  0.8032416684104506  0.3874135707639186  1.0000
  H   H6        1.0  0.4564287615658315  0.6126713910346452  0.41591894908621896  1.0000
  H   H7        1.0  0.6440655908517741  0.6531133171954479  0.12484483734382935  1.0000
  H   H8        1.0  0.9778922957122518  0.8756419133313644  0.528612439197609  1.0000
  H   H9        1.0  0.31136348948400894  0.471470712509074  0.3470504761137079  1.0000
  H   H10       1.0  0.9049314032737286  0.6459073652275222  0.10751265763361323  1.0000
  H   H11       1.0  0.23866313431189923  0.8927638847954854  0.5386921044652057  1.0000
  H   H12       1.0  0.5721284832154439  0.46144022465980333  0.3540019901021481  1.0000
  H   H13       1.0  0.8678596363528542  0.36382934572857556  0.12172616508234317  1.0000
  H   H14       1.0  0.20168142991893487  0.8785162324635607  0.24225201421960918  1.0000
  H   H15       1.0  0.5352000918061393  0.7574845001901451  0.6361762302976288  1.0000
  H   H16       1.0  0.6103875213928944  0.17585452972595314  0.9210606653482285  1.0000
  H   H17       1.0  0.9438605558407857  0.078614420188245  0.25375522421150976  1.0000
  H   H18       1.0  0.2773082915814912  0.7455339215790745  0.8243671617365962  1.0000
  H   H19       1.0  0.613581839612337  0.11137738441463088  0.0838832131468621  1.0000
  H   H20       1.0  0.9464643409449492  0.9158860286035733  0.026412116037356388  1.0000
  H   H21       1.0  0.2803221029678938  0.9727015097999044  0.8887724490269234  1.0000
  H   H22       1.0  0.32329421386472035  0.15659945875058406  0.2266822422092929  1.0000
  H   H23       1.0  0.6561406909732527  0.7732824622017418  0.929236729645389  1.0000
  H   H24       1.0  0.9898968178497825  0.07011130082412362  0.843714890263989  1.0000
  H   H25       1.0  0.03234179798397461  0.2650815487359992  0.20295211149646517  1.0000
  H   H26       1.0  0.36559745237065044  0.7971687874381959  0.06205056689634616  1.0000
  H   H27       1.0  0.699171741734638  0.9376011874887739  0.7351660509146285  1.0000
  H   H28       1.0  0.1357577623787662  0.5537194826865814  0.7941134114381326  1.0000
  H   H29       1.0  0.46905954061864447  0.20627495485024383  0.7597928343859407  1.0000
  H   H30       1.0  0.8028957634955063  0.24012661100888263  0.4462437591888316  1.0000
  H   H31       1.0  0.3435106411500612  0.5374379949471831  0.8562919160426077  1.0000
  H   H32       1.0  0.6770817445230294  0.14414781802050666  0.6814979732284526  1.0000
  H   H33       1.0  0.010916295546429899  0.31844607993586743  0.46266348437316646  1.0000
  C   C1        1.0  0.710516645884354  0.4799740868578511  0.8780327796604936  1.0000
  C   C2        1.0  0.04435896711115111  0.12233966450231291  0.6022051097944967  1.0000
  C   C3        1.0  0.3779093315013498  0.39771230963199866  0.5200487148341253  1.0000
  C   C4        1.0  0.7561413348042052  0.46569013664604597  0.9936245912513894  1.0000
  C   C5        1.0  0.09011968452901441  0.0066989192742994  0.472316757296852  1.0000
  C   C6        1.0  0.42357467507165586  0.5275960542342233  0.5343779224142082  1.0000
  C   C7        1.0  0.7747179149878177  0.5958086268075179  0.11377402049046748  1.0000
  C   C8        1.0  0.10859509444826192  0.8866253954108028  0.48231954103628255  1.0000
  C   C9        1.0  0.44198750180139973  0.517770804479504  0.4043150912196722  1.0000
  C   C10       1.0  0.9764539611682891  0.34852795035401135  0.04808111850225325  1.0000
  C   C11       1.0  0.31034562854792813  0.9520665865956989  0.30045260978333505  1.0000
  C   C12       1.0  0.6437832409413532  0.6992528574590651  0.6515194644646698  1.0000
  C   C13       1.0  0.15260780567994198  0.28318199551530654  0.04886064558056096  1.0000
  C   C14       1.0  0.4863016349926781  0.951183588851258  0.23404102870538432  1.0000
  C   C15       1.0  0.8197560887791013  0.7655617268695778  0.716931590542991  1.0000
  C   C16       1.0  0.3196168590263397  0.2579672298591973  0.9666665962767238  1.0000
  C   C17       1.0  0.6533085667199572  0.0332860368929602  0.2908083828336885  1.0000
  C   C18       1.0  0.9866976646103466  0.708711169341214  0.7421584211671471  1.0000
  C   C19       1.0  0.4838531039595395  0.19593084608069944  0.9835215625958111  1.0000
  C   C20       1.0  0.8172537905538633  0.016285845443228204  0.2115779144477941  1.0000
  C   C21       1.0  0.15081404939095217  0.7877236630375466  0.8041630520865868  1.0000
  C   C22       1.0  0.48478410533573413  0.1595044403257759  0.07455718883581852  1.0000
  C   C23       1.0  0.8178199866542074  0.9252670910998546  0.08407467218209781  1.0000
  C   C24       1.0  0.15165533474089438  0.9151558685301924  0.8405765472099276  1.0000
  C   C25       1.0  0.32119036973061543  0.18304944200020398  0.15385024823493154  1.0000
  C   C26       1.0  0.6541738180691397  0.8461156064518464  0.028555863242069005  1.0000
  C   C27       1.0  0.9880205503066647  0.9708213645282413  0.8171485816088121  1.0000
  C   C28       1.0  0.15935493972598644  0.24414390201866357  0.14041945032201403  1.0000
  C   C29       1.0  0.49261279402001895  0.8596371949883875  0.10338183516566363  1.0000
  C   C30       1.0  0.8263050947257541  0.8961583476176571  0.7560454021815274  1.0000
  N   N1        1.0  0.9356054313355671  0.3908362186395067  0.9720578357784645  1.0000
  N   N2        1.0  0.269642635909662  0.0280885078787207  0.4188778850807464  1.0000
  N   N3        1.0  0.6030217823772972  0.5809103023254635  0.6091816164015426  1.0000
  O   O1        1.0  0.8145126501863231  0.4130132177782855  0.7764659025246061  1.0000
  O   O2        1.0  0.14825212708861094  0.22382190332054114  0.6367376149294586  1.0000
  O   O3        1.0  0.4817511497558797  0.3631835206213693  0.5870309151509829  1.0000
  O   O4        1.0  0.5787651184646662  0.5546787409977227  0.8857297043375637  1.0000
  O   O5        1.0  0.9124208059163267  0.11476990487419411  0.6692882948629303  1.0000
  O   O6        1.0  0.2462049504784858  0.33063184204328167  0.44532590412467954  1.0000
  O   O7        1.0  0.3282534767003966  0.29022670010816404  0.8783531068138755  1.0000
  O   O8        1.0  0.6621106000062015  0.12159486791725979  0.411415409487418  1.0000
  O   O9        1.0  0.9952689061684907  0.5882124169869909  0.7100584623722169  1.0000
  O   O10       1.0  0.19778621805559737  0.5264832909622186  0.85222767203026  1.0000
  O   O11       1.0  0.531369837684025  0.1480575382543705  0.6744698797544685  1.0000
  O   O12       1.0  0.8652041378137554  0.325457933050501  0.4736992870934458  1.0000
