data_image0
_chemical_formula_structural       Sr2H26C22N2O16F8
_chemical_formula_sum              "Sr2 H26 C22 N2 O16 F8"
_cell_length_a       8.838336896544712
_cell_length_b       8.891065414225483
_cell_length_c       10.783600523955391
_cell_angle_alpha    93.6925352081596
_cell_angle_beta     94.14028438572291
_cell_angle_gamma    101.175801470074

_space_group_name_H-M_alt    "P 1"
_space_group_IT_number       1

loop_
  _space_group_symop_operation_xyz
  'x, y, z'

loop_
  _atom_site_type_symbol
  _atom_site_label
  _atom_site_symmetry_multiplicity
  _atom_site_fract_x
  _atom_site_fract_y
  _atom_site_fract_z
  _atom_site_occupancy
  Sr  Sr1       1.0  0.41771981397553765  0.27344316612164493  0.5760393423385537  1.0000
  Sr  Sr2       1.0  0.5822823581235427  0.7265582936269157  0.42396209790381084  1.0000
  H   H1        1.0  0.27372023003761836  0.4101772603919683  0.3492755187772545  1.0000
  H   H2        1.0  0.7262842070317604  0.5898241920054375  0.6507251239654579  1.0000
  H   H3        1.0  0.1449313207097305  0.2677982962115379  0.3703793950897918  1.0000
  H   H4        1.0  0.8550742511813424  0.7322031583337106  0.6296213129928461  1.0000
  H   H5        1.0  0.27069716382946035  0.9287822311153205  0.551389118112148  1.0000
  H   H6        1.0  0.7293047702402118  0.0712180552381128  0.44861040055579343  1.0000
  H   H7        1.0  0.1698884301208281  0.9680251310702203  0.4397305352760696  1.0000
  H   H8        1.0  0.8301160022754671  0.031976309680359805  0.5602691792871184  1.0000
  H   H9        1.0  0.6455643672306123  0.10893655810200191  0.7026606177757841  1.0000
  H   H10       1.0  0.35443780019538457  0.8910648899997325  0.2973398942870631  1.0000
  H   H11       1.0  0.49922961935233445  0.9695715296943062  0.671724291759439  1.0000
  H   H12       1.0  0.5007725480736626  0.03042991840742809  0.3282762203034082  1.0000
  H   H13       1.0  0.15671847633637978  0.1636736200842677  0.8852633249716746  1.0000
  H   H14       1.0  0.8432762148020672  0.8363244114133721  0.1147403121234731  1.0000
  H   H15       1.0  0.2162447997369128  0.0819819999540101  0.0616059871844641  1.0000
  H   H16       1.0  0.7837544260152213  0.9180160284881538  0.9383969830908753  1.0000
  H   H17       1.0  0.35177187751922656  0.2200674667800868  0.1618392368361299  1.0000
  H   H18       1.0  0.6482286977185937  0.7799316789708824  0.8381610794560003  1.0000
  H   H19       1.0  0.41076047388935427  0.0572621019540875  0.0894441008080875  1.0000
  H   H20       1.0  0.5892398726652175  0.9427358936954209  0.91055615026864  1.0000
  H   H21       1.0  0.57275128787451  0.3820002568740933  0.05589994716331149  1.0000
  H   H22       1.0  0.4272454161855705  0.6179965589367741  0.9440981863192093  1.0000
  H   H23       1.0  0.5462709163801733  0.3811264263733848  0.8893411705339034  1.0000
  H   H24       1.0  0.4537246528582202  0.6188703872896467  0.11065689760868481  1.0000
  H   H25       1.0  0.6144548443255501  0.2272767404820613  0.9576488949931702  1.0000
  H   H26       1.0  0.3855407202397529  0.7727200615341374  0.04234824496990092  1.0000
  C   C1        1.0  0.3400623646190155  0.6657524242076391  0.62173460944814  1.0000
  C   C2        1.0  0.6599363843226483  0.33424898251008267  0.3782629220563792  1.0000
  C   C3        1.0  0.2733622575554122  0.23008954618793354  0.873227179576297  1.0000
  C   C4        1.0  0.7266317241678806  0.7699049767711657  0.12677162097508446  1.0000
  C   C5        1.0  0.2032660339547974  0.6381661460533506  0.6990318898534298  1.0000
  C   C6        1.0  0.7967336351445694  0.36183414765124416  0.3009684263141708  1.0000
  C   C7        1.0  0.33728242004289655  0.14242614913733584  0.0763414220721188  1.0000
  C   C8        1.0  0.662716572352913  0.8575707175565342  0.9236605548083077  1.0000
  C   C9        1.0  0.1893709854997709  0.7418021591690193  0.798762581918389  1.0000
  C   C10       1.0  0.8106263999369503  0.25819809529939863  0.2012348190308089  1.0000
  C   C11       1.0  0.5372234659387657  0.3095056536084755  0.9682140029636486  1.0000
  C   C12       1.0  0.46277073979469213  0.6904900078052519  0.0317839346236184  1.0000
  C   C13       1.0  0.06967259758219062  0.7125401475074185  0.8765338971729976  1.0000
  C   C14       1.0  0.9303284350221118  0.2874612984464733  0.12346654954992431  1.0000
  C   C15       1.0  0.9562877462042536  0.5799067669709358  0.8503903770886296  1.0000
  C   C16       1.0  0.04371556071652089  0.42009469492546714  0.1496111284936603  1.0000
  C   C17       1.0  0.9592373325316714  0.4755215136228231  0.7489262924651926  1.0000
  C   C18       1.0  0.04076347606247308  0.5244787938764403  0.2510750172218508  1.0000
  C   C19       1.0  0.8195637748027239  0.34750778824614775  0.709776667055266  1.0000
  C   C20       1.0  0.1804395274449675  0.6524936620034224  0.29022391034751394  1.0000
  C   C21       1.0  0.08570643190602573  0.5063257036937543  0.6783002009321777  1.0000
  C   C22       1.0  0.9142927837482944  0.49367802652055565  0.3216993173621674  1.0000
  N   N1        1.0  0.37801558785530176  0.22796458011358572  0.9689629059987085  1.0000
  N   N2        1.0  0.6219783985410742  0.7720299544923463  0.031036822732183108  1.0000
  O   O1        1.0  0.40469320369652445  0.5553161869181478  0.5946535785882503  1.0000
  O   O2        1.0  0.5953073988281475  0.44468875377962286  0.40535071115898796  1.0000
  O   O3        1.0  0.2996075127724538  0.30071214574585525  0.7780253672620958  1.0000
  O   O4        1.0  0.7003853388022351  0.699282386712234  0.2219742961288702  1.0000
  O   O5        1.0  0.2562457868550467  0.29936247548505435  0.3680179399929244  1.0000
  O   O6        1.0  0.7437584215310907  0.7006378268108902  0.6319826375343851  1.0000
  O   O7        1.0  0.3850326641006562  0.8007190587155862  0.5869221077586175  1.0000
  O   O8        1.0  0.6149692699690092  0.19928122763785439  0.4130774109093238  1.0000
  O   O9        1.0  0.22021617096937263  0.012085692055379101  0.5211792933656909  1.0000
  O   O10       1.0  0.7797846282785984  0.9879145921502189  0.4788201599623179  1.0000
  O   O11       1.0  0.6975775870387365  0.3971741605595085  0.6770170845228876  1.0000
  O   O12       1.0  0.3024257245551212  0.6028273129837273  0.3229853492389196  1.0000
  O   O13       1.0  0.5307460041287725  0.07891144801519802  0.7006280510222284  1.0000
  O   O14       1.0  0.46925593461397597  0.9210888499850753  0.2993723958252232  1.0000
  O   O15       1.0  0.8341543055676796  0.21007338332569248  0.7126713182126779  1.0000
  O   O16       1.0  0.1658489920069286  0.7899280552770449  0.2873283310105847  1.0000
  F   F1        1.0  0.29622221161437073  0.8728761450252377  0.8262602163571701  1.0000
  F   F2        1.0  0.7037744916940626  0.12712639585144103  0.17373632150337673  1.0000
  F   F3        1.0  0.06412744078812692  0.8123411985437271  0.9756130319167013  1.0000
  F   F4        1.0  0.9358740445095748  0.18766253596625407  0.02438661705750181  1.0000
  F   F5        1.0  0.8391285775887524  0.5548435308495812  0.9255644511543933  1.0000
  F   F6        1.0  0.16087677496524583  0.4451567968878649  0.07443804807186892  1.0000
  F   F7        1.0  0.08873527622042592  0.4066003486573068  0.5779790220666714  1.0000
  F   F8        1.0  0.9112643874542028  0.593405658466267  0.4220187702994381  1.0000
