data_image0
_chemical_formula_structural       Zr6H13C52S10O32F7
_chemical_formula_sum              "Zr6 H13 C52 S10 O32 F7"
_cell_length_a       16.453744612837575
_cell_length_b       16.450451585066066
_cell_length_c       16.512845538906003
_cell_angle_alpha    61.85036498836184
_cell_angle_beta     59.858369011705385
_cell_angle_gamma    60.24800278971816

_space_group_name_H-M_alt    "P 1"
_space_group_IT_number       1

loop_
  _space_group_symop_operation_xyz
  'x, y, z'

loop_
  _atom_site_type_symbol
  _atom_site_label
  _atom_site_symmetry_multiplicity
  _atom_site_fract_x
  _atom_site_fract_y
  _atom_site_fract_z
  _atom_site_occupancy
  Zr  Zr1       1.0  0.8878751597458102  0.9025069825945949  0.5975955641108185  1.0000
  Zr  Zr2       1.0  0.11158531842949053  0.10176467848021528  0.39842671041113686  1.0000
  Zr  Zr3       1.0  0.10233105589762155  0.8932042460936246  0.6071990785646831  1.0000
  Zr  Zr4       1.0  0.8971902837868484  0.11099894614333261  0.38951332470544026  1.0000
  Zr  Zr5       1.0  0.10898694704011533  0.8926847163102847  0.38910553186209995  1.0000
  Zr  Zr6       1.0  0.8903974199834294  0.11106523273572562  0.6077288383451175  1.0000
  H   H1        1.0  0.07789820012112586  0.7523551549334115  0.5767507148612906  1.0000
  H   H2        1.0  0.09258681637751202  0.08066248711006099  0.24845355076404016  1.0000
  H   H3        1.0  0.08297814675749746  0.08135277846216127  0.5901799689489666  1.0000
  H   H4        1.0  0.7447897327172938  0.09396659130591443  0.5776293976227722  1.0000
  H   H5        1.0  0.12566044500317725  0.6109688929623188  0.3620468731254434  1.0000
  H   H6        1.0  0.6099790425278255  0.12700340113844516  0.8994950383137166  1.0000
  H   H7        1.0  0.8684931506207575  0.12557010252734094  0.11725903234516705  1.0000
  H   H8        1.0  0.6226641623806797  0.3944705504301425  0.3641324133581633  1.0000
  H   H9        1.0  0.10225075051931724  0.6356112829254952  0.8713458510297869  1.0000
  H   H10       1.0  0.8412198923416124  0.6545437155960341  0.851869830333122  1.0000
  H   H11       1.0  0.8902342723376363  0.37546881826425943  0.13133576540531783  1.0000
  H   H12       1.0  0.1515014634091685  0.3559584038319769  0.15068472549274495  1.0000
  H   H13       1.0  0.6213011085651413  0.8761147232681238  0.6108821891676612  1.0000
  C   C1        1.0  0.9942794993195819  0.7385952329184844  0.4846742921157199  1.0000
  C   C2        1.0  0.28173484129327153  0.9877520841179572  0.2351577038025496  1.0000
  C   C3        1.0  0.9973394246351857  0.2720592028452416  0.5052130523712535  1.0000
  C   C4        1.0  0.7244857725537983  0.008266180885407008  0.7684325115160888  1.0000
  C   C5        1.0  0.9810853394091408  0.7405327985080917  0.765540778586953  1.0000
  C   C6        1.0  0.7311188813557548  0.0063083554998044295  0.48633713599851797  1.0000
  C   C7        1.0  0.011918811533291874  0.2696621120925257  0.23649037323136918  1.0000
  C   C8        1.0  0.27562471620583984  0.9909431775371971  0.5015131699428538  1.0000
  C   C9        1.0  0.27265344388384694  0.7301661754183612  0.4960531892829538  1.0000
  C   C10       1.0  0.9903874470723721  0.997147701240678  0.7775709623182366  1.0000
  C   C11       1.0  0.7339487527687464  0.2810975362477776  0.4939239698397202  1.0000
  C   C12       1.0  0.0004909116397227689  0.9995284358610447  0.22653966579327545  1.0000
  C   C13       1.0  0.9270317149189818  0.42255193539409663  0.5627934027719376  1.0000
  C   C14       1.0  0.06192830309428381  0.5922060230345138  0.4236002225021026  1.0000
  C   C15       1.0  0.9949833119875892  0.3638099048819398  0.5013730282187226  1.0000
  C   C16       1.0  0.9935575225966601  0.6489103222473174  0.48642227861070336  1.0000
  C   C17       1.0  0.0369431322767823  0.5097393627685988  0.4516786187476924  1.0000
  C   C18       1.0  0.9497919249771056  0.5060126897814141  0.5355870812226655  1.0000
  C   C19       1.0  0.42315008152976913  0.9267382246891387  0.08774703534172086  1.0000
  C   C20       1.0  0.5891987016619211  0.06527846150688522  0.9185224558191366  1.0000
  C   C21       1.0  0.37074884952389175  0.9882396731571887  0.14640707566344696  1.0000
  C   C22       1.0  0.6391596490745144  0.0034293679080903104  0.8609533572379462  1.0000
  C   C23       1.0  0.5104332879386817  0.036690216187423574  0.0016138217942298846  1.0000
  C   C24       1.0  0.5029092662774627  0.9532844834173346  0.004919517401667325  1.0000
  C   C25       1.0  0.05679149015433862  0.9301967799071061  0.9167593010887388  1.0000
  C   C26       1.0  0.9294680205585094  0.06333157298503517  0.09274511957551113  1.0000
  C   C27       1.0  0.9902025865877772  0.9958607089080826  0.8670927140730383  1.0000
  C   C28       1.0  0.9976271075313715  0.9971663698673722  0.1400035444032923  1.0000
  C   C29       1.0  0.9512547023211652  0.038344178915479955  0.011355175714939431  1.0000
  C   C30       1.0  0.03583299981124114  0.9532612459122799  0.9989135051332597  1.0000
  C   C31       1.0  0.4147412046657377  0.5945769165626728  0.5598061118399257  1.0000
  C   C32       1.0  0.5971411205649984  0.41915212161826787  0.4261819636060623  1.0000
  C   C33       1.0  0.3640534896620832  0.6440534915034988  0.4942361830533883  1.0000
  C   C34       1.0  0.6455410463537844  0.37096052523897055  0.49318267598405185  1.0000
  C   C35       1.0  0.5129898637889238  0.5010055304326642  0.45069818863939304  1.0000
  C   C36       1.0  0.49960328277478533  0.513019017750544  0.5362068945511638  1.0000
  C   C37       1.0  0.04270242121042873  0.6072597015169446  0.8996786580319309  1.0000
  C   C38       1.0  0.8949984071828322  0.6178436012506762  0.8888132736198814  1.0000
  C   C39       1.0  0.8888739687391405  0.5370904935286662  0.96920135120984  1.0000
  C   C40       1.0  0.9570029540606199  0.4866825205377905  0.019955470170970106  1.0000
  C   C41       1.0  0.949752404862323  0.4038120962554855  0.10308638386771207  1.0000
  C   C42       1.0  0.09752042319129124  0.3929303694717277  0.11392563535699199  1.0000
  C   C43       1.0  0.10408248587509644  0.4733566039671615  0.03313088539982085  1.0000
  C   C44       1.0  0.03568943863145755  0.524122308921001  0.9825889107657771  1.0000
  C   C45       1.0  0.9733707088282129  0.6531923914528192  0.8538826828715501  1.0000
  C   C46       1.0  0.018800783164870306  0.3579708260377005  0.1491796183675334  1.0000
  C   C47       1.0  0.41739242343117405  0.05665431595799932  0.43084227564736477  1.0000
  C   C48       1.0  0.5962203012153183  0.9350905675454796  0.5516373930449846  1.0000
  C   C49       1.0  0.36673033070209704  0.9906521967742633  0.4972676505467247  1.0000
  C   C50       1.0  0.6441594457615947  0.0028117085835716016  0.4853440246345926  1.0000
  C   C51       1.0  0.5135398141745211  0.9547518219804942  0.5312168208294351  1.0000
  C   C52       1.0  0.5010677093303215  0.03736076983128089  0.4491796621187731  1.0000
  S   S1        1.0  0.08869028324669855  0.41139215970530774  0.4081593254568929  1.0000
  S   S2        1.0  0.8984867843135685  0.6034356629698435  0.5797559324589016  1.0000
  S   S3        1.0  0.420043373799693  0.08033238548200208  0.09988678402049797  1.0000
  S   S4        1.0  0.5920321854610435  0.9100057751689332  0.9066761078621967  1.0000
  S   S5        1.0  0.8996759004433768  0.0879191622998403  0.9222611530327639  1.0000
  S   S6        1.0  0.08834176428097583  0.9039720204925104  0.08676156906939533  1.0000
  S   S7        1.0  0.42177093787629616  0.5899150802816917  0.4012049130009672  1.0000
  S   S8        1.0  0.5899453810779959  0.4244084974407655  0.5862153274322139  1.0000
  S   S9        1.0  0.4228344719021775  0.9026718908319181  0.5836933510736698  1.0000
  S   S10       1.0  0.5903068242360874  0.09057447668484292  0.397364072148342  1.0000
  O   O1        1.0  0.9227857309882094  0.7767194912873023  0.5525058482427454  1.0000
  O   O2        1.0  0.24725596169082556  0.05633121736556027  0.27233721021239893  1.0000
  O   O3        1.0  0.07033471875073617  0.2331723348787094  0.43842562203239055  1.0000
  O   O4        1.0  0.7571196492283572  0.942249130858762  0.7286534167466099  1.0000
  O   O5        1.0  0.0525451477713614  0.7706973002442224  0.7345756502452261  1.0000
  O   O6        1.0  0.76609601745303  0.07455620559296243  0.4204909988893419  1.0000
  O   O7        1.0  0.9410968526993598  0.23876869376707055  0.2666422630978785  1.0000
  O   O8        1.0  0.2388346308440673  0.9247733080798426  0.5699655509427541  1.0000
  O   O9        1.0  0.2397784651412064  0.7624210555240366  0.42689069503103383  1.0000
  O   O10       1.0  0.9225661250530238  0.06798597638980633  0.7434393108477408  1.0000
  O   O11       1.0  0.7651837192061206  0.2462395065711078  0.5646844842535544  1.0000
  O   O12       1.0  0.0695782072539968  0.930442141569948  0.2595856008220635  1.0000
  O   O13       1.0  0.05936443710948682  0.9281795124558909  0.7401350768894445  1.0000
  O   O14       1.0  0.7709186809723858  0.24454323463518066  0.42433232318656877  1.0000
  O   O15       1.0  0.9340283680984383  0.07147760300544777  0.2605802643140861  1.0000
  O   O16       1.0  0.23260258000049544  0.7652088522272038  0.5673525400396572  1.0000
  O   O17       1.0  0.9151641878006199  0.7776681709980975  0.7265332973892812  1.0000
  O   O18       1.0  0.23955421056118098  0.05992901021201649  0.43569510631704844  1.0000
  O   O19       1.0  0.07959436511109881  0.23058792797142053  0.2736606760765384  1.0000
  O   O20       1.0  0.7633062821395593  0.9400250702794608  0.5556011021274045  1.0000
  O   O21       1.0  0.758134437752517  0.07744907051110766  0.7351326341026834  1.0000
  O   O22       1.0  0.06615457601574788  0.7696607467735176  0.41797593994350996  1.0000
  O   O23       1.0  0.24470689115616995  0.9214263057117122  0.26691837424388604  1.0000
  O   O24       1.0  0.9281808121607326  0.2379877487310863  0.5741282083348267  1.0000
  O   O25       1.0  0.8172171143676578  0.06873779726812768  0.5545587062389359  1.0000
  O   O26       1.0  0.058771997287905664  0.05836460813945622  0.5649449736690215  1.0000
  O   O27       1.0  0.06629073083087883  0.057884800702957755  0.3194705590920393  1.0000
  O   O28       1.0  0.05557588128906569  0.8233754066436347  0.5538835524930193  1.0000
  O   O29       1.0  0.13358687914436007  0.9528652054131186  0.4567843468298776  1.0000
  O   O30       1.0  0.9559805503471278  0.9606497086388543  0.44870591449130615  1.0000
  O   O31       1.0  0.9578721734793799  0.1339241416795787  0.4573096351626376  1.0000
  O   O32       1.0  0.9502570117855169  0.9609945810773793  0.6300747560384606  1.0000
  F   F1        1.0  0.8474322511535701  0.4033451405553022  0.640831959756248  1.0000
  F   F2        1.0  0.40111438105454045  0.8499077159904401  0.10585076678982105  1.0000
  F   F3        1.0  0.13454904651371186  0.8523414788863659  0.8905011714542964  1.0000
  F   F4        1.0  0.3872925776294806  0.6198265402080949  0.6386724935699702  1.0000
  F   F5        1.0  0.390978239700928  0.13242857240089728  0.3564172117872318  1.0000
  F   F6        1.0  0.1795261247102926  0.5073192321156981  0.9984784857393694  1.0000
  F   F7        1.0  0.8140793770254077  0.5022713209442242  0.003297648095454387  1.0000
