data_image0
_chemical_formula_structural       Cd2H32C32N36
_chemical_formula_sum              "Cd2 H32 C32 N36"
_cell_length_a       8.63041081100427
_cell_length_b       8.770482942965845
_cell_length_c       15.004512172126732
_cell_angle_alpha    92.2737247971308
_cell_angle_beta     90.00011081589982
_cell_angle_gamma    89.99996889910462

_space_group_name_H-M_alt    "P 1"
_space_group_IT_number       1

loop_
  _space_group_symop_operation_xyz
  'x, y, z'

loop_
  _atom_site_type_symbol
  _atom_site_label
  _atom_site_symmetry_multiplicity
  _atom_site_fract_x
  _atom_site_fract_y
  _atom_site_fract_z
  _atom_site_occupancy
  Cd  Cd1       1.0  1.1586906083e-06  2.277855713800147e-06  0.9999987173754121  1.0000
  Cd  Cd2       1.0  0.49999891807415525  0.49999622154405177  0.5000018260760939  1.0000
  H   H1        1.0  0.064844295666262  0.39032518936944177  0.953461697534877  1.0000
  H   H2        1.0  0.5648442210239892  0.1096739072147486  0.5465385726986726  1.0000
  H   H3        1.0  0.9351558578610624  0.6096763716113217  0.0465388236627078  1.0000
  H   H4        1.0  0.4351559325044221  0.8903230894283566  0.45346184768934  1.0000
  H   H5        1.0  0.26571063906811093  0.14531438542602607  0.1596781576075514  1.0000
  H   H6        1.0  0.7657102588404785  0.354686271782846  0.3403220624163623  1.0000
  H   H7        1.0  0.7342906731537227  0.8546871777108934  0.8403230301056726  1.0000
  H   H8        1.0  0.23428873599287672  0.645313004872925  0.6596777418607902  1.0000
  H   H9        1.0  0.6130778131179754  0.06645655895933088  0.9331921813389172  1.0000
  H   H10       1.0  0.11307772214343001  0.4335425111288629  0.5668068089943077  1.0000
  H   H11       1.0  0.38692118171371004  0.93354499770885  0.0668070068280215  1.0000
  H   H12       1.0  0.8869212726882196  0.566454479045241  0.43319161184805216  1.0000
  H   H13       1.0  0.8327206768610297  0.28954165703849805  0.1530008763259119  1.0000
  H   H14       1.0  0.33272049254254915  0.2104578282672236  0.3469993923079358  1.0000
  H   H15       1.0  0.16728063535914123  0.7104621861108242  0.8469996952770913  1.0000
  H   H16       1.0  0.667280819679796  0.7895368862067828  0.6530009776759371  1.0000
  H   H17       1.0  0.42339844389003634  0.35341193282992117  0.23066850735995104  1.0000
  H   H18       1.0  0.9233979395673871  0.1465875107721217  0.2693318611561679  1.0000
  H   H19       1.0  0.5766040270265905  0.6465884913787434  0.7693333216665226  1.0000
  H   H20       1.0  0.07660337265078002  0.8534106204858602  0.7306665848898674  1.0000
  H   H21       1.0  0.3662307430562777  0.5445454203165242  0.21077046268081293  1.0000
  H   H22       1.0  0.8662301354480705  0.9554552070379144  0.2892281584065444  1.0000
  H   H23       1.0  0.633769410469924  0.455456138507813  0.789229392001765  1.0000
  H   H24       1.0  0.1337711767687111  0.04454406314805941  0.7107696463268739  1.0000
  H   H25       1.0  0.5412106026792644  0.5502869509951508  0.0788875103566866  1.0000
  H   H26       1.0  0.04121053578963799  0.9497115479837037  0.42111203534332026  1.0000
  H   H27       1.0  0.4587895508494456  0.4497134710576205  0.9211136521535012  1.0000
  H   H28       1.0  0.9587884590394965  0.050286578961959115  0.5788850776714297  1.0000
  H   H29       1.0  0.6450459299890738  0.5051810577296011  0.1770077051504444  1.0000
  H   H30       1.0  0.14504319083413014  0.994818536735643  0.32299264664111155  1.0000
  H   H31       1.0  0.3549553822327597  0.49482050540731837  0.8229934825627725  1.0000
  H   H32       1.0  0.8549546453061013  0.0051795988359871  0.6770071324330118  1.0000
  C   C1        1.0  0.13351384114538692  0.3610322072253993  0.0107877837973902  1.0000
  C   C2        1.0  0.6335152392749848  0.1389673718539157  0.48921293192404397  1.0000
  C   C3        1.0  0.8664863123841756  0.6389693580682092  0.9892140704302009  1.0000
  C   C4        1.0  0.36648607294318947  0.8610307594040663  0.5107855141219844  1.0000
  C   C5        1.0  0.23058938381791455  0.23328646623578925  0.11476913033627771  1.0000
  C   C6        1.0  0.730589203119159  0.266713066041298  0.3852310257989516  1.0000
  C   C7        1.0  0.7694107697096798  0.766713953660556  0.8852313656589105  1.0000
  C   C8        1.0  0.2694109504067441  0.7332850673733731  0.6147680867614513  1.0000
  C   C9        1.0  0.6380094921196717  0.14414465799273304  0.9894643948179791  1.0000
  C   C10       1.0  0.1380092546905587  0.3558532638575543  0.5105359308052684  1.0000
  C   C11       1.0  0.3619895027142519  0.8558569029882931  0.010536126378958996  1.0000
  C   C12       1.0  0.8619885814502127  0.644142589545247  0.48946379786407596  1.0000
  C   C13       1.0  0.7519260673999568  0.2525957194402649  0.1007188867279893  1.0000
  C   C14       1.0  0.2519271972623329  0.2474060851923667  0.39928134331530163  1.0000
  C   C15       1.0  0.24807408612821297  0.7474069847813354  0.8992823261869844  1.0000
  C   C16       1.0  0.7480741149578095  0.7525931914628785  0.6007184609631295  1.0000
  C   C17       1.0  0.406092089812809  0.43680447940775485  0.1791996094452699  1.0000
  C   C18       1.0  0.9060929632512541  0.06319496999693537  0.3208000734934871  1.0000
  C   C19       1.0  0.5939092224092947  0.5631959426447465  0.8208015530655645  1.0000
  C   C20       1.0  0.09390950765892112  0.9368043001887686  0.6791977312405707  1.0000
  C   C21       1.0  0.5572064732526486  0.46381531791118386  0.1290940922173647  1.0000
  C   C22       1.0  0.057207624075047606  0.03618543734724259  0.37090656465301214  1.0000
  C   C23       1.0  0.4427925215832502  0.5361873884671056  0.8709077872119764  1.0000
  C   C24       1.0  0.9427925294505786  0.9638138371518397  0.6290925731097728  1.0000
  C   C25       1.0  0.06828884576469821  0.794234817067604  0.18474912161961046  1.0000
  C   C26       1.0  0.5682884632825279  0.7057625369990034  0.3152530947647918  1.0000
  C   C27       1.0  0.9317101490633846  0.2057724407098007  0.8152488595292697  1.0000
  C   C28       1.0  0.4317082141782295  0.2942242092929845  0.6847530974348148  1.0000
  C   C29       1.0  0.013933543350319202  0.5623406146376269  0.243930832795904  1.0000
  C   C30       1.0  0.5139328340189522  0.937660183368088  0.2560700662925868  1.0000
  C   C31       1.0  0.9860619754031177  0.43765752093453597  0.7560689462769404  1.0000
  C   C32       1.0  0.4860603673474914  0.06234822627718021  0.743931272630519  1.0000
  N   N1        1.0  0.28449177082889326  0.3769120544901696  0.12063518669452832  1.0000
  N   N2        1.0  0.7844916495495583  0.12308745515299785  0.3793656953297386  1.0000
  N   N3        1.0  0.7155107000860639  0.623090649730898  0.8793660262217247  1.0000
  N   N4        1.0  0.2155085039766078  0.8769095371772622  0.6206333920282674  1.0000
  N   N5        1.0  0.22375524646913905  0.46089910610600526  0.054717053026301705  1.0000
  N   N6        1.0  0.7237542344887444  0.0391004250015214  0.4452817625505859  1.0000
  N   N7        1.0  0.7762437483645144  0.539103595959432  0.9452834933730331  1.0000
  N   N8        1.0  0.276243601648396  0.9608965630164192  0.5547159917761348  1.0000
  N   N9        1.0  0.13366804477249164  0.2196340465769637  0.0455408218194577  1.0000
  N   N10       1.0  0.6336680893972044  0.28036667351615563  0.4544599192734823  1.0000
  N   N11       1.0  0.8663321087554082  0.7803697987290475  0.9544604162979128  1.0000
  N   N12       1.0  0.36633206412896874  0.7196303188140973  0.545539168084524  1.0000
  N   N13       1.0  0.6183541635186388  0.3258461254980318  0.0849331841270597  1.0000
  N   N14       1.0  0.11835306945629755  0.174154601638385  0.41506754009685665  1.0000
  N   N15       1.0  0.38164599000925403  0.6741577198079866  0.9150680539903037  1.0000
  N   N16       1.0  0.8816459253773276  0.825843533932975  0.5849322389779061  1.0000
  N   N17       1.0  0.5439520419169952  0.2581717627455618  0.013584017901962401  1.0000
  N   N18       1.0  0.04395115053975471  0.24182785536836351  0.4864159326500045  1.0000
  N   N19       1.0  0.45604811161117453  0.7418309414760387  0.9864171950130114  1.0000
  N   N20       1.0  0.9560478442930179  0.7581691369621594  0.5135831547073622  1.0000
  N   N21       1.0  0.7676807536191319  0.13594343088170288  0.04125015091486971  1.0000
  N   N22       1.0  0.2676808605263973  0.36405494540857564  0.4587506873896317  1.0000
  N   N23       1.0  0.23231939990679254  0.8640592690270452  0.9587497289700979  1.0000
  N   N24       1.0  0.7323192930022843  0.6359409101501113  0.5412497077959912  1.0000
  N   N25       1.0  0.09755987670218501  0.6846731302559519  0.23720291134522142  1.0000
  N   N26       1.0  0.5975592574143819  0.8153276292890297  0.26279807985854836  1.0000
  N   N27       1.0  0.9024379594358365  0.3153295674969101  0.7627963020234674  1.0000
  N   N28       1.0  0.4024397374228741  0.1846693716671908  0.7372036735588311  1.0000
  N   N29       1.0  0.05162093932716521  0.9035598795245222  0.1420358651709606  1.0000
  N   N30       1.0  0.5516219194431785  0.596442037919502  0.3579637676038843  1.0000
  N   N31       1.0  0.9483792141987594  0.09644282038423309  0.8579640147140069  1.0000
  N   N32       1.0  0.4483793927736315  0.40356179876054904  0.6420348044541059  1.0000
  N   N33       1.0  0.9472228855128081  0.4466597647153421  0.2544931280354987  1.0000
  N   N34       1.0  0.4472247638004988  0.05333966792901631  0.2455072667247933  1.0000
  N   N35       1.0  0.05277958539909381  0.5533463584461201  0.7455068274579234  1.0000
  N   N36       1.0  0.5527800245025816  0.9466527643753577  0.7544930528562119  1.0000
