data_image0
_chemical_formula_structural       Zr6H17C52S10N2O32F5
_chemical_formula_sum              "Zr6 H17 C52 S10 N2 O32 F5"
_cell_length_a       16.46317023816427
_cell_length_b       16.453461918582796
_cell_length_c       16.524972170312335
_cell_angle_alpha    61.64784530090958
_cell_angle_beta     59.8164196239425
_cell_angle_gamma    60.28052064430393

_space_group_name_H-M_alt    "P 1"
_space_group_IT_number       1

loop_
  _space_group_symop_operation_xyz
  'x, y, z'

loop_
  _atom_site_type_symbol
  _atom_site_label
  _atom_site_symmetry_multiplicity
  _atom_site_fract_x
  _atom_site_fract_y
  _atom_site_fract_z
  _atom_site_occupancy
  Zr  Zr1       1.0  0.8873214592522064  0.9032739231300082  0.5974758875086223  1.0000
  Zr  Zr2       1.0  0.11150124723430822  0.10263278637005155  0.3981339508861765  1.0000
  Zr  Zr3       1.0  0.10132638233625364  0.8935356989689681  0.6077722595485752  1.0000
  Zr  Zr4       1.0  0.897484489778428  0.112440105397262  0.3886961246932612  1.0000
  Zr  Zr5       1.0  0.1084862065675553  0.8936535362734545  0.38934506437709615  1.0000
  Zr  Zr6       1.0  0.8902787693160549  0.11164620139007299  0.6073261092390824  1.0000
  H   H1        1.0  0.07629227411127448  0.7528299864870507  0.578218737406523  1.0000
  H   H2        1.0  0.09257105156491016  0.0826219944485231  0.2479306376782091  1.0000
  H   H3        1.0  0.08295872537605936  0.08161196439225911  0.5901225082148329  1.0000
  H   H4        1.0  0.7446519942512213  0.09491591910078508  0.5767862135486652  1.0000
  H   H5        1.0  0.12467621907577359  0.6129234074795987  0.36164951938158646  1.0000
  H   H6        1.0  0.611665320029914  0.12624308013644742  0.8997181953010694  1.0000
  H   H7        1.0  0.8668644221508828  0.12424413622657943  0.1185604039162982  1.0000
  H   H8        1.0  0.6234721025549277  0.3980065013652237  0.3622785268653672  1.0000
  H   H9        1.0  0.09609538656845738  0.6427291038446087  0.8715537853455543  1.0000
  H   H10       1.0  0.841997356356444  0.6548591843721568  0.8500884602541772  1.0000
  H   H11       1.0  0.8889978500406741  0.37672473476108337  0.13713981241689757  1.0000
  H   H12       1.0  0.15279311178014157  0.3545152564239302  0.1492609482973819  1.0000
  H   H13       1.0  0.621808115543125  0.87627917551778  0.6097275210667942  1.0000
  H   H14       1.0  0.20396294928036005  0.5516009517509916  0.9250313356823624  1.0000
  H   H15       1.0  0.2413588378772786  0.4638852967151124  0.020489694930048995  1.0000
  H   H16       1.0  0.8219454840094045  0.42860770252174535  0.042961071020919145  1.0000
  H   H17       1.0  0.7739758992791508  0.5256947772508341  0.9584941870156527  1.0000
  C   C1        1.0  0.9935427547502796  0.7397705905146592  0.4843674332003332  1.0000
  C   C2        1.0  0.2818554708502603  0.9879744380062548  0.2355543800703614  1.0000
  C   C3        1.0  0.997310517035814  0.2726965777415132  0.5050779668547563  1.0000
  C   C4        1.0  0.7239971563900269  0.008960440162717043  0.7681055626846244  1.0000
  C   C5        1.0  0.9785471546391308  0.7419317714359437  0.766566131789176  1.0000
  C   C6        1.0  0.7311702057481854  0.007355918261637756  0.4851933046707941  1.0000
  C   C7        1.0  0.012500960157169033  0.27123040144807936  0.23633060288820218  1.0000
  C   C8        1.0  0.27565563051155806  0.9913466294190982  0.5013295498718335  1.0000
  C   C9        1.0  0.27182527363048364  0.730564169106607  0.49709002255097084  1.0000
  C   C10       1.0  0.9899438320239682  0.9971276681395763  0.7779849511676675  1.0000
  C   C11       1.0  0.7338969763843154  0.2823824877424457  0.4931342177803017  1.0000
  C   C12       1.0  0.0003942741557309993  0.0004274236553172229  0.2262753522731416  1.0000
  C   C13       1.0  0.9263774786227756  0.4234661741469665  0.5621925846201633  1.0000
  C   C14       1.0  0.06097106312447666  0.5938360298561065  0.4230707571862879  1.0000
  C   C15       1.0  0.9945204432597025  0.36475575093506774  0.5010842191157892  1.0000
  C   C16       1.0  0.9924955226617415  0.6503594703467712  0.48578180561655415  1.0000
  C   C17       1.0  0.036147200561948964  0.5111778118115708  0.45110807129120895  1.0000
  C   C18       1.0  0.9488877476055321  0.5071951733325903  0.5348530510924262  1.0000
  C   C19       1.0  0.4229777228618944  0.9270338074247771  0.08831416345307731  1.0000
  C   C20       1.0  0.5901214045188682  0.06492498941507557  0.9188701708229557  1.0000
  C   C21       1.0  0.3712352872616122  0.9880994699880005  0.14706564273357958  1.0000
  C   C22       1.0  0.6390999973125701  0.003727337999969006  0.8610366825683471  1.0000
  C   C23       1.0  0.5113686142386626  0.036262915534322815  0.002196265650915892  1.0000
  C   C24       1.0  0.5029192875510446  0.9534323829553769  0.005412519020168776  1.0000
  C   C25       1.0  0.05646180327461554  0.9303638440319517  0.9172129324081838  1.0000
  C   C26       1.0  0.928355225413604  0.06269466368341639  0.09353368667795786  1.0000
  C   C27       1.0  0.9897056729596726  0.9955672019024959  0.867663391663605  1.0000
  C   C28       1.0  0.9970011497285894  0.99736790185041  0.14035906063782008  1.0000
  C   C29       1.0  0.9501726891063954  0.037710709552918324  0.01223883206280611  1.0000
  C   C30       1.0  0.035238989173464644  0.9532529751636504  0.9994828326223412  1.0000
  C   C31       1.0  0.4138384801910747  0.5942339210659426  0.5609988519926999  1.0000
  C   C32       1.0  0.5974731879693279  0.4215955668354782  0.42507319397371646  1.0000
  C   C33       1.0  0.363501411641515  0.644705192427665  0.4950661814195455  1.0000
  C   C34       1.0  0.6454082953105315  0.37222542670360786  0.49257455968879077  1.0000
  C   C35       1.0  0.5131630508958054  0.5029414976624196  0.45016141339874594  1.0000
  C   C36       1.0  0.49908629564677653  0.5134162990777327  0.5366877629946956  1.0000
  C   C37       1.0  0.03967213182603063  0.6099239375057551  0.900896909921208  1.0000
  C   C38       1.0  0.8940764523964829  0.6179929888343173  0.8891499662671761  1.0000
  C   C39       1.0  0.8859633043479533  0.5357446166811005  0.9703990388834711  1.0000
  C   C40       1.0  0.955939330824144  0.48813336151736986  0.020474031729371154  1.0000
  C   C41       1.0  0.9490842421979623  0.40576479112138497  0.10434359380639803  1.0000
  C   C42       1.0  0.09851487595515354  0.39365482276015473  0.11238605080979619  1.0000
  C   C43       1.0  0.10744516906919442  0.4753613316142946  0.03039803472793783  1.0000
  C   C44       1.0  0.034717121462534896  0.5257180776815815  0.9829850918773033  1.0000
  C   C45       1.0  0.9703703207866566  0.6550667725865655  0.8549760931390509  1.0000
  C   C46       1.0  0.019352039318484157  0.3595369177691835  0.14932678286276507  1.0000
  C   C47       1.0  0.4179396826573765  0.056970483781540814  0.42962103136212443  1.0000
  C   C48       1.0  0.5967901375403599  0.9353565940215348  0.5503362962881581  1.0000
  C   C49       1.0  0.36717438803925245  0.9909195657988549  0.4964274212083737  1.0000
  C   C50       1.0  0.6445940536971124  0.0034074193329728625  0.48391731475910393  1.0000
  C   C51       1.0  0.5142524922197754  0.9549085143347682  0.5299047177099964  1.0000
  C   C52       1.0  0.5016962855809552  0.03768169279250346  0.4476907002333875  1.0000
  S   S1        1.0  0.0881482210880905  0.4127247095480159  0.40791501271530706  1.0000
  S   S2        1.0  0.8973569457444628  0.6045648138307766  0.5788919038883548  1.0000
  S   S3        1.0  0.421621023123123  0.07945647600163837  0.10069809793431254  1.0000
  S   S4        1.0  0.5912107667654567  0.9107620654484165  0.9068335162859635  1.0000
  S   S5        1.0  0.8985282173767928  0.08686539747318299  0.9232424501632719  1.0000
  S   S6        1.0  0.08806626527049141  0.9046814562389612  0.08694663665200847  1.0000
  S   S7        1.0  0.4221298429027556  0.5924795636459592  0.4006645297811815  1.0000
  S   S8        1.0  0.5892053009642028  0.42405899990885837  0.5867536992552616  1.0000
  S   S9        1.0  0.4234445683724671  0.90277732725135  0.5828109827441138  1.0000
  S   S10       1.0  0.5907947508649727  0.0911782418189376  0.3957305371961155  1.0000
  N   N1        1.0  0.1835061460663924  0.5102758299897376  0.9960829059798187  1.0000
  N   N2        1.0  0.8093002774598047  0.5009344623437498  0.005534182638832874  1.0000
  O   O1        1.0  0.9220349505990698  0.7778340520613723  0.5519625734605781  1.0000
  O   O2        1.0  0.2477236426820681  0.056348343323414  0.2726016714173127  1.0000
  O   O3        1.0  0.07055810455772622  0.2338644710705111  0.4386878594685228  1.0000
  O   O4        1.0  0.7558128708916242  0.9435487571421958  0.72816176137497  1.0000
  O   O5        1.0  0.050096321606723296  0.772625716712085  0.7350282750248027  1.0000
  O   O6        1.0  0.7660262164235974  0.07594235598360657  0.4193107909616316  1.0000
  O   O7        1.0  0.9416408582253696  0.23971948442378743  0.26707449798568933  1.0000
  O   O8        1.0  0.23886545958844616  0.9250143673761427  0.570050327969099  1.0000
  O   O9        1.0  0.23925538053891443  0.7629459827099296  0.42771123810339157  1.0000
  O   O10       1.0  0.9220745547650183  0.06787406282919764  0.7438868125412341  1.0000
  O   O11       1.0  0.765077073937569  0.2472911432853805  0.5640153917515391  1.0000
  O   O12       1.0  0.06955637135480693  0.9314887898404719  0.2592408888503925  1.0000
  O   O13       1.0  0.05907810056044124  0.9284647363362666  0.7405530533078204  1.0000
  O   O14       1.0  0.7707665893084084  0.24625683475260024  0.42345025948046805  1.0000
  O   O15       1.0  0.9344482447540515  0.07275834695798272  0.2595849662979219  1.0000
  O   O16       1.0  0.23156272872248002  0.7650900713430887  0.5686500699974883  1.0000
  O   O17       1.0  0.9134477345939872  0.7794684358445993  0.7262547657472425  1.0000
  O   O18       1.0  0.23949181070081954  0.06082824993963958  0.4355929762030826  1.0000
  O   O19       1.0  0.08008475499551786  0.2310270356485589  0.27408187258762956  1.0000
  O   O20       1.0  0.762907931005607  0.9410565973061934  0.5548838034323181  1.0000
  O   O21       1.0  0.7579928684906747  0.07803474248018466  0.7347719950615854  1.0000
  O   O22       1.0  0.06588037491175683  0.7705210011425194  0.4180253618430783  1.0000
  O   O23       1.0  0.24434427148381158  0.9219649534023232  0.2670899566325814  1.0000
  O   O24       1.0  0.9279829325050458  0.23853010030806127  0.5739501739719158  1.0000
  O   O25       1.0  0.8169986560879252  0.06982233296817959  0.553818374084905  1.0000
  O   O26       1.0  0.05855520727138954  0.05876925098544922  0.5650230956770415  1.0000
  O   O27       1.0  0.06650622724273354  0.05885524747930052  0.31901030701060046  1.0000
  O   O28       1.0  0.054805951285921015  0.8238869652015169  0.5541850122526951  1.0000
  O   O29       1.0  0.1332280331854889  0.9534399850243673  0.4570495083537337  1.0000
  O   O30       1.0  0.955704123114309  0.9617671041734895  0.4482898425920538  1.0000
  O   O31       1.0  0.9579646113823445  0.13470973974314415  0.4570208656567941  1.0000
  O   O32       1.0  0.949658323227247  0.9618093587430326  0.6298088827287386  1.0000
  F   F1        1.0  0.8467186984616504  0.4039522218375212  0.6402978770316281  1.0000
  F   F2        1.0  0.4001336442584604  0.8507178657766161  0.10627759071352479  1.0000
  F   F3        1.0  0.13480251110267738  0.8530253967901942  0.890732487663321  1.0000
  F   F4        1.0  0.38559716634069485  0.6177952539979898  0.6411965370652836  1.0000
  F   F5        1.0  0.3915630120823508  0.13296027986363873  0.3549881286093211  1.0000
