data_image0
_chemical_formula_structural       Zn8H68C78O32
_chemical_formula_sum              "Zn8 H68 C78 O32"
_cell_length_a       18.235831112382737
_cell_length_b       18.552734881791782
_cell_length_c       18.167143188772812
_cell_angle_alpha    59.74792766247483
_cell_angle_beta     60.947804044259
_cell_angle_gamma    90.3340520335877

_space_group_name_H-M_alt    "P 1"
_space_group_IT_number       1

loop_
  _space_group_symop_operation_xyz
  'x, y, z'

loop_
  _atom_site_type_symbol
  _atom_site_label
  _atom_site_symmetry_multiplicity
  _atom_site_fract_x
  _atom_site_fract_y
  _atom_site_fract_z
  _atom_site_occupancy
  Zn  Zn1       1.0  0.7901947193300599  0.7056243620989946  0.41309366619589843  1.0000
  Zn  Zn2       1.0  0.2031656742279395  0.2917858376562632  0.5904687715445222  1.0000
  Zn  Zn3       1.0  0.7935015672501677  0.7062227292842422  0.5865461915695107  1.0000
  Zn  Zn4       1.0  0.2008424924515708  0.29324603675359373  0.4141623346100474  1.0000
  Zn  Zn5       1.0  0.6199251675290753  0.7103319890121469  0.583310021978022  1.0000
  Zn  Zn6       1.0  0.3738309598900571  0.28896057967651945  0.41642390664564033  1.0000
  Zn  Zn7       1.0  0.7918487349907367  0.8814461637407476  0.4089157371803579  1.0000
  Zn  Zn8       1.0  0.2078415657389314  0.11871532400316194  0.5888938762176964  1.0000
  H   H1        1.0  0.8256691230118492  0.5724245805884536  0.19485086414529457  1.0000
  H   H2        1.0  0.5606631894056519  0.429207050626779  0.1021780625379167  1.0000
  H   H3        1.0  0.3333248805216513  0.46978423916562645  0.09182781226581951  1.0000
  H   H4        1.0  0.660520692319743  0.5306621421712235  0.9081062073699683  1.0000
  H   H5        1.0  0.9441311198248457  0.5469994150950085  0.3853709687751064  1.0000
  H   H6        1.0  0.0512750690900887  0.45344900868482085  0.614219422117749  1.0000
  H   H7        1.0  0.0449901361543752  0.4547665034963443  0.38040070039783563  1.0000
  H   H8        1.0  0.9514927835177502  0.5466237359930659  0.6181066409206437  1.0000
  H   H9        1.0  0.9364261057287138  0.6061011311925596  0.22545426020351286  1.0000
  H   H10       1.0  0.08457393670902037  0.37098218041503367  0.8742086851045984  1.0000
  H   H11       1.0  0.00037833644534395654  0.7593814387417338  0.16274267957463454  1.0000
  H   H12       1.0  0.2490641222823058  0.4129976528394223  0.7886222840987075  1.0000
  H   H13       1.0  0.9973511779996825  0.221564779666508  0.9470729875516922  1.0000
  H   H14       1.0  0.8420794159493922  0.8463099915644673  0.04086413262653139  1.0000
  H   H15       1.0  0.237829323517289  0.1570573129289342  0.8442942973768625  1.0000
  H   H16       1.0  0.7793779245906832  0.6938249206143181  0.10123989612698399  1.0000
  H   H17       1.0  0.3250623341753638  0.3058392523033148  0.773139340535522  1.0000
  H   H18       1.0  0.33400624422156966  0.4525896288179964  0.6084646501561721  1.0000
  H   H19       1.0  0.6615038670234767  0.5615640195425795  0.37546605187298343  1.0000
  H   H20       1.0  0.10513284124247949  0.883186649165779  0.8099926280351682  1.0000
  H   H21       1.0  0.033798766853664085  0.804864977225044  0.9469134500493369  1.0000
  H   H22       1.0  0.2067890867248748  0.9527460082100344  0.8268079905878525  1.0000
  H   H23       1.0  0.3448298513497931  0.9441662188445148  0.6523610281161044  1.0000
  H   H24       1.0  0.13309683652294513  0.8846263123445649  0.9628807858414206  1.0000
  H   H25       1.0  0.15191216745870403  0.7487041086238048  0.9673869372545881  1.0000
  H   H26       1.0  0.25490700777090314  0.8242659332386068  0.9085674273931517  1.0000
  H   H27       1.0  0.2287033878258596  0.815132491990823  0.8309426181980799  1.0000
  H   H28       1.0  0.13056320714628103  0.06175277462918418  0.07071598111253506  1.0000
  H   H29       1.0  0.04270510019063781  0.9729567226046639  0.1996356454540731  1.0000
  H   H30       1.0  0.09582883233925092  0.1689438628789262  0.1155657229993707  1.0000
  H   H31       1.0  0.006656658181512396  0.08217825715016859  0.2429650053868642  1.0000
  H   H32       1.0  0.1146015458395766  0.008443936783997701  0.2736580190189954  1.0000
  H   H33       1.0  0.1435612592338416  0.11742950659683515  0.23844615939895425  1.0000
  H   H34       1.0  0.6555596978342564  0.056782015960003186  0.3538026093691187  1.0000
  H   H35       1.0  0.20434640158583048  0.09460191524318869  0.14582232096701384  1.0000
  H   H36       1.0  0.3589568178203422  0.6426887649751976  0.5479704579268159  1.0000
  H   H37       1.0  0.4648615089208619  0.6924984581111883  0.5137732492303473  1.0000
  H   H38       1.0  0.2924687454091028  0.6048498223955789  0.7283778370632703  1.0000
  H   H39       1.0  0.397171088408392  0.6673275080829625  0.6825640370134921  1.0000
  H   H40       1.0  0.39069564828103154  0.8032138592903664  0.5475241940437598  1.0000
  H   H41       1.0  0.3008651286539886  0.7618414530772454  0.6742652084049681  1.0000
  H   H42       1.0  0.2836871126986652  0.7408418176589108  0.5974251099784738  1.0000
  H   H43       1.0  0.6912863426196907  0.5071904416290849  0.21400505262943184  1.0000
  H   H44       1.0  0.6577274401704541  0.587533541727474  0.23754586002689157  1.0000
  H   H45       1.0  0.9648144763941319  0.8356375245166558  0.6039210312793485  1.0000
  H   H46       1.0  0.5563644914075709  0.4707943699218119  0.21993685051995018  1.0000
  H   H47       1.0  0.5168109582974696  0.5437419692189421  0.2522074930766536  1.0000
  H   H48       1.0  0.6468201381235019  0.6737949326139371  0.08121847609879757  1.0000
  H   H49       1.0  0.5918808520817009  0.6136404489544346  0.06081797250975285  1.0000
  H   H50       1.0  0.6929935429744063  0.6023937092687887  0.04797738511310712  1.0000
  H   H51       1.0  0.379457777953114  0.761406105668186  0.8350268942513355  1.0000
  H   H52       1.0  0.4134379636392111  0.8784528325468058  0.7695711030582971  1.0000
  H   H53       1.0  0.5380858850124994  0.7703669276060193  0.7401219322034083  1.0000
  H   H54       1.0  0.5733150257432482  0.8865250981742246  0.6761232903625685  1.0000
  H   H55       1.0  0.5048207279743409  0.8645920229727081  0.8479147965294658  1.0000
  H   H56       1.0  0.025394341978099498  0.16067579305483545  0.40638409368065004  1.0000
  H   H57       1.0  0.5840920702344193  0.8093844787446185  0.8290593419928954  1.0000
  H   H58       1.0  0.46895228614634016  0.7480833680926506  0.9123994188630107  1.0000
  H   H59       1.0  0.6757711889928757  0.2824308787168945  0.20389288404866324  1.0000
  H   H60       1.0  0.6994384801114039  0.19694193601016954  0.2857218808629725  1.0000
  H   H61       1.0  0.5890819703869709  0.308809151368365  0.33904277886354356  1.0000
  H   H62       1.0  0.6024754478020143  0.21849308616027938  0.42650017242596755  1.0000
  H   H63       1.0  0.7677441224268621  0.2956853718216194  0.31433151332554826  1.0000
  H   H64       1.0  0.709729891282727  0.3640278788864463  0.34392573325064296  1.0000
  H   H65       1.0  0.7582630404593401  0.38549535566012577  0.2202411804631126  1.0000
  H   H66       1.0  0.057304538201250955  0.9307590242644181  0.6100541077240179  1.0000
  H   H67       1.0  0.9322226237641402  0.0655418549806441  0.40111789475543713  1.0000
  H   H68       1.0  0.4330465524280244  0.5702564222330153  0.8976529220270989  1.0000
  C   C1        1.0  0.8898750899770677  0.8883401352186835  0.49733939556118417  1.0000
  C   C2        1.0  0.0050272999608936  0.03079449311352529  0.05701553407210011  1.0000
  C   C3        1.0  0.06768529322637559  0.05454785302838158  0.8916082978632218  1.0000
  C   C4        1.0  0.9572580022120647  0.9415810289536636  0.10921035749328176  1.0000
  C   C5        1.0  0.0596103473342069  0.08806951648308829  0.9487019349662518  1.0000
  C   C6        1.0  0.9683187618017469  0.9069418303294012  0.05218859402251043  1.0000
  C   C7        1.0  0.45476773004062915  0.5342276980327652  0.5576754960638726  1.0000
  C   C8        1.0  0.5400725861960964  0.4814649269460529  0.42425589043828915  1.0000
  C   C9        1.0  0.4061871413470968  0.47671102884923755  0.5569894751585522  1.0000
  C   C10       1.0  0.5891276390485202  0.5383908401059967  0.42556978823167685  1.0000
  C   C11       1.0  0.4462924475355976  0.4487080580015073  0.49246857122403054  1.0000
  C   C12       1.0  0.103289557668937  0.10866473349182826  0.5095479636897907  1.0000
  C   C13       1.0  0.5490608259999162  0.5651201088060914  0.49133488949816956  1.0000
  C   C14       1.0  0.4653145211589162  0.9144314667156336  0.5933249557480949  1.0000
  C   C15       1.0  0.5362599303739656  0.08924603272513555  0.41440605241056977  1.0000
  C   C16       1.0  0.6087795574986499  0.6205107160884039  0.4915820686460962  1.0000
  C   C17       1.0  0.38658507219850685  0.3877307032572616  0.49808842690828226  1.0000
  C   C18       1.0  0.41346449029699517  0.9692123289916734  0.5869895725436864  1.0000
  C   C19       1.0  0.5876617307905221  0.033587203030833686  0.4197225180843134  1.0000
  C   C20       1.0  0.44709978086280694  0.05593776436537468  0.49922782648690867  1.0000
  C   C21       1.0  0.5533941575231294  0.9465097919858817  0.5068979761753669  1.0000
  C   C22       1.0  0.9784450032409141  0.9068656588351587  0.561210466049161  1.0000
  C   C23       1.0  0.8619530825135726  0.7934414901982264  0.08242149991173872  1.0000
  C   C24       1.0  0.011413416631711495  0.08940571673127808  0.44951594960829067  1.0000
  C   C25       1.0  0.029553929157174304  0.9595011929154323  0.564664015923846  1.0000
  C   C26       1.0  0.9600894872216018  0.03674429757607099  0.4463521262739932  1.0000
  C   C27       1.0  0.04664027547446639  0.051165508670699474  0.5083811691827975  1.0000
  C   C28       1.0  0.9438239723516447  0.9452239459581548  0.5016697757731804  1.0000
  C   C29       1.0  0.46012929147374854  0.5394187510283858  0.9434413952235731  1.0000
  C   C30       1.0  0.5336889043356621  0.4609390467090789  0.05647391030434786  1.0000
  C   C31       1.0  0.40499454450329603  0.48374006318250196  0.05073358554393093  1.0000
  C   C32       1.0  0.5888696098526014  0.5168901527507115  0.9492358008988405  1.0000
  C   C33       1.0  0.4415491492618884  0.44411753756121886  0.10773918966446416  1.0000
  C   C34       1.0  0.20422665828125727  0.20410148378363854  0.8508204318614148  1.0000
  C   C35       1.0  0.5522666938505553  0.5561516798191518  0.8922243336823855  1.0000
  C   C36       1.0  0.9683015396155525  0.5262386998296903  0.43479510059784604  1.0000
  C   C37       1.0  0.027690179034088682  0.4746867210568836  0.5642249580932913  1.0000
  C   C38       1.0  0.02388371517103849  0.4752735833810248  0.43210728795462944  1.0000
  C   C39       1.0  0.972450317428823  0.5259986984056866  0.5665276660846031  1.0000
  C   C40       1.0  0.8822289438549334  0.6062447811536629  0.505350768787764  1.0000
  C   C41       1.0  0.1115369574846525  0.39231306560802176  0.4960451060232672  1.0000
  C   C42       1.0  0.05349895861004937  0.44890954543622286  0.4971446208552806  1.0000
  C   C43       1.0  0.9421932974008841  0.5517176753623401  0.5021806509953918  1.0000
  C   C44       1.0  0.6112942455510506  0.8902363940276954  0.5017482492997163  1.0000
  C   C45       1.0  0.8268175169433362  0.7074964616258012  0.11639384757852168  1.0000
  C   C46       1.0  0.38698216248081957  0.11021822181078986  0.5009007359269191  1.0000
  C   C47       1.0  0.6109037599433406  0.6147645557096054  0.7769014609233763  1.0000
  C   C48       1.0  0.38285856579379635  0.38405907290189834  0.22311201837623423  1.0000
  C   C49       1.0  0.8933739944667421  0.88600318550138  0.2245916246370995  1.0000
  C   C50       1.0  0.12254312936040182  0.11464202275928408  0.7758049866000148  1.0000
  C   C51       1.0  0.9153651783909069  0.6585918727668981  0.18518861444695744  1.0000
  C   C52       1.0  0.1183862223189749  0.3240372768646935  0.8678625483092263  1.0000
  C   C53       1.0  0.951270334246111  0.7446804556969295  0.15023469744350848  1.0000
  C   C54       1.0  0.06925017388864059  0.24034406197833383  0.9084743709775794  1.0000
  C   C55       1.0  0.9246112706921465  0.8131126878173516  0.09884490731018758  1.0000
  C   C56       1.0  0.25318155243127194  0.28755210527735636  0.8112492034313732  1.0000
  C   C57       1.0  0.1117361197296489  0.17946567382690393  0.9002717204064793  1.0000
  C   C58       1.0  0.08097541530009514  0.8727840286954488  0.8842137032798052  1.0000
  C   C59       1.0  0.1579075670165295  0.8865234728821034  0.8930741622957332  1.0000
  C   C60       1.0  0.20066313586318069  0.814800144268382  0.9001531841000985  1.0000
  C   C61       1.0  0.06546323233311568  0.04462763480942297  0.1392396457602345  1.0000
  C   C62       1.0  0.07316913904227822  0.09831078699061638  0.177620515661971  1.0000
  C   C63       1.0  0.1375106186388209  0.0787015641309381  0.2105860069259293  1.0000
  C   C64       1.0  0.3985838148433842  0.6422028874749371  0.5788018701336598  1.0000
  C   C65       1.0  0.35325433113798976  0.6613928169994594  0.6592192800034764  1.0000
  C   C66       1.0  0.3306443287443344  0.7463797261413062  0.6172934254466966  1.0000
  C   C67       1.0  0.8531238782671265  0.6396911963593009  0.16814367052413126  1.0000
  C   C68       1.0  0.633305557232596  0.5245899025124814  0.25141749536640406  1.0000
  C   C69       1.0  0.5778598456810186  0.5334055330892651  0.20796117325532756  1.0000
  C   C70       1.0  0.6302153396510023  0.6099589590796267  0.09337017059382904  1.0000
  C   C71       1.0  0.43175353471621486  0.8240552056000111  0.7635341153946629  1.0000
  C   C72       1.0  0.5215021088900116  0.8238217673220516  0.7484162092398707  1.0000
  C   C73       1.0  0.5197238362539166  0.8108477203709156  0.8394031629247748  1.0000
  C   C74       1.0  0.6504103892271189  0.23147612010335905  0.285045700065865  1.0000
  C   C75       1.0  0.6354876264236893  0.2721146947465911  0.34398752891048195  1.0000
  C   C76       1.0  0.7226796694646181  0.3325333422046269  0.3034025277364309  1.0000
  C   C77       1.0  0.2104574709247728  0.3478090853023943  0.8198404167287735  1.0000
  C   C78       1.0  0.02399917114443166  0.9644150598368451  0.9431408028591833  1.0000
  O   O1        1.0  0.7497681614500424  0.7513985037534853  0.49810226879858255  1.0000
  O   O2        1.0  0.42193999247270136  0.3711776306837605  0.4309056829112096  1.0000
  O   O3        1.0  0.8740784875889245  0.9278268322029032  0.4279775749012345  1.0000
  O   O4        1.0  0.12241400807612728  0.06969994244133197  0.5759852168166474  1.0000
  O   O5        1.0  0.6921979308617594  0.6501047718632619  0.4211660812022585  1.0000
  O   O6        1.0  0.30374759931762446  0.35790146102519316  0.5698708028575581  1.0000
  O   O7        1.0  0.8687247394713256  0.6353247758399831  0.5598381066194804  1.0000
  O   O8        1.0  0.12831052874212648  0.36696547281957936  0.4375212227787131  1.0000
  O   O9        1.0  0.5732516378597765  0.8085754226267382  0.5480142241282665  1.0000
  O   O10       1.0  0.4220079281071278  0.1926134033760789  0.45396750539485703  1.0000
  O   O11       1.0  0.6945098207385739  0.630513099780323  0.7341657602422843  1.0000
  O   O12       1.0  0.24404797001278675  0.24837185147833193  0.5029042076524846  1.0000
  O   O13       1.0  0.2992129510493768  0.3683028745877194  0.26604779183694666  1.0000
  O   O14       1.0  0.8465517806754619  0.9227467597594552  0.26474847196119816  1.0000
  O   O15       1.0  0.17194278718784523  0.08542134518954468  0.7261523431797983  1.0000
  O   O16       1.0  0.571954206345211  0.6442936890766688  0.7306292518243397  1.0000
  O   O17       1.0  0.4218383952169305  0.35359874649315504  0.2691279934782855  1.0000
  O   O18       1.0  0.8896790801813665  0.8055816850876097  0.2744951404405077  1.0000
  O   O19       1.0  0.11581954364611852  0.19168496097921658  0.7352642521279193  1.0000
  O   O20       1.0  0.03272028787628752  0.9351053529500032  0.8843923087052238  1.0000
  O   O21       1.0  0.0023147740629240925  0.06319277168207547  0.11148119672242983  1.0000
  O   O22       1.0  0.40737690804741794  0.5554195681360312  0.6257981870810808  1.0000
  O   O23       1.0  0.8493901414792691  0.619225573753418  0.4534134958104302  1.0000
  O   O24       1.0  0.5848199302455087  0.45528587730110087  0.36079556558050285  1.0000
  O   O25       1.0  0.4282722519832376  0.8302912032034938  0.6826862084031405  1.0000
  O   O26       1.0  0.5683749031358547  0.17183819038049103  0.3255512396288936  1.0000
  O   O27       1.0  0.1391994501654636  0.37394614768445666  0.553732410478773  1.0000
  O   O28       1.0  0.6948431759862359  0.9295988073069593  0.44863903054447724  1.0000
  O   O29       1.0  0.3042032542065698  0.06870027018126021  0.5523009959691692  1.0000
  O   O30       1.0  0.864421302130232  0.8048809440466086  0.563322275343637  1.0000
  O   O31       1.0  0.1278096448815731  0.1919276661003977  0.44342778173417235  1.0000
  O   O32       1.0  0.5727129850884509  0.6327818806497518  0.5624932823358648  1.0000
