data_image0
_chemical_formula_structural       Zn16H20C96S16Br8Cl4O52
_chemical_formula_sum              "Zn16 H20 C96 S16 Br8 Cl4 O52"
_cell_length_a       19.67734671405611
_cell_length_b       19.71277242381554
_cell_length_c       33.38773861379414
_cell_angle_alpha    79.05910168288241
_cell_angle_beta     79.16474443189568
_cell_angle_gamma    63.938196947046244

_space_group_name_H-M_alt    "P 1"
_space_group_IT_number       1

loop_
  _space_group_symop_operation_xyz
  'x, y, z'

loop_
  _atom_site_type_symbol
  _atom_site_label
  _atom_site_symmetry_multiplicity
  _atom_site_fract_x
  _atom_site_fract_y
  _atom_site_fract_z
  _atom_site_occupancy
  Zn  Zn1       1.0  0.055802897428378594  0.3993418321006813  0.47787261057830926  1.0000
  Zn  Zn2       1.0  0.9858943069976648  0.48420931468408657  0.5604808000488716  1.0000
  Zn  Zn3       1.0  0.057643521243925  0.5613503056510608  0.48229245155565065  1.0000
  Zn  Zn4       1.0  0.9007064885138407  0.554255442374611  0.4801608882975329  1.0000
  Zn  Zn5       1.0  0.6940392404594392  0.3495890677445816  0.27147723355719217  1.0000
  Zn  Zn6       1.0  0.6884815852681572  0.18952711257368543  0.2662834103575449  1.0000
  Zn  Zn7       1.0  0.7697872390120892  0.26522175120015845  0.19067040635430027  1.0000
  Zn  Zn8       1.0  0.847263341348132  0.19474726901315614  0.27307971714865426  1.0000
  Zn  Zn9       1.0  0.2669977983369095  0.7668362902313461  0.6896728330641791  1.0000
  Zn  Zn10      1.0  0.3493029620968927  0.6972968893252441  0.7719734753561482  1.0000
  Zn  Zn11      1.0  0.1924587742190127  0.8480060604230458  0.7713975814322465  1.0000
  Zn  Zn12      1.0  0.1921309292819018  0.6872230218455542  0.766640808097776  1.0000
  Zn  Zn13      1.0  0.5605083215003361  0.059888565554281584  0.9831980844449075  1.0000
  Zn  Zn14      1.0  0.4014274836527037  0.055045879248503106  0.9782970609962188  1.0000
  Zn  Zn15      1.0  0.5553431067289765  0.9010604371415808  0.9782974840828371  1.0000
  Zn  Zn16      1.0  0.4836656727927037  0.9827136536278261  0.06044125124416409  1.0000
  H   H1        1.0  0.9547878166823978  0.24879398018823912  0.3516241458577055  1.0000
  H   H2        1.0  0.7473863369981402  0.4532559483413792  0.34980188685437236  1.0000
  H   H3        1.0  0.999322665050606  0.3002130903236874  0.3997262399445986  1.0000
  H   H4        1.0  0.0972155531943244  0.5969625875485675  0.6997071578609775  1.0000
  H   H5        1.0  0.20218966066244803  0.7015685399691378  0.5982522665391415  1.0000
  H   H6        1.0  0.05069209612940279  0.5512822917069186  0.6497193654062485  1.0000
  H   H7        1.0  0.46316210170848393  0.2400989467417958  0.34105295305618444  1.0000
  H   H8        1.0  0.47948757908648093  0.7026911515050216  0.6012778774136079  1.0000
  H   H9        1.0  0.2030419601606397  0.9791329245939124  0.6014714683470571  1.0000
  H   H10       1.0  0.9480855402963968  0.9701950427706763  0.3479559729129846  1.0000
  H   H11       1.0  0.5499954582458102  0.05008823986440084  0.15346379070249577  1.0000
  H   H12       1.0  0.6512063656779788  0.15172278485070473  0.04862690307346898  1.0000
  H   H13       1.0  0.5999864725376585  0.09985371644714999  0.19959741438439946  1.0000
  H   H14       1.0  0.5474979872157846  0.7702329788913503  0.14843766874881936  1.0000
  H   H15       1.0  0.1627727550549309  0.14142278744392203  0.04056648504680278  1.0000
  H   H16       1.0  0.5012595609928923  0.795228257902025  0.8984435364706724  1.0000
  H   H17       1.0  0.29707907407265577  0.0029480145590241743  0.8999408701766355  1.0000
  H   H18       1.0  0.4493283986210842  0.7513436287801837  0.8503447631670226  1.0000
  H   H19       1.0  0.3009664833182342  0.27983967066502663  0.9021246895472499  1.0000
  H   H20       1.0  0.7869678310515271  0.009695312918701432  0.9088566717559059  1.0000
  C   C1        1.0  0.06171961883698881  0.3163236987031013  0.5617204939043744  1.0000
  C   C2        1.0  0.06906872288811172  0.5702440905991961  0.5691969565322806  1.0000
  C   C3        1.0  0.1832428959239678  0.43955722961228355  0.438550519735699  1.0000
  C   C4        1.0  0.9368569898408767  0.6838963918408608  0.43879376697934447  1.0000
  C   C5        1.0  0.9311823184293149  0.42984660770444105  0.43098092077865857  1.0000
  C   C6        1.0  0.8170136439793012  0.5612021256415504  0.5623897808683721  1.0000
  C   C7        1.0  0.565485720168148  0.3113383067068869  0.31129613726481853  1.0000
  C   C8        1.0  0.6809343429617484  0.18011039439557666  0.18101469720464533  1.0000
  C   C9        1.0  0.6898336809181487  0.43308922353720913  0.18838262233120412  1.0000
  C   C10       1.0  0.9351672584502567  0.18771790948490968  0.1898509018212309  1.0000
  C   C11       1.0  0.8195338690838697  0.3191283046940683  0.3194313077519339  1.0000
  C   C12       1.0  0.8108475836678795  0.06577913250050922  0.3116071380913964  1.0000
  C   C13       1.0  0.4337945486417212  0.6895489064425603  0.6881932754410583  1.0000
  C   C14       1.0  0.3190419059220418  0.8196154742920072  0.8192842855130137  1.0000
  C   C15       1.0  0.18858000853224155  0.9335590995165507  0.6882739577376353  1.0000
  C   C16       1.0  0.06597058464443252  0.8095729291678139  0.8110795106922877  1.0000
  C   C17       1.0  0.1812155868035106  0.6801973088720742  0.6806921051634801  1.0000
  C   C18       1.0  0.3129594877844611  0.5660252308566952  0.8113286539499498  1.0000
  C   C19       1.0  0.43825779521444735  0.18388035548968418  0.9386436366423607  1.0000
  C   C20       1.0  0.43118290367722534  0.9301704973107269  0.9307120365000257  1.0000
  C   C21       1.0  0.6842016707117793  0.9388568449156834  0.9386810572782165  1.0000
  C   C22       1.0  0.561435374511703  0.8157484326011116  0.061601084963797244  1.0000
  C   C23       1.0  0.5691915345674731  0.06885216100938868  0.06966030138193698  1.0000
  C   C24       1.0  0.31591087726921074  0.06139092154896281  0.061190997606004785  1.0000
  C   C25       1.0  0.8993533323138935  0.40489370590287166  0.4019694788574951  1.0000
  C   C26       1.0  0.8481769222019366  0.34817991810363236  0.3478916089567718  1.0000
  C   C27       1.0  0.8274925042345843  0.4483617863138035  0.38747249173533754  1.0000
  C   C28       1.0  0.9196425230318469  0.3044735433924258  0.36182905917210917  1.0000
  C   C29       1.0  0.8027762411315607  0.41965850613949846  0.3607381521214846  1.0000
  C   C30       1.0  0.9441109140847177  0.33303291232164867  0.3884073942362675  1.0000
  C   C31       1.0  0.0997891395956287  0.600183897736045  0.5961969626768989  1.0000
  C   C32       1.0  0.1525134458028816  0.6520851587868677  0.6518095731640442  1.0000
  C   C33       1.0  0.1431778457096584  0.6430753652038986  0.5817120162792406  1.0000
  C   C34       1.0  0.10971110895492592  0.609556521198776  0.6666864623697676  1.0000
  C   C35       1.0  0.16890147777687048  0.6685459505058517  0.6095487153525595  1.0000
  C   C36       1.0  0.0840905170599342  0.5843904886392294  0.6390021549362571  1.0000
  C   C37       1.0  0.30464098872354134  0.45471247379316543  0.4010659577980461  1.0000
  C   C38       1.0  0.44606757327209584  0.29675857918029896  0.34903726751266356  1.0000
  C   C39       1.0  0.25835954488360363  0.41595403006116505  0.4139752269577598  1.0000
  C   C40       1.0  0.4908622903776846  0.33667395517657184  0.3364909989840185  1.0000
  C   C41       1.0  0.3780029105830209  0.33969935717794913  0.3726784231630305  1.0000
  C   C42       1.0  0.3727678352921799  0.41142316950164576  0.3775360429343522  1.0000
  C   C43       1.0  0.7259205151471733  0.575671968105645  0.6304041470242224  1.0000
  C   C44       1.0  0.5242141372847087  0.6735898772002429  0.6212769735449014  1.0000
  C   C45       1.0  0.7429520223900496  0.5850536547838487  0.5879216105408743  1.0000
  C   C46       1.0  0.5089638342187683  0.6636832810749245  0.6636487730463542  1.0000
  C   C47       1.0  0.6035000558717485  0.641424269473319  0.6089999625609862  1.0000
  C   C48       1.0  0.6465489408309824  0.6077567497275567  0.6424997842118784  1.0000
  C   C49       1.0  0.0761705030706281  0.22541747631355946  0.6299242876165749  1.0000
  C   C50       1.0  0.1740048511300785  0.023874241120758213  0.6213361781160529  1.0000
  C   C51       1.0  0.08566478054712691  0.24229584423921577  0.5873997796257412  1.0000
  C   C52       1.0  0.1636806572091132  0.008725526603939195  0.6637090150578401  1.0000
  C   C53       1.0  0.1420361680563929  0.10303565480829491  0.6088866401487678  1.0000
  C   C54       1.0  0.10818313115335343  0.14616249466661196  0.6422417878670643  1.0000
  C   C55       1.0  0.8422073029159521  0.8009017713535233  0.39705132853443087  1.0000
  C   C56       1.0  0.9038239996372682  0.949682520145174  0.35252417878581344  1.0000
  C   C57       1.0  0.9106287832654941  0.7583343533270367  0.4136524747406226  1.0000
  C   C58       1.0  0.8351752464267648  0.9908503205690025  0.33641032950199445  1.0000
  C   C59       1.0  0.906658520154487  0.8801419008284769  0.3746811135915776  1.0000
  C   C60       1.0  0.8398178269811751  0.8702849682158768  0.3748351500216174  1.0000
  C   C61       1.0  0.6535101581291228  0.15345329945583336  0.15063952095295718  1.0000
  C   C62       1.0  0.5978566475516588  0.09788333946543301  0.0981638690872231  1.0000
  C   C63       1.0  0.6677693568820332  0.16808790171144494  0.10745008096465365  1.0000
  C   C64       1.0  0.5830065634365694  0.08306196725911262  0.1408779580642516  1.0000
  C   C65       1.0  0.6399707745994974  0.1402567615220035  0.08180098610584001  1.0000
  C   C66       1.0  0.6106987206196594  0.11069003526800708  0.16632442396767289  1.0000
  C   C67       1.0  0.6740548572710595  0.5238579502218312  0.12009551349680686  1.0000
  C   C68       1.0  0.5764160379679383  0.7254639284224779  0.12858369354615456  1.0000
  C   C69       1.0  0.6650305311419802  0.5070334490826125  0.1626485485834266  1.0000
  C   C70       1.0  0.5864858790877392  0.7405769376103069  0.08620639008240258  1.0000
  C   C71       1.0  0.6083014408077858  0.6463043812740138  0.1410768023635143  1.0000
  C   C72       1.0  0.6418568168085272  0.6031008129286021  0.1077467256786591  1.0000
  C   C73       1.0  0.0828254493876273  0.1233303829997254  0.17834414540261173  1.0000
  C   C74       1.0  0.1703250304125845  0.12484354365432891  0.0729471614062973  1.0000
  C   C75       1.0  0.010586202630470604  0.16224325993470504  0.16559656079238036  1.0000
  C   C76       1.0  0.24146899366317603  0.0860486153076252  0.086535661820534  1.0000
  C   C77       1.0  0.112156520817031  0.13858849074913587  0.10642405772455278  1.0000
  C   C78       1.0  0.14074371319061643  0.1097778037155379  0.1447362253991358  1.0000
  C   C79       1.0  0.34458684620338426  0.8514144584918031  0.8480052216606068  1.0000
  C   C80       1.0  0.4020365800608162  0.9019531486452054  0.9020682542452857  1.0000
  C   C81       1.0  0.30148542174430304  0.9232354562021499  0.8623460170544559  1.0000
  C   C82       1.0  0.44550588367980043  0.8306082598914345  0.8881936371080312  1.0000
  C   C83       1.0  0.330532024577309  0.9476216192506185  0.8890741621369072  1.0000
  C   C84       1.0  0.4166211195231  0.8064713023422314  0.8615983753759123  1.0000
  C   C85       1.0  0.40756233526714414  0.4485655111859472  0.8530190978231644  1.0000
  C   C86       1.0  0.3453808571107262  0.30014423186808153  0.8975718779412815  1.0000
  C   C87       1.0  0.3392393717481639  0.49133525263136574  0.8363214049505102  1.0000
  C   C88       1.0  0.41395630712773374  0.2587742797203276  0.9137399850071615  1.0000
  C   C89       1.0  0.3428521004885852  0.3695281581413639  0.8753123173689089  1.0000
  C   C90       1.0  0.4097766361592505  0.37919956351472456  0.8751936852313162  1.0000
  C   C91       1.0  0.9448760662687976  0.7944851197106643  0.8492251073137637  1.0000
  C   C92       1.0  0.8039071699505129  0.9529643758631464  0.901019273752375  1.0000
  C   C93       1.0  0.9912119719588262  0.8330997955153594  0.8359949475484497  1.0000
  C   C94       1.0  0.7589756101794978  0.9132159501869098  0.91369635513319  1.0000
  C   C95       1.0  0.8719106784387948  0.9097551364037316  0.8774113343393493  1.0000
  C   C96       1.0  0.8769297478992613  0.837989396320978  0.8727835840564352  1.0000
  S   S1        1.0  0.2988123239997479  0.3262626096175366  0.3972405167543158  1.0000
  S   S2        1.0  0.45107882187905096  0.4261637066888538  0.3531844122589547  1.0000
  S   S3        1.0  0.661357765423503  0.6331257007926822  0.5628572127381374  1.0000
  S   S4        1.0  0.5900778620295951  0.6154582681656534  0.6888765758840519  1.0000
  S   S5        1.0  0.1339256083232812  0.16067339260578709  0.5626260323157198  1.0000
  S   S6        1.0  0.11543568622290934  0.0898297818743643  0.6887208652116426  1.0000
  S   S7        1.0  0.9719971683219268  0.8035935201436928  0.4018929637907577  1.0000
  S   S8        1.0  0.7737750384398369  0.9459193298742149  0.34787661944665155  1.0000
  S   S9        1.0  0.6167031029249302  0.588751675135164  0.18738312997865578  1.0000
  S   S10       1.0  0.6343876556753116  0.6593725573106752  0.06122889735219424  1.0000
  S   S11       1.0  0.013987899591356306  0.18216128318726285  0.11224241978462857  1.0000
  S   S12       1.0  0.2385514302130929  0.06595608796006049  0.13974192297379057  1.0000
  S   S13       1.0  0.2777665664788458  0.4461578475634197  0.8479686066984939  1.0000
  S   S14       1.0  0.4756481534693009  0.303420540554683  0.9021988458801926  1.0000
  S   S15       1.0  0.9510890998242659  0.9229402265580188  0.8525814870178862  1.0000
  S   S16       1.0  0.7985421193636668  0.8235462302114911  0.8972446758845647  1.0000
  Br  Br1       1.0  0.2847905977003151  0.5521759663353407  0.4118915088390409  1.0000
  Br  Br2       1.0  0.7952466663282111  0.5272467696677623  0.6694634584572582  1.0000
  Br  Br3       1.0  0.027778709896217908  0.29470560745041746  0.668856125246208  1.0000
  Br  Br4       1.0  0.7600082632934502  0.774578597616383  0.40164342711715756  1.0000
  Br  Br5       1.0  0.7216935541287343  0.45447810230432156  0.08121460802870928  1.0000
  Br  Br6       1.0  0.10671638920509001  0.09039235337073138  0.23256455155595285  1.0000
  Br  Br7       1.0  0.49008889680569473  0.4744076328898998  0.8484286760523785  1.0000
  Br  Br8       1.0  0.9646735092745616  0.6968215749558341  0.8387712606998575  1.0000
  Cl  Cl1       1.0  0.7649239141900424  0.5377015418656086  0.4004371467201934  1.0000
  Cl  Cl2       1.0  0.16843818325865104  0.6673642552951904  0.5304109629639909  1.0000
  Cl  Cl3       1.0  0.7184903236052166  0.21984280861758523  0.08258626476236228  1.0000
  Cl  Cl4       1.0  0.21231665347526982  0.9861334519237984  0.849015878619994  1.0000
  O   O1        1.0  0.0009968488607299002  0.49782813436370776  0.5001117625670161  1.0000
  O   O2        1.0  0.07790408075528181  0.3142349677793774  0.5228026712143715  1.0000
  O   O3        1.0  0.0324915163522661  0.5308237347522606  0.5873593512134788  1.0000
  O   O4        1.0  0.15398473923393396  0.5057098178282333  0.44991153477187124  1.0000
  O   O5        1.0  0.02740318113665551  0.3753766614159701  0.5802913347884482  1.0000
  O   O6        1.0  0.15409716048917943  0.3910135889855084  0.4461779684560482  1.0000
  O   O7        1.0  0.081162752066227  0.586088216958231  0.5306043141451511  1.0000
  O   O8        1.0  0.0039865603498797  0.6582643278446625  0.4493417824736596  1.0000
  O   O9        1.0  0.8898036778115428  0.49394053174979996  0.44378043227710867  1.0000
  O   O10       1.0  0.8914556633602261  0.6515799790622693  0.44796343559895746  1.0000
  O   O11       1.0  0.9976389121824029  0.3843974380906445  0.4406943260912611  1.0000
  O   O12       1.0  0.876618044888467  0.5269793893201253  0.5806569616429441  1.0000
  O   O13       1.0  0.8143418702806571  0.5776174665985817  0.5234843790155495  1.0000
  O   O14       1.0  0.7490139459027957  0.24982704959214172  0.2508684924190803  1.0000
  O   O15       1.0  0.5965086294172367  0.35823722724487794  0.30337405835428644  1.0000
  O   O16       1.0  0.6616298085891829  0.16340346005749484  0.21909836345859185  1.0000
  O   O17       1.0  0.7262991475636865  0.37379382267052125  0.17012005868457436  1.0000
  O   O18       1.0  0.5922646003210801  0.2453937816730942  0.29966969968673846  1.0000
  O   O19       1.0  0.6723371359962443  0.4353261300504912  0.2272594313665478  1.0000
  O   O20       1.0  0.7212241311692439  0.21690946194350158  0.16687013874419415  1.0000
  O   O21       1.0  0.8781328705648336  0.22298294968744156  0.16913188584467054  1.0000
  O   O22       1.0  0.8630409070102871  0.2529959775130309  0.30915243671402237  1.0000
  O   O23       1.0  0.9326946538043117  0.17292900425684385  0.22877852787562594  1.0000
  O   O24       1.0  0.754257477301259  0.3626736958985291  0.30789474312770426  1.0000
  O   O25       1.0  0.7447542470039326  0.09318296975220616  0.29964456443268256  1.0000
  O   O26       1.0  0.8578275774628921  0.09648588515459974  0.3043228062765877  1.0000
  O   O27       1.0  0.2505026077877091  0.7493635548676066  0.7498861564356573  1.0000
  O   O28       1.0  0.3757439202504997  0.7245525052768401  0.668493548112245  1.0000
  O   O29       1.0  0.3657402777248819  0.7542617780188648  0.8087155064175136  1.0000
  O   O30       1.0  0.17184202375703714  0.9333369512282986  0.7272342810617614  1.0000
  O   O31       1.0  0.4337997270837093  0.6745030174504408  0.7272112136230431  1.0000
  O   O32       1.0  0.22435240083905938  0.8756635029704966  0.6686600339688126  1.0000
  O   O33       1.0  0.2535420747515361  0.8592953912550385  0.8076035031260105  1.0000
  O   O34       1.0  0.09471680634935352  0.85847354011986  0.8034285947479204  1.0000
  O   O35       1.0  0.16559249213016616  0.662709047115534  0.7189928291773171  1.0000
  O   O36       1.0  0.09552002524213783  0.7436911300667789  0.7993563621214788  1.0000
  O   O37       1.0  0.2189198375371006  0.7192553203728167  0.6645217641298514  1.0000
  O   O38       1.0  0.3575216458275108  0.5992750550207618  0.8032315249766881  1.0000
  O   O39       1.0  0.24653807083698354  0.5908257001798984  0.7999479759862992  1.0000
  O   O40       1.0  0.5001747447578994  0.9996618676538985  0.00010901339067710528  1.0000
  O   O41       1.0  0.5047631090639655  0.15633819451952752  0.9501258524457227  1.0000
  O   O42       1.0  0.3877993162865111  0.9957412306077557  0.9418121227225383  1.0000
  O   O43       1.0  0.6529919622614813  0.892121470929034  0.9465600279033521  1.0000
  O   O44       1.0  0.3911887834920478  0.1532312432724084  0.9465282694906347  1.0000
  O   O45       1.0  0.6572914614478905  0.00491767366797544  0.9501948263795723  1.0000
  O   O46       1.0  0.4968896981419845  0.8863740698220615  0.9416206937815729  1.0000
  O   O47       1.0  0.5771525265556292  0.8158835805486362  0.022601004435713893  1.0000
  O   O48       1.0  0.5309792927292634  0.030454202949791037  0.08618873016187929  1.0000
  O   O49       1.0  0.5264984564748189  0.8737516488239692  0.0811962400767214  1.0000
  O   O50       1.0  0.5854259918591609  0.0849015904415041  0.031242350049801415  1.0000
  O   O51       1.0  0.3154814762753375  0.07754847356032714  0.022317059266128998  1.0000
  O   O52       1.0  0.37442777584328724  0.02582445060467365  0.08067631977824158  1.0000
