data_image0
_chemical_formula_structural       Zn6H16C24N4O8F8
_chemical_formula_sum              "Zn6 H16 C24 N4 O8 F8"
_cell_length_a       8.194492761101188
_cell_length_b       11.663559580484304
_cell_length_c       11.663559254449156
_cell_angle_alpha    70.69689305157104
_cell_angle_beta     75.44883826467398
_cell_angle_gamma    75.44895576093555

_space_group_name_H-M_alt    "P 1"
_space_group_IT_number       1

loop_
  _space_group_symop_operation_xyz
  'x, y, z'

loop_
  _atom_site_type_symbol
  _atom_site_label
  _atom_site_symmetry_multiplicity
  _atom_site_fract_x
  _atom_site_fract_y
  _atom_site_fract_z
  _atom_site_occupancy
  Zn  Zn1       1.0  0.5585639461890323  0.9243714035532734  0.8977956892339022  1.0000
  Zn  Zn2       1.0  0.9414361981603604  0.1022048778891858  0.0756289165602482  1.0000
  Zn  Zn3       1.0  0.441435781762408  0.07562836066926339  0.10220600680442257  1.0000
  Zn  Zn4       1.0  0.058563529719855  0.8977948843617296  0.9243719227732253  1.0000
  Zn  Zn5       1.0  0.2499999170129215  0.8671420432382106  0.132857366739735  1.0000
  Zn  Zn6       1.0  0.7499998107960765  0.132857717041091  0.8671426158888735  1.0000
  H   H1        1.0  0.23709488667153522  0.29595654435470214  0.954086194013186  1.0000
  H   H2        1.0  0.4938087441439267  0.241588553468837  0.23659759749735798  1.0000
  H   H3        1.0  0.4093965379411345  0.4677544319689133  0.22912805782478776  1.0000
  H   H4        1.0  0.14549124089878523  0.52467157479402  0.933827410860978  1.0000
  H   H5        1.0  0.26290409066447756  0.0459143379598785  0.7040423539485869  1.0000
  H   H6        1.0  0.006193509919832327  0.7634007258215972  0.7584128243695503  1.0000
  H   H7        1.0  0.09060483917145488  0.770869273158013  0.5322465522311858  1.0000
  H   H8        1.0  0.3545056709249366  0.0661727432436265  0.47532723763008977  1.0000
  H   H9        1.0  0.7629098826884047  0.7040432196754833  0.04591203850974782  1.0000
  H   H10       1.0  0.5061897234731918  0.7584112112946855  0.7634051785960307  1.0000
  H   H11       1.0  0.5906019296047659  0.5322453308229953  0.7708738615637428  1.0000
  H   H12       1.0  0.8545132903464959  0.4753291134738902  0.06617055634378495  1.0000
  H   H13       1.0  0.7370958751879612  0.9540844961100845  0.29595703729333417  1.0000
  H   H14       1.0  0.993806456075042  0.2365981121916007  0.2415882802820946  1.0000
  H   H15       1.0  0.9093941045325381  0.22912863918683263  0.4677550410888286  1.0000
  H   H16       1.0  0.6454905137108755  0.9338260865344737  0.5246728236624492  1.0000
  C   C1        1.0  0.27238982340318074  0.3383103241909424  0.012629674236464397  1.0000
  C   C2        1.0  0.41519568328769924  0.307788610715356  0.17188362958803077  1.0000
  C   C3        1.0  0.368828956051523  0.4321458287969691  0.16754841432174314  1.0000
  C   C4        1.0  0.2216152866365421  0.46380628147121433  0.002317109524710777  1.0000
  C   C5        1.0  0.2692763530103973  0.5121431412183526  0.08128171372266729  1.0000
  C   C6        1.0  0.21608407423943993  0.6485043094773744  0.07075515846047152  1.0000
  C   C7        1.0  0.2276105609772117  0.9873701299418086  0.6616889303534137  1.0000
  C   C8        1.0  0.0848017444022418  0.8281162475882553  0.6922096824428435  1.0000
  C   C9        1.0  0.1311732017298796  0.8324490551415594  0.5678556272163319  1.0000
  C   C10       1.0  0.2783847001210233  0.9976821434537867  0.5361922565663093  1.0000
  C   C11       1.0  0.23072197288153967  0.9187171098352496  0.48785623897542507  1.0000
  C   C12       1.0  0.2839175307240467  0.9292437874591715  0.3514952041172136  1.0000
  C   C13       1.0  0.7276134475077782  0.6616903646179607  0.9873693730233551  1.0000
  C   C14       1.0  0.5848030222304176  0.6922102238956  0.8281168417089615  1.0000
  C   C15       1.0  0.6311730545251207  0.5678548605529202  0.8324517129931405  1.0000
  C   C16       1.0  0.7783894827233979  0.5361934825589713  0.997681122998223  1.0000
  C   C17       1.0  0.7307236128420342  0.48785569285161756  0.9187176775192538  1.0000
  C   C18       1.0  0.7839156536407829  0.35149545277354843  0.9292456808730021  1.0000
  C   C19       1.0  0.7723891667605685  0.012629628365886  0.3383101955703366  1.0000
  C   C20       1.0  0.9151939640754849  0.17188443263690092  0.30779070491821153  1.0000
  C   C21       1.0  0.8688242434539148  0.1675497800103827  0.4321459241357174  1.0000
  C   C22       1.0  0.721613767211217  0.0023176134232798995  0.46380709270764686  1.0000
  C   C23       1.0  0.7692752341163783  0.08128264758281031  0.512144190353595  1.0000
  C   C24       1.0  0.7160824351996099  0.0707550485824058  0.6485050438295658  1.0000
  N   N1        1.0  0.3671521662105378  0.2617545673666299  0.09637208314680375  1.0000
  N   N2        1.0  0.13284795794820073  0.9036264464985138  0.7382438542067787  1.0000
  N   N3        1.0  0.6328473234838088  0.7382461171504033  0.9036276341636337  1.0000
  N   N4        1.0  0.8671532683097709  0.0963723890020773  0.26175531368494387  1.0000
  O   O1        1.0  0.27630041371721586  0.6871911079390003  0.13846105017143626  1.0000
  O   O2        1.0  0.11724430355253902  0.7099366790259013  0.994140960778843  1.0000
  O   O3        1.0  0.22369884267403253  0.8615386879311161  0.3128091074214295  1.0000
  O   O4        1.0  0.3827549408099101  0.005860066210878799  0.2900630112424806  1.0000
  O   O5        1.0  0.7236990761195656  0.3128095805212538  0.8615403805487175  1.0000
  O   O6        1.0  0.8827574690518816  0.29006493850494053  0.0058606146275863805  1.0000
  O   O7        1.0  0.7762996247294254  0.13846107091756468  0.6871910985573848  1.0000
  O   O8        1.0  0.6172425043026664  0.9941387669694496  0.7099376834047104  1.0000
  F   F1        1.0  0.49992774554451813  0.8905192475090118  0.09144428107232729  1.0000
  F   F2        1.0  0.3057027183931567  0.9112957350957489  0.9295962864994677  1.0000
  F   F3        1.0  7.07272812264211e-05  0.9085566272749971  0.10948121679141562  1.0000
  F   F4        1.0  0.1942963251886241  0.07040394573542129  0.08870469569932032  1.0000
  F   F5        1.0  0.5000707220013823  0.10948051528289679  0.9085576383162035  1.0000
  F   F6        1.0  0.6942955808703388  0.0887095745531212  0.0704038176298312  1.0000
  F   F7        1.0  0.9999287624843304  0.09144405921364299  0.8905193572238871  1.0000
  F   F8        1.0  0.8057036408062502  0.929594892277777  0.9112964089523246  1.0000
