data_image0
_chemical_formula_structural       Co2H54C66N10O14
_chemical_formula_sum              "Co2 H54 C66 N10 O14"
_cell_length_a       10.293262295952772
_cell_length_b       12.895481921168772
_cell_length_c       14.54644417601198
_cell_angle_alpha    110.80929059938758
_cell_angle_beta     106.03238590130503
_cell_angle_gamma    99.61255854322877

_space_group_name_H-M_alt    "P 1"
_space_group_IT_number       1

loop_
  _space_group_symop_operation_xyz
  'x, y, z'

loop_
  _atom_site_type_symbol
  _atom_site_label
  _atom_site_symmetry_multiplicity
  _atom_site_fract_x
  _atom_site_fract_y
  _atom_site_fract_z
  _atom_site_occupancy
  Co  Co1       1.0  0.9178917328065667  0.0228415017429811  0.7196450451964724  1.0000
  Co  Co2       1.0  0.0820995131182228  0.9771287585468327  0.2803266431100368  1.0000
  H   H1        1.0  0.0657158742213255  0.3162771121987973  0.44765615613763293  1.0000
  H   H2        1.0  0.9342855300592705  0.6837394858798475  0.5523500939861776  1.0000
  H   H3        1.0  0.03889183865216235  0.3277401203433782  0.22873047436943486  1.0000
  H   H4        1.0  0.9610986676851567  0.6722573474724028  0.7712657115300275  1.0000
  H   H5        1.0  0.15037099797358167  0.24159580521585158  0.8007250847197795  1.0000
  H   H6        1.0  0.8496158773249219  0.7584327567770116  0.19926934188644194  1.0000
  H   H7        1.0  0.22449111543200223  0.3873467318415394  0.7356324308177095  1.0000
  H   H8        1.0  0.7754730765089378  0.6126836520121088  0.26436125061457016  1.0000
  H   H9        1.0  0.9324459170916698  0.1437130023086439  0.42408883258185887  1.0000
  H   H10       1.0  0.06754664835680292  0.8562818811481917  0.5759083839005257  1.0000
  H   H11       1.0  0.8595088795505532  0.013577941244911098  0.504575651891443  1.0000
  H   H12       1.0  0.14051516343199208  0.9864229976097434  0.4954306281796903  1.0000
  H   H13       1.0  0.05586757680481468  0.3949348093127796  0.3647029425747306  1.0000
  H   H14       1.0  0.9441246764519275  0.6050767412062185  0.6353088274226761  1.0000
  H   H15       1.0  0.23668600224740996  0.7115191709020579  0.3507418626106896  1.0000
  H   H16       1.0  0.763314865460032  0.2884729797476666  0.6492493898462544  1.0000
  H   H17       1.0  0.34984482547886137  0.8069720435478162  0.5476766764594602  1.0000
  H   H18       1.0  0.6501746460121042  0.19304351226385558  0.45232408879964947  1.0000
  H   H19       1.0  0.3184246459927493  0.6932545486003433  0.6517595619774568  1.0000
  H   H20       1.0  0.6815818404983318  0.3067481473728364  0.3482435841609188  1.0000
  H   H21       1.0  0.0106335460460656  0.026665758058427993  0.9282747398840671  1.0000
  H   H22       1.0  0.9893847357827568  0.9733309625506122  0.07173595221979667  1.0000
  H   H23       1.0  0.06820494901919719  0.1609218306187756  0.11663151372578538  1.0000
  H   H24       1.0  0.9317835807507535  0.8390807092605285  0.8833575274065026  1.0000
  H   H25       1.0  0.9501664570821121  0.4146432698484475  0.005485697446204122  1.0000
  H   H26       1.0  0.04981932864539117  0.5853273146276479  0.9945035159776908  1.0000
  H   H27       1.0  0.9008111139326477  0.2717032541936248  0.8246220575461082  1.0000
  H   H28       1.0  0.09919589244071153  0.7282837254271329  0.17537167660575653  1.0000
  H   H29       1.0  0.6171235007169996  0.6807230436531454  0.45749116607934326  1.0000
  H   H30       1.0  0.3828811027773612  0.319274116522692  0.542541561172321  1.0000
  H   H31       1.0  0.4754957306431463  0.49322470264150536  0.3019960081659363  1.0000
  H   H32       1.0  0.5245198366281301  0.5067765520731484  0.6980264782126824  1.0000
  H   H33       1.0  0.6715625948857847  0.7129510998671477  0.770659079036207  1.0000
  H   H34       1.0  0.32844441618307474  0.2870658450655342  0.2293690731637525  1.0000
  H   H35       1.0  0.2840448074207842  0.0889407102104087  0.9279311517189441  1.0000
  H   H36       1.0  0.7159541709971505  0.9110436848139256  0.0720608223542101  1.0000
  H   H37       1.0  0.5010202419601343  0.23165202587140496  0.0799415773085599  1.0000
  H   H38       1.0  0.4989593126149288  0.7683289055222743  0.9200446223289944  1.0000
  H   H39       1.0  0.2571976929179342  0.7262216235216951  0.7948947954990047  1.0000
  H   H40       1.0  0.7427715003062829  0.2737419846853371  0.20508611884083192  1.0000
  H   H41       1.0  0.4463832629122351  0.009307756412837898  0.7760612144195065  1.0000
  H   H42       1.0  0.5536207817661136  0.9906766210408691  0.2239311229600176  1.0000
  H   H43       1.0  0.30245760481314216  0.9801984445655306  0.6596210637181271  1.0000
  H   H44       1.0  0.6975461480528508  0.019787599605017192  0.3403675861279254  1.0000
  H   H45       1.0  0.37271393785290735  0.1218712588582989  0.7641887965452484  1.0000
  H   H46       1.0  0.6272769998155638  0.8781142258421255  0.23581420511942505  1.0000
  H   H47       1.0  0.5493219570494148  0.14968899378199296  0.5784999781734399  1.0000
  H   H48       1.0  0.450690507430032  0.8503250802952849  0.42151332301188654  1.0000
  H   H49       1.0  0.42697896447019446  0.20170092289578176  0.6361621474386397  1.0000
  H   H50       1.0  0.5730379690715708  0.798311373706305  0.36384949019161894  1.0000
  H   H51       1.0  0.3703539016392199  0.06218612426915368  0.5283566536776974  1.0000
  H   H52       1.0  0.629655569264365  0.9378304763580584  0.4716519665786763  1.0000
  H   H53       1.0  0.6481785488246034  0.022305449530627196  0.7615245321005447  1.0000
  H   H54       1.0  0.3518234534527522  0.977699035710657  0.23848096560919876  1.0000
  C   C1        1.0  0.10252838429244798  0.22392523650044174  0.7177678322024477  1.0000
  C   C2        1.0  0.8974698179230882  0.7761068101603285  0.2822313747394034  1.0000
  C   C3        1.0  0.14543733735732897  0.30483052197388355  0.6815996802436004  1.0000
  C   C4        1.0  0.8545467436911309  0.6952040757406975  0.31839322087571986  1.0000
  C   C5        1.0  0.0807594672821779  0.2792966022496088  0.5741679481369388  1.0000
  C   C6        1.0  0.9192315134638845  0.7207078249451865  0.4258311085651414  1.0000
  C   C7        1.0  0.980254655155271  0.169926571610489  0.5086465436788644  1.0000
  C   C8        1.0  0.019756586697056377  0.8300792279533766  0.4913372064055537  1.0000
  C   C9        1.0  0.9411619535343833  0.0967286559110718  0.552644747523729  1.0000
  C   C10       1.0  0.058841637076042695  0.9032790425237138  0.4473469154851414  1.0000
  C   C11       1.0  0.1766960202071458  0.4725234775554838  0.5818000699870183  1.0000
  C   C12       1.0  0.8232893198171567  0.5274678694396399  0.4181904551526827  1.0000
  C   C13       1.0  0.1867012729750144  0.5365731507453974  0.514925314300328  1.0000
  C   C14       1.0  0.8132787560087917  0.46341474002729643  0.4850637561398372  1.0000
  C   C15       1.0  0.12330247451821916  0.48430942345031974  0.4049459877483841  1.0000
  C   C16       1.0  0.8766872966802167  0.515691495728234  0.5950497032471063  1.0000
  C   C17       1.0  0.14324833643878065  0.5462195682722211  0.3456229061930998  1.0000
  C   C18       1.0  0.8567364458343435  0.45377620438124916  0.6543736416037403  1.0000
  C   C19       1.0  0.22372840335299315  0.663299345050639  0.39746748050001907  1.0000
  C   C20       1.0  0.7762790622776878  0.3366946057420392  0.6025298124707632  1.0000
  C   C21       1.0  0.2856366072536431  0.7162555790966181  0.507362700447608  1.0000
  C   C22       1.0  0.7143707523171088  0.28373845424643207  0.4926394086372596  1.0000
  C   C23       1.0  0.2683034538375466  0.65367009019743  0.5661081538510472  1.0000
  C   C24       1.0  0.7316794020565212  0.3463154037473402  0.4338931656973628  1.0000
  C   C25       1.0  0.99744093629689  0.1129659109909298  0.9494447623704049  1.0000
  C   C26       1.0  0.0025773107997862656  0.8870319490144067  0.05058207952274055  1.0000
  C   C27       1.0  0.02703829927722269  0.18698881960014546  0.05326796474759019  1.0000
  C   C28       1.0  0.9729614082529849  0.8130209853557632  0.9467448365372421  1.0000
  C   C29       1.0  0.009947215668411452  0.29846972228391166  0.07650240062157107  1.0000
  C   C30       1.0  0.9900550321876692  0.7015243640084917  0.9235014092058194  1.0000
  C   C31       1.0  0.9644883654338087  0.3298849493327721  0.9925881832615673  1.0000
  C   C32       1.0  0.0355148670560155  0.6701164843491227  0.0074414121708201685  1.0000
  C   C33       1.0  0.9369938775020968  0.24940035573161617  0.8908815176417735  1.0000
  C   C34       1.0  0.06300675770611969  0.7506069603641662  0.10913760809184224  1.0000
  C   C35       1.0  0.08892562756197715  0.49054869944629315  0.22764063538580354  1.0000
  C   C36       1.0  0.9110300045844468  0.509439336988521  0.7723502688685357  1.0000
  C   C37       1.0  0.746795976652983  0.8278222616377915  0.6620079978698996  1.0000
  C   C38       1.0  0.253230743797566  0.1721716200279388  0.3379905380618311  1.0000
  C   C39       1.0  0.6535737788992649  0.7070490257296386  0.6171844215377646  1.0000
  C   C40       1.0  0.3464505662937185  0.2929881903614628  0.3828210962231466  1.0000
  C   C41       1.0  0.5956365434597899  0.6415742523125374  0.5089606762529542  1.0000
  C   C42       1.0  0.4043651390597631  0.35843558571101397  0.49105460960983294  1.0000
  C   C43       1.0  0.512155284961942  0.5249624070143424  0.46504043151933416  1.0000
  C   C44       1.0  0.4878458677518792  0.4750481706021218  0.53496740131407  1.0000
  C   C45       1.0  0.45394444717059207  0.4552439969281679  0.35435136293002506  1.0000
  C   C46       1.0  0.5460326922446371  0.5447284757814758  0.6456448651374914  1.0000
  C   C47       1.0  0.6266549001435422  0.658267417379335  0.685976199864804  1.0000
  C   C48       1.0  0.37333327122033205  0.34172041697738104  0.3140118006264458  1.0000
  C   C49       1.0  0.11723766321480152  0.8830558004310659  0.7704578712675313  1.0000
  C   C50       1.0  0.8827539024677977  0.11690910707648781  0.22950402888592697  1.0000
  C   C51       1.0  0.257269344262312  0.9066470034954223  0.853631371336391  1.0000
  C   C52       1.0  0.7427136516251877  0.09335114124461091  0.14635176158414961  1.0000
  C   C53       1.0  0.3315203573886265  0.0194144210929963  0.9281091883852143  1.0000
  C   C54       1.0  0.6684678139752549  0.9805734132637198  0.07187881210603554  1.0000
  C   C55       1.0  0.4686956527355264  0.04621587863395861  0.0018321832267104885  1.0000
  C   C56       1.0  0.5312962859913739  0.9537860361148986  0.9981718218915533  1.0000
  C   C57       1.0  0.5483561983630949  0.1614533102026527  0.07758621032934342  1.0000
  C   C58       1.0  0.4516710056402858  0.8385537399908287  0.9224246219561821  1.0000
  C   C59       1.0  0.31736011210594467  0.8149294175392182  0.8526264722063246  1.0000
  C   C60       1.0  0.6826442471022389  0.18506459568463637  0.1473736300523427  1.0000
  C   C61       1.0  0.4005669717698979  0.045050302191171517  0.7211270084077626  1.0000
  C   C62       1.0  0.5994270101373758  0.954940272380881  0.27887127584500604  1.0000
  C   C63       1.0  0.4592739336218798  0.12469055381817643  0.6000945233173172  1.0000
  C   C64       1.0  0.5407363110881392  0.875320013398401  0.39991520189688873  1.0000
  C   C65       1.0  0.630016370414289  0.0604259017433151  0.7037007236315489  1.0000
  C   C66       1.0  0.3699893893026314  0.9395776871306012  0.29630391368930725  1.0000
  N   N1        1.0  0.9994340204314585  0.1225068350950735  0.6563695818366855  1.0000
  N   N2        1.0  0.0005845385329123587  0.8775111977838108  0.34362417095735515  1.0000
  N   N3        1.0  0.10788949057600662  0.35460960582949513  0.528741742617747  1.0000
  N   N4        1.0  0.8920988741063665  0.6453879586406471  0.4712595268830313  1.0000
  N   N5        1.0  0.040620151296259545  0.3707097538504626  0.18155093984366033  1.0000
  N   N6        1.0  0.9593576814342556  0.6292720598065884  0.8184358526955438  1.0000
  N   N7        1.0  0.9521670971648531  0.14223459990439838  0.8682796545932306  1.0000
  N   N8        1.0  0.04785866401230268  0.857775340108141  0.1317482457976595  1.0000
  N   N9        1.0  0.5013032135513243  0.0751250885906884  0.6751282454999982  1.0000
  N   N10       1.0  0.4987122437246184  0.9248776913258819  0.32488229714956407  1.0000
  O   O1        1.0  0.2291775853306675  0.5233947787621104  0.6794703579097005  1.0000
  O   O2        1.0  0.7708107542575533  0.4766104610941396  0.3205249533317059  1.0000
  O   O3        1.0  0.09554631998641842  0.5480921189688389  0.17587973211989555  1.0000
  O   O4        1.0  0.9044027560410868  0.45190396536553834  0.8241252807931191  1.0000
  O   O5        1.0  0.0908139442010807  0.9735604391912105  0.7610655342041851  1.0000
  O   O6        1.0  0.909241123559447  0.0264336897887674  0.23890460346947157  1.0000
  O   O7        1.0  0.03827683138312916  0.7797328674753032  0.7136389596466728  1.0000
  O   O8        1.0  0.9617107404252537  0.22024954449723563  0.2863349143292028  1.0000
  O   O9        1.0  0.7963085596836805  0.8896083821043701  0.7611750002526705  1.0000
  O   O10       1.0  0.2037041197669112  0.1104095161928527  0.23880923475858404  1.0000
  O   O11       1.0  0.7775697388195155  0.8691621251109112  0.5994370709449228  1.0000
  O   O12       1.0  0.2224785857771181  0.13085518183596176  0.4005729846151809  1.0000
  O   O13       1.0  0.7236525871618015  0.0857568791256398  0.6691892803841384  1.0000
  O   O14       1.0  0.2763667897899964  0.9142459905120432  0.33082760745394063  1.0000
