data_image0
_chemical_formula_structural       Ca4H44C48N4O20
_chemical_formula_sum              "Ca4 H44 C48 N4 O20"
_cell_length_a       6.827593917034865
_cell_length_b       10.344037327053462
_cell_length_c       17.87925569500624
_cell_angle_alpha    89.9999454851136
_cell_angle_beta     90.00007902727124
_cell_angle_gamma    90.00036093775917

_space_group_name_H-M_alt    "P 1"
_space_group_IT_number       1

loop_
  _space_group_symop_operation_xyz
  'x, y, z'

loop_
  _atom_site_type_symbol
  _atom_site_label
  _atom_site_symmetry_multiplicity
  _atom_site_fract_x
  _atom_site_fract_y
  _atom_site_fract_z
  _atom_site_occupancy
  Ca  Ca1       1.0  0.5006022392805393  0.25830247599912326  0.025111284556480505  1.0000
  Ca  Ca2       1.0  0.9993990482306144  0.7417023564126665  0.5251114022991743  1.0000
  Ca  Ca3       1.0  0.4993985920561315  0.7583012689969523  0.4748899359734082  1.0000
  Ca  Ca4       1.0  0.0006019635983278999  0.24170463675982742  0.9748900682200626  1.0000
  H   H1        1.0  0.4059203111237224  0.5347281213038002  0.11866932811790326  1.0000
  H   H2        1.0  0.09408042315775592  0.4652696650911139  0.6186682669924509  1.0000
  H   H3        1.0  0.5940871544022456  0.0347281653413702  0.3813314571273949  1.0000
  H   H4        1.0  0.9059154190677957  0.9652731855504725  0.8813319608927801  1.0000
  H   H5        1.0  0.6030996880544138  0.5078288666501506  0.248421992427872  1.0000
  H   H6        1.0  0.8968892237613134  0.492168834151137  0.7484098898100059  1.0000
  H   H7        1.0  0.39688701333174947  0.0078283101409653  0.251584400807694  1.0000
  H   H8        1.0  0.1031068775693953  0.992171192820315  0.7515858486948944  1.0000
  H   H9        1.0  0.12232017777807871  0.540780084022508  0.382844118977289  1.0000
  H   H10       1.0  0.37768151021933255  0.45922597194772397  0.882837617584393  1.0000
  H   H11       1.0  0.8776712349448205  0.0407768936457131  0.11716057805931972  1.0000
  H   H12       1.0  0.6223245262624103  0.959221021357216  0.617163732273241  1.0000
  H   H13       1.0  0.3091011632574165  0.41593664275982434  0.2875622722361726  1.0000
  H   H14       1.0  0.1909001807949124  0.584074402397036  0.7875578403883738  1.0000
  H   H15       1.0  0.6908953279548982  0.9159279522109427  0.21244221669604715  1.0000
  H   H16       1.0  0.8090993126007932  0.08407560774940488  0.7124420396481099  1.0000
  H   H17       1.0  0.13913584276031093  0.33110587161073807  0.1740709494067616  1.0000
  H   H18       1.0  0.3608636269330319  0.6689053587462366  0.6740637635322386  1.0000
  H   H19       1.0  0.8608612958992553  0.8310918955532927  0.32593358658451177  1.0000
  H   H20       1.0  0.639136683651529  0.1689105124712711  0.8259338322162578  1.0000
  H   H21       1.0  0.8736750441501825  0.5489547441211824  0.029576253208595898  1.0000
  H   H22       1.0  0.6263262594424077  0.45104234708033886  0.5295763355826892  1.0000
  H   H23       1.0  0.12633548768403102  0.04894981574383909  0.47042340553228  1.0000
  H   H24       1.0  0.3736709103591097  0.9510415962042913  0.9704255781184729  1.0000
  H   H25       1.0  0.018078438445698508  0.6206766355974762  0.9595431319900954  1.0000
  H   H26       1.0  0.48192059712852864  0.3793225280164093  0.45954320075892247  1.0000
  H   H27       1.0  0.9819316600412265  0.12067690005035557  0.5404533719010232  1.0000
  H   H28       1.0  0.518079935344737  0.8793211401592914  0.0404579526385618  1.0000
  H   H29       1.0  0.06100202966331381  0.8112935747854595  0.0330464687263756  1.0000
  H   H30       1.0  0.43899546622179736  0.18870338458633998  0.5330457427818304  1.0000
  H   H31       1.0  0.9390256757183053  0.3112900662583655  0.4669480107271583  1.0000
  H   H32       1.0  0.5609977118391001  0.6887053445155543  0.9669529605980857  1.0000
  H   H33       1.0  0.8937241861900916  0.7481052091772822  0.09864227742848192  1.0000
  H   H34       1.0  0.606277366730744  0.2518908025777478  0.5986430190178142  1.0000
  H   H35       1.0  0.10629558725795357  0.2480983774609342  0.4013511184610081  1.0000
  H   H36       1.0  0.39371934930601793  0.7518931472181053  0.9013567679263377  1.0000
  H   H37       1.0  0.3080304927442796  0.7784586682962952  0.12324716578505959  1.0000
  H   H38       1.0  0.1919731873507331  0.2215381438927224  0.6232474100638471  1.0000
  H   H39       1.0  0.6919895731521563  0.2784610565484087  0.37675180633824124  1.0000
  H   H40       1.0  0.8080232363056226  0.7215412685773828  0.8767535123320658  1.0000
  H   H41       1.0  0.1484014486076646  0.687212488759833  0.18085077736970592  1.0000
  H   H42       1.0  0.35160243944856273  0.3127861629097026  0.6808510551530846  1.0000
  H   H43       1.0  0.8516060211211001  0.1872078946215083  0.3191460081387945  1.0000
  H   H44       1.0  0.648396327828799  0.8127867905618231  0.8191492573195378  1.0000
  C   C1        1.0  0.7557074868041838  0.3703839074134335  0.13468523323807352  1.0000
  C   C2        1.0  0.7442839437643229  0.6296236463951104  0.6346796856421407  1.0000
  C   C3        1.0  0.24428710093349085  0.8703721609525626  0.3653153658117675  1.0000
  C   C4        1.0  0.25571159447376596  0.1296261896843944  0.8653179318962148  1.0000
  C   C5        1.0  0.726668043159819  0.5969885917791373  0.37968081997759384  1.0000
  C   C6        1.0  0.7733242718140402  0.40300986156798757  0.8796759726974062  1.0000
  C   C7        1.0  0.273320981740092  0.09698870720144008  0.12032160864782072  1.0000
  C   C8        1.0  0.22667389992012943  0.9030052095177294  0.6203270862645314  1.0000
  C   C9        1.0  0.8606847810850909  0.4157077633478039  0.20328150428586164  1.0000
  C   C10       1.0  0.6393068971115525  0.5842987117827504  0.703274248589324  1.0000
  C   C11       1.0  0.13930877861716343  0.9156966631323514  0.29672074754361694  1.0000
  C   C12       1.0  0.36068820452746314  0.08430469966015859  0.7967222754758583  1.0000
  C   C13       1.0  0.7574907384607031  0.4863017998741127  0.2569022578637217  1.0000
  C   C14       1.0  0.742504062564649  0.5136978205786276  0.7568939770962402  1.0000
  C   C15       1.0  0.24249617808001742  0.9862970126739582  0.24310107341705844  1.0000
  C   C16       1.0  0.25749475290376017  0.013701537383326499  0.7431037047491529  1.0000
  C   C17       1.0  0.848794088240915  0.5285030582629701  0.3224469450053534  1.0000
  C   C18       1.0  0.6512009493899384  0.4714935550091042  0.8224386395337078  1.0000
  C   C19       1.0  0.15120013550346556  0.0284996770048451  0.1775560809201764  1.0000
  C   C20       1.0  0.348797882066279  0.9714951130645699  0.6775593476707371  1.0000
  C   C21       1.0  0.049020298002020006  0.5043106544129968  0.33302436251432976  1.0000
  C   C22       1.0  0.45097681618030094  0.49568968240391337  0.8330173202115888  1.0000
  C   C23       1.0  0.9509722280455649  0.004305751202871  0.16697867683120657  1.0000
  C   C24       1.0  0.5490237130063065  0.9956920825048742  0.6669812128783762  1.0000
  C   C25       1.0  0.153336261160824  0.4342956978487393  0.2793040523544406  1.0000
  C   C26       1.0  0.3466591944808358  0.5657124605528948  0.7792969162379536  1.0000
  C   C27       1.0  0.8466574776010916  0.9342847352367657  0.22069930777873037  1.0000
  C   C28       1.0  0.6533386573978531  0.06571591102893849  0.7207012960610372  1.0000
  C   C29       1.0  0.059446331473935715  0.38794228233093253  0.21532598570770034  1.0000
  C   C30       1.0  0.44055035784600705  0.612065013734906  0.7153199919714197  1.0000
  C   C31       1.0  0.9405498900337078  0.8879267683778379  0.2846768408332069  1.0000
  C   C32       1.0  0.5594450112756207  0.11207280674352656  0.7846776353055774  1.0000
  C   C33       1.0  0.18234500574272522  0.5207824908483831  0.0426868036056121  1.0000
  C   C34       1.0  0.3176569188602514  0.4792096190961885  0.5426886491026935  1.0000
  C   C35       1.0  0.8176652547162249  0.020779464908350996  0.4573117521476108  1.0000
  C   C36       1.0  0.6823390576537135  0.9792140280739758  0.9573121303569393  1.0000
  C   C37       1.0  0.0097311132127302  0.6033611287630406  0.020110851363682507  1.0000
  C   C38       1.0  0.49027072991047055  0.3966358517259608  0.5201111557092803  1.0000
  C   C39       1.0  0.990282872013431  0.10335877703652592  0.4798859806600291  1.0000
  C   C40       1.0  0.5097288450899101  0.8966366126014478  0.9798896695577287  1.0000
  C   C41       1.0  0.0284060145315905  0.7266582471753009  0.0678242176860664  1.0000
  C   C42       1.0  0.4715945361934644  0.2733386554500044  0.5678240212781702  1.0000
  C   C43       1.0  0.9716120876880299  0.22665396291237974  0.4321703087141629  1.0000
  C   C44       1.0  0.528402386447553  0.7733405378545298  0.9321757537685899  1.0000
  C   C45       1.0  0.19932271313332708  0.700274272019172  0.12294625144624403  1.0000
  C   C46       1.0  0.3006795012305831  0.2997225406578678  0.6229465096408761  1.0000
  C   C47       1.0  0.8006892763717844  0.20027324060079368  0.3770510861242046  1.0000
  C   C48       1.0  0.6993176755750382  0.7997261838021713  0.8770538100771577  1.0000
  N   N1        1.0  0.28584012063257097  0.5805881296096088  0.09544180678245341  1.0000
  N   N2        1.0  0.21416199443634554  0.4194096946943731  0.5954380378396638  1.0000
  N   N3        1.0  0.7141648573786199  0.08058959712266049  0.4045589530222814  1.0000
  N   N4        1.0  0.7858348706618089  0.9194126825985195  0.9045610968706796  1.0000
  O   O1        1.0  0.5812508862816586  0.41053035789379083  0.1229419579847288  1.0000
  O   O2        1.0  0.9187375725459717  0.5894675476717381  0.6229303722144196  1.0000
  O   O3        1.0  0.4187499467567691  0.910517377438147  0.37705750018221823  1.0000
  O   O4        1.0  0.08125611423693613  0.08947322012384258  0.8770655896758157  1.0000
  O   O5        1.0  0.8407311267764542  0.29239716127650434  0.0901923736756984  1.0000
  O   O6        1.0  0.6592674664641793  0.7076230327755083  0.5901917717781373  1.0000
  O   O7        1.0  0.1592612450772322  0.7923859587083227  0.40980938724909083  1.0000
  O   O8        1.0  0.3407332170523745  0.20762005323886965  0.9098085990321964  1.0000
  O   O9        1.0  0.5503131957160222  0.6245181107820271  0.3643490314511197  1.0000
  O   O10       1.0  0.9496790638975766  0.3754774673617333  0.8643454109930888  1.0000
  O   O11       1.0  0.44968195295546565  0.12451892765379569  0.13565226328971394  1.0000
  O   O12       1.0  0.050321771884675605  0.8754672301402235  0.6356599004734989  1.0000
  O   O13       1.0  0.8030334083198555  0.6248462917469054  0.44350228106504375  1.0000
  O   O14       1.0  0.6969562078161575  0.3751626915919032  0.9434985276062948  1.0000
  O   O15       1.0  0.19695442027725116  0.1248442632628581  0.0565001321074021  1.0000
  O   O16       1.0  0.30303876635219507  0.875153624565165  0.5565023095738441  1.0000
  O   O17       1.0  0.22289458477987273  0.41105658088636676  0.015707533714916608  1.0000
  O   O18       1.0  0.2771087071344597  0.5889491074555905  0.5157081783577269  1.0000
  O   O19       1.0  0.7771165058890973  0.9110545690383843  0.4842891276227875  1.0000
  O   O20       1.0  0.7228864392865049  0.0889504808018486  0.9842922582808669  1.0000
