data_image0
_chemical_formula_structural       Cu4H36C36N4O16
_chemical_formula_sum              "Cu4 H36 C36 N4 O16"
_cell_length_a       6.643249560538189
_cell_length_b       9.272826549583662
_cell_length_c       16.43729855103692
_cell_angle_alpha    76.56356037408896
_cell_angle_beta     78.37566069956601
_cell_angle_gamma    68.97451995250715

_space_group_name_H-M_alt    "P 1"
_space_group_IT_number       1

loop_
  _space_group_symop_operation_xyz
  'x, y, z'

loop_
  _atom_site_type_symbol
  _atom_site_label
  _atom_site_symmetry_multiplicity
  _atom_site_fract_x
  _atom_site_fract_y
  _atom_site_fract_z
  _atom_site_occupancy
  Cu  Cu1       1.0  0.03476038315102418  0.9608765689504679  0.7975670466030634  1.0000
  Cu  Cu2       1.0  0.7924376920601262  0.5394511626617984  0.7025333330065493  1.0000
  Cu  Cu3       1.0  0.9652373839378895  0.0391261064013904  0.20243094238231407  1.0000
  Cu  Cu4       1.0  0.2075708605827275  0.46054432639176207  0.2974685445928884  1.0000
  H   H1        1.0  0.25830189901306283  0.13226298975924067  0.7057498999978051  1.0000
  H   H2        1.0  0.0958214618941969  0.36786561087507846  0.794378964234184  1.0000
  H   H3        1.0  0.7417019173488129  0.8677348897417899  0.29425080236364926  1.0000
  H   H4        1.0  0.9041843098486456  0.6321310896374969  0.2056219581904841  1.0000
  H   H5        1.0  0.01303842629879894  0.21200971930874596  0.6795154975770927  1.0000
  H   H6        1.0  0.9041928053784221  0.2882679894912172  0.8206501972112931  1.0000
  H   H7        1.0  0.9869609401895193  0.7879916913194264  0.3204846686652161  1.0000
  H   H8        1.0  0.09581047187182912  0.7117310631600375  0.1793504091574363  1.0000
  H   H9        1.0  0.21631344495112642  0.5749864928232782  0.9373943351691878  1.0000
  H   H10       1.0  0.7274547221292313  0.9253168220898755  0.562571060747004  1.0000
  H   H11       1.0  0.783685434064232  0.42501729073768496  0.06260502804659042  1.0000
  H   H12       1.0  0.2725568641178384  0.07467514167476003  0.43743122890109726  1.0000
  H   H13       1.0  0.030864881136615643  0.592178937374122  0.867272957557091  1.0000
  H   H14       1.0  0.48936147611576075  0.9081526520501628  0.6327292548531602  1.0000
  H   H15       1.0  0.9691359016210371  0.40782246741582634  0.1327273327557066  1.0000
  H   H16       1.0  0.5106456086190789  0.09184164305906252  0.36727320570960126  1.0000
  H   H17       1.0  0.926742682443418  0.732278830230257  0.02174834886653796  1.0000
  H   H18       1.0  0.6804880853107701  0.7675549654112784  0.4781458978379049  1.0000
  H   H19       1.0  0.07325341567193581  0.26772616478972106  0.9782500591744635  1.0000
  H   H20       1.0  0.31951621852406487  0.2324405411569685  0.52185560755008  1.0000
  H   H21       1.0  0.6883410157363062  0.8742532294468643  0.11605999330299713  1.0000
  H   H22       1.0  0.6784761471354275  0.6254984449116421  0.38396530011016944  1.0000
  H   H23       1.0  0.31165513401772665  0.125752965355673  0.8839377077042059  1.0000
  H   H24       1.0  0.3215179901098111  0.37449941635411227  0.6160358799105339  1.0000
  H   H25       1.0  0.44258745950988043  0.12308990334928886  0.1623504582938295  1.0000
  H   H26       1.0  0.7280159843054651  0.3766672553690853  0.33774430343874673  1.0000
  H   H27       1.0  0.5574087418828245  0.8769174912358083  0.8376465356795676  1.0000
  H   H28       1.0  0.2719744432433799  0.6233294502611244  0.6622566003632286  1.0000
  H   H29       1.0  0.3885708771909577  0.3740120583868745  0.06098282530781769  1.0000
  H   H30       1.0  0.8243982451056269  0.12574232129653498  0.43914438803778916  1.0000
  H   H31       1.0  0.6114307545103659  0.6259953719481928  0.9390133187948776  1.0000
  H   H32       1.0  0.1755881504684641  0.8742565974724811  0.5608593789841264  1.0000
  H   H33       1.0  0.5762639183485521  0.37551348910561444  0.9126103018291615  1.0000
  H   H34       1.0  0.8654494389716021  0.12434648511135289  0.5875188276651429  1.0000
  H   H35       1.0  0.42374074695699443  0.6244904159405423  0.08738625432219749  1.0000
  H   H36       1.0  0.1345415613920693  0.8756525018781999  0.4124833543745083  1.0000
  C   C1        1.0  0.30774305807602814  0.6537270664552394  0.8040810458828602  1.0000
  C   C2        1.0  0.7650843577455435  0.8465059566391702  0.6958627643619194  1.0000
  C   C3        1.0  0.6922538318551686  0.3462744415846116  0.19591691502475328  1.0000
  C   C4        1.0  0.23492699373278464  0.1534860662283606  0.3041381791335382  1.0000
  C   C5        1.0  0.13832589742848733  0.6473912183743309  0.8818337565695342  1.0000
  C   C6        1.0  0.6666646409119822  0.8528704553458794  0.6181292124395127  1.0000
  C   C7        1.0  0.8616734690598304  0.35261019225384177  0.1181664096727744  1.0000
  C   C8        1.0  0.33334777085413264  0.14712147594820377  0.3818738123201512  1.0000
  C   C9        1.0  0.9110551045304343  0.8325416127085603  0.9693688584278702  1.0000
  C   C10       1.0  0.7126257527459073  0.6674656772114387  0.530629049792914  1.0000
  C   C11       1.0  0.08894294896588667  0.16746220332296247  0.03062976967635221  1.0000
  C   C12       1.0  0.28737571855024413  0.3325298410332638  0.4693722074540999  1.0000
  C   C13       1.0  0.7773894574931867  0.9831608436629788  0.9900313590722972  1.0000
  C   C14       1.0  0.7505962556760865  0.5167682118721119  0.5100434527752782  1.0000
  C   C15       1.0  0.2226089856878986  0.016846512613326994  0.009966494083151598  1.0000
  C   C16       1.0  0.24940359828518427  0.4832308258232771  0.4899575164935611  1.0000
  C   C17       1.0  0.6678139150177462  0.9860469212866502  0.07290688949541392  1.0000
  C   C18       1.0  0.7268384768444138  0.5137423613771689  0.42714898475310986  1.0000
  C   C19       1.0  0.33218365100562175  0.013959267677655901  0.9270909355822708  1.0000
  C   C20       1.0  0.27315483488177955  0.4862555323591451  0.5728514601560235  1.0000
  C   C21       1.0  0.5308017812852982  0.12403151265477418  0.0991678604559354  1.0000
  C   C22       1.0  0.7542446671977316  0.37573368944038077  0.40091818022046505  1.0000
  C   C23       1.0  0.46919588801541345  0.8759770758746511  0.9008285505541451  1.0000
  C   C24       1.0  0.2457461321004005  0.6242688111616204  0.5990838379114933  1.0000
  C   C25       1.0  0.4990318920855972  0.26483786067792886  0.04106026479032471  1.0000
  C   C26       1.0  0.8055892911098682  0.2349432226508767  0.45904490751905064  1.0000
  C   C27       1.0  0.5009690972267509  0.7351683432422502  0.9589371973872572  1.0000
  C   C28       1.0  0.19440165761513165  0.7650545645561166  0.5409579815544062  1.0000
  C   C29       1.0  0.6045618953243876  0.2672054058741082  0.958932088861232  1.0000
  C   C30       1.0  0.8314278842253772  0.23266033961332508  0.5411819776146629  1.0000
  C   C31       1.0  0.3954431080272444  0.7328008396342726  0.04106439937515922  1.0000
  C   C32       1.0  0.1685637068885982  0.7673386740085492  0.45881959338390726  1.0000
  C   C33       1.0  0.747632706967011  0.1274159747169605  0.9312582839349091  1.0000
  C   C34       1.0  0.8064773093010094  0.3725497009478359  0.5688604148022591  1.0000
  C   C35       1.0  0.252368718179625  0.8725866564878686  0.06874068830300221  1.0000
  C   C36       1.0  0.19351793987068072  0.6274492685270303  0.4311421394488519  1.0000
  N   N1        1.0  0.009972884881804887  0.8054004730512431  0.8956183800890469  1.0000
  N   N2        1.0  0.7102746726933377  0.6948469047164778  0.6043860110193149  1.0000
  N   N3        1.0  0.9900257077261472  0.1946021698300555  0.10438034400790032  1.0000
  N   N4        1.0  0.289732177272761  0.30514744949564226  0.39561510339080286  1.0000
  O   O1        1.0  0.848720387743953  0.1371603544848057  0.8527085571455969  1.0000
  O   O2        1.0  0.8383254638119273  0.3629496187577814  0.6474810489610333  1.0000
  O   O3        1.0  0.1512813417455661  0.8628411626726872  0.14728916493239547  1.0000
  O   O4        1.0  0.16167492926096852  0.6370482457873831  0.3525200163005309  1.0000
  O   O5        1.0  0.27924537479960776  0.788188655751874  0.7550800261225916  1.0000
  O   O6        1.0  0.8221322558416237  0.7120773758306952  0.7449147279281689  1.0000
  O   O7        1.0  0.7207437913959187  0.21181165506424549  0.2449186325074777  1.0000
  O   O8        1.0  0.17788334444473028  0.2879146295221489  0.2550865877787487  1.0000
  O   O9        1.0  0.7779663828490373  0.9697385573477322  0.7101152669112025  1.0000
  O   O10       1.0  0.4579653400076542  0.5304078922468064  0.789774065105952  1.0000
  O   O11       1.0  0.22204589742568007  0.03025583261435121  0.2898849976282135  1.0000
  O   O12       1.0  0.5420300820155292  0.46959242184872363  0.21022447876498515  1.0000
  O   O13       1.0  0.13395021815174615  0.10803123209395686  0.6973064895554657  1.0000
  O   O14       1.0  0.9387589416232699  0.39219918658104547  0.8028905049938473  1.0000
  O   O15       1.0  0.8660496358095248  0.8919678056014321  0.30269447971337365  1.0000
  O   O16       1.0  0.06124570025765049  0.6077986604494258  0.1971109324791769  1.0000
