data_image0
_chemical_formula_structural       Al2H24C48N6O24
_chemical_formula_sum              "Al2 H24 C48 N6 O24"
_cell_length_a       4.163415537285739
_cell_length_b       28.598453520219902
_cell_length_c       28.599060529838518
_cell_angle_alpha    120.0002469818629
_cell_angle_beta     90.00100393728654
_cell_angle_gamma    90.00027242490343

_space_group_name_H-M_alt    "P 1"
_space_group_IT_number       1

loop_
  _space_group_symop_operation_xyz
  'x, y, z'

loop_
  _atom_site_type_symbol
  _atom_site_label
  _atom_site_symmetry_multiplicity
  _atom_site_fract_x
  _atom_site_fract_y
  _atom_site_fract_z
  _atom_site_occupancy
  Al  Al1       1.0  0.024523044679440904  0.4999990174046831  0.4999972064559446  1.0000
  Al  Al2       1.0  0.0245615924506524  0.16667236681851003  0.8333355827200607  1.0000
  H   H1        1.0  0.8459568579693626  0.19376567809164436  0.7052952059771728  1.0000
  H   H2        1.0  0.8312869093563507  0.24916738027886962  0.66172268861353  1.0000
  H   H3        1.0  0.17047807472583543  0.35931049484597816  0.7841182200687413  1.0000
  H   H4        1.0  0.18535214870959751  0.30325733985430514  0.8273057726928175  1.0000
  H   H5        1.0  0.17044627659150544  0.30736599311143203  0.5492146058431544  1.0000
  H   H6        1.0  0.8312758787014191  0.41750593484204057  0.671618285900884  1.0000
  H   H7        1.0  0.8459448229190372  0.4729146687413961  0.6280528184361388  1.0000
  H   H8        1.0  0.18530500272049014  0.36342301879845007  0.5060337686808866  1.0000
  H   H9        1.0  0.8459671180109185  0.011545233482600342  0.8062323783316359  1.0000
  H   H10       1.0  0.831411329981613  0.9125687763159291  0.7508389255458354  1.0000
  H   H11       1.0  0.170536452331099  0.9248110684718398  0.6406889754772324  1.0000
  H   H12       1.0  0.18530124674520473  0.024044614351311167  0.6967323677016922  1.0000
  H   H13       1.0  0.17052694107403712  0.7418558067182062  0.6926344675058189  1.0000
  H   H14       1.0  0.83134814490802  0.7541070642076948  0.582485423803469  1.0000
  H   H15       1.0  0.8458913272836883  0.6551295409559972  0.5270862521566432  1.0000
  H   H16       1.0  0.18529585605612203  0.6426185998505505  0.6365823580692125  1.0000
  H   H17       1.0  0.8459659487617516  0.29470381711325194  0.9884678303541748  1.0000
  H   H18       1.0  0.8313787477767962  0.3382777526797654  0.08743706552093052  1.0000
  H   H19       1.0  0.17052674409637095  0.21587696224462866  0.07518576637199463  1.0000
  H   H20       1.0  0.18530608581433944  0.17269445699553657  0.9759558907521325  1.0000
  H   H21       1.0  0.17050320289507687  0.4507755684446409  0.2581443462793304  1.0000
  H   H22       1.0  0.8313256638279685  0.3283741901156391  0.2458965130599965  1.0000
  H   H23       1.0  0.845921319724454  0.3719509854008437  0.34486797402864516  1.0000
  H   H24       1.0  0.18529582145040993  0.49395813656610704  0.3573736511368751  1.0000
  C   C1        1.0  0.5227310047303036  0.46186378696950225  0.4176705605783512  1.0000
  C   C2        1.0  0.5227381486223454  0.45581353247467166  0.5381368163590639  1.0000
  C   C3        1.0  0.5227454097697689  0.5823273485505215  0.5441891558815615  1.0000
  C   C4        1.0  0.5227279368324957  0.21086846112233107  0.795203973017756  1.0000
  C   C5        1.0  0.5227254781488  0.08434359284463283  0.7891333138513447  1.0000
  C   C6        1.0  0.5227302760521513  0.204797921868412  0.9156604419699478  1.0000
  C   C7        1.0  0.5135229207087876  0.24464167162612685  0.7687064811402494  1.0000
  C   C8        1.0  0.6920991858197497  0.22934827145945044  0.7217751170744293  1.0000
  C   C9        1.0  0.6819743165296117  0.26058036421584774  0.6970514793110212  1.0000
  C   C10       1.0  0.4943636255767743  0.307664472327204  0.71898244316683  1.0000
  C   C11       1.0  0.3203485758066833  0.32323365555813427  0.7667758424203228  1.0000
  C   C12       1.0  0.32782175377267464  0.29174236189969366  0.7911999057331232  1.0000
  C   C13       1.0  0.4764638636182213  0.340893032550639  0.6932743119166178  1.0000
  C   C14       1.0  0.4764532080537621  0.325780783246998  0.6400610683822806  1.0000
  C   C15       1.0  0.3203104503516983  0.3434454948295384  0.5665650815253188  1.0000
  C   C16       1.0  0.49432455750600485  0.3590115819025074  0.6143564090947111  1.0000
  C   C17       1.0  0.6819370425720735  0.40609541222685425  0.6362909628363485  1.0000
  C   C18       1.0  0.6920815889876196  0.43732993955629246  0.6115677534668224  1.0000
  C   C19       1.0  0.5134751548214355  0.42203918023284365  0.5646367888047196  1.0000
  C   C20       1.0  0.3277577145109731  0.3749366456854519  0.5421433072454108  1.0000
  C   C21       1.0  0.5135088604977512  0.024070960220072463  0.7553547618895993  1.0000
  C   C22       1.0  0.6921075462427668  0.992436518405434  0.7706508374316814  1.0000
  C   C23       1.0  0.6820504973037486  0.9364785780096841  0.7394208889713031  1.0000
  C   C24       1.0  0.49445127389789423  0.9113214906007487  0.6923352645316925  1.0000
  C   C25       1.0  0.32039906326925666  0.9435435333618686  0.676766207055913  1.0000
  C   C26       1.0  0.32780205617955  0.9994585092310759  0.7082551991589131  1.0000
  C   C27       1.0  0.4765279181890635  0.8523926792412411  0.6591115708810664  1.0000
  C   C28       1.0  0.4765089813562042  0.8142835748142193  0.6742240547978543  1.0000
  C   C29       1.0  0.32039660268426934  0.7231240289422376  0.6565589173591421  1.0000
  C   C30       1.0  0.49445761511024255  0.7553499690417383  0.6409947816490275  1.0000
  C   C31       1.0  0.6820215206056732  0.7301967496334357  0.5939072026515504  1.0000
  C   C32       1.0  0.6920969802537869  0.6742393079091403  0.5626733240917191  1.0000
  C   C33       1.0  0.5134844097332946  0.6425991640109247  0.5779656679071294  1.0000
  C   C34       1.0  0.3277939577222496  0.6672081461017428  0.6250645862104282  1.0000
  C   C35       1.0  0.5135207497233694  0.2312936634153361  0.9759323843099212  1.0000
  C   C36       1.0  0.6921242997103292  0.2782230581765006  0.007570441211441905  1.0000
  C   C37       1.0  0.6820257911250708  0.30294679332727276  0.06352674117105295  1.0000
  C   C38       1.0  0.4944189555537832  0.2810158362915304  0.08867792219745506  1.0000
  C   C39       1.0  0.3203836342793736  0.2332247358071768  0.05645176548828351  1.0000
  C   C40       1.0  0.3278088646882722  0.2088026291919931  0.000540703301375321  1.0000
  C   C41       1.0  0.47647371922284515  0.3067172825885294  0.1476076786846079  1.0000
  C   C42       1.0  0.47647689166227286  0.3599380267021744  0.18571953759072812  1.0000
  C   C43       1.0  0.32037378123698096  0.43342900845981097  0.2768753062250155  1.0000
  C   C44       1.0  0.4944204584304117  0.3856392098019655  0.24465107203127462  1.0000
  C   C45       1.0  0.6819911631793971  0.3637042618354017  0.2698053598688689  1.0000
  C   C46       1.0  0.6920924158973278  0.3884306874494855  0.3257611327987037  1.0000
  C   C47       1.0  0.513484530307295  0.4353617919387389  0.3573992171856162  1.0000
  C   C48       1.0  0.32777531991655456  0.45785167148876144  0.3327893565928194  1.0000
  N   N1        1.0  0.46266368148627646  0.40013601730219517  0.7333202918313475  1.0000
  N   N2        1.0  0.4626558566218222  0.2665339411649087  0.6000160590583051  1.0000
  N   N3        1.0  0.4627060564160317  0.8331949035613065  0.5998707855657628  1.0000
  N   N4        1.0  0.4627621319491342  0.8334799158036436  0.7334633882599921  1.0000
  N   N5        1.0  0.46268745356434965  0.26667049804473925  0.16680532413843718  1.0000
  N   N6        1.0  0.4627160630608956  0.3999831206024211  0.1665213956147085  1.0000
  O   O1        1.0  0.7621618285500775  0.558563015624749  0.550879384773623  1.0000
  O   O2        1.0  0.7621493474393972  0.49232032985479907  0.44143497581894314  1.0000
  O   O3        1.0  0.7621574199123416  0.4491161936942306  0.5076819324616936  1.0000
  O   O4        1.0  0.2901455823812995  0.5597033518855526  0.5115295842966462  1.0000
  O   O5        1.0  0.29013459750381543  0.48847048914255004  0.5481683151534256  1.0000
  O   O6        1.0  0.29012990639910197  0.4518313286042004  0.4402958737840877  1.0000
  O   O7        1.0  0.7621399490646894  0.1743452742064805  0.8918957790283742  1.0000
  O   O8        1.0  0.7621366809650427  0.21755629556436434  0.8256573225110486  1.0000
  O   O9        1.0  0.7621298696902558  0.10811250581559761  0.7824463483553998  1.0000
  O   O10       1.0  0.290124387091062  0.21483527355156448  0.8930385207928282  1.0000
  O   O11       1.0  0.29011111205958423  0.10696513976220262  0.821788934499054  1.0000
  O   O12       1.0  0.2901172948122763  0.17821189165197657  0.7851733789691339  1.0000
  O   O13       1.0  0.6582652334918677  0.41687479415183054  0.7708164347207358  1.0000
  O   O14       1.0  0.2560930131554144  0.4278718372764916  0.7275652718830161  1.0000
  O   O15       1.0  0.6582403357518843  0.249793670996553  0.5625198779557153  1.0000
  O   O16       1.0  0.2560873644827383  0.23879817264707984  0.6057724879845381  1.0000
  O   O17       1.0  0.6583116190318422  0.8539478211183964  0.5831299755497599  1.0000
  O   O18       1.0  0.2560994269225247  0.7997043916760235  0.572134540365582  1.0000
  O   O19       1.0  0.6584002445193065  0.8127159306529638  0.7501913559142398  1.0000
  O   O20       1.0  0.2562368077454664  0.8669797830162979  0.7612176137832593  1.0000
  O   O21       1.0  0.6583014185198621  0.22917866898450975  0.14605062612150024  1.0000
  O   O22       1.0  0.25611397768949473  0.27242111064393987  0.20029656506810065  1.0000
  O   O23       1.0  0.6583529800913723  0.43747449092921203  0.18727991631894989  1.0000
  O   O24       1.0  0.2561647893744663  0.3942364097730149  0.13302491628424926  1.0000
