data_image0
_chemical_formula_structural       Zn4H18C82N4Cl12O16F12
_chemical_formula_sum              "Zn4 H18 C82 N4 Cl12 O16 F12"
_cell_length_a       11.02595598780412
_cell_length_b       13.884511559168564
_cell_length_c       26.274831550942263
_cell_angle_alpha    89.62188688096045
_cell_angle_beta     88.30390363982208
_cell_angle_gamma    89.67418390007632

_space_group_name_H-M_alt    "P 1"
_space_group_IT_number       1

loop_
  _space_group_symop_operation_xyz
  'x, y, z'

loop_
  _atom_site_type_symbol
  _atom_site_label
  _atom_site_symmetry_multiplicity
  _atom_site_fract_x
  _atom_site_fract_y
  _atom_site_fract_z
  _atom_site_occupancy
  Zn  Zn1       1.0  0.5208778666367095  0.39471477925033593  0.5021442873090365  1.0000
  Zn  Zn2       1.0  0.5185646021057906  0.5964654510735203  0.5031612718492369  1.0000
  Zn  Zn3       1.0  0.47712562126351793  0.6070434478989098  0.08099270956877548  1.0000
  Zn  Zn4       1.0  0.4782398304425826  0.40495858464789336  0.0862741326681089  1.0000
  H   H1        1.0  0.3731456992702178  0.24552623517150346  0.5521112123083397  1.0000
  H   H2        1.0  0.6687247782165714  0.24047526127305474  0.45068887182414136  1.0000
  H   H3        1.0  0.6597651613504355  0.7457705182778724  0.4521895301647447  1.0000
  H   H4        1.0  0.3654562024650119  0.749780632400139  0.5542181164970117  1.0000
  H   H5        1.0  0.6607893267006517  0.413165209227401  0.18627158103874558  1.0000
  H   H6        1.0  0.6712672627190983  0.35840326032482045  0.3731022998745033  1.0000
  H   H7        1.0  0.4997498988405411  0.640747924446444  0.6608107768168948  1.0000
  H   H8        1.0  0.5101805323858741  0.3316103083757157  0.6668623560288153  1.0000
  H   H9        1.0  0.5017842811175015  0.3481204592285749  0.9257907593172233  1.0000
  H   H10       1.0  0.4890183751308612  0.6571693933695643  0.9190576553882506  1.0000
  H   H11       1.0  0.7949237640365396  0.585201524889797  0.5921513876036002  1.0000
  H   H12       1.0  0.24684059065086925  0.5779811479358302  0.5868843788404873  1.0000
  H   H13       1.0  0.348164840918507  0.7621049770184527  0.0254308707758639  1.0000
  H   H14       1.0  0.610000582609274  0.7537402589166291  0.1355116353552361  1.0000
  H   H15       1.0  0.6195842808593498  0.2489253944041963  0.13869973751755538  1.0000
  H   H16       1.0  0.3491339137207063  0.2569443456696732  0.0320832107857214  1.0000
  H   H17       1.0  0.7507217106304864  0.41076701497921414  0.003409035699092999  1.0000
  H   H18       1.0  0.20255648291792028  0.4103622548321583  0.9960643049951797  1.0000
  C   C1        1.0  0.5067226132380043  0.4839398385591167  0.6020228914741779  1.0000
  C   C2        1.0  0.28446504078304  0.4992532366383601  0.5013985443110229  1.0000
  C   C3        1.0  0.5249536878187301  0.49437440568716806  0.40349746241380297  1.0000
  C   C4        1.0  0.755357226586213  0.5070907611871078  0.5048893146823588  1.0000
  C   C5        1.0  0.4903259285470299  0.507563775196303  0.9842144452128636  1.0000
  C   C6        1.0  0.2426619279376965  0.49584226908993406  0.0811579381142877  1.0000
  C   C7        1.0  0.4770628902849765  0.5199338395955879  0.1822160835621034  1.0000
  C   C8        1.0  0.7135077362905663  0.5014470059420475  0.0856070775476496  1.0000
  C   C9        1.0  0.4365287242337176  0.2004308841894442  0.5302370516126018  1.0000
  C   C10       1.0  0.43070261231650153  0.09959992485762832  0.5319140074363915  1.0000
  C   C11       1.0  0.3433009618368815  0.047282719972379504  0.5622280963719746  1.0000
  C   C12       1.0  0.6030479732045748  0.1978496013495672  0.4727878411178068  1.0000
  C   C13       1.0  0.6048940347624877  0.09693617789902483  0.47166213571643567  1.0000
  C   C14       1.0  0.6909129677726185  0.042098672897736805  0.4419617303870281  1.0000
  C   C15       1.0  0.5961310797482753  0.7906292341155916  0.47406581855723556  1.0000
  C   C16       1.0  0.6008965657945354  0.8913696648433103  0.4721452404875137  1.0000
  C   C17       1.0  0.6885911295382598  0.943475819647901  0.4419862360284411  1.0000
  C   C18       1.0  0.43018472650795303  0.7927638665993513  0.5318367453867978  1.0000
  C   C19       1.0  0.42730824024208397  0.8937302683929006  0.5326868037550553  1.0000
  C   C20       1.0  0.3416271070068788  0.9485491843965692  0.5626151432033737  1.0000
  C   C21       1.0  0.5166509814700149  0.04631124631801241  0.5018672501016326  1.0000
  C   C22       1.0  0.514837269191041  0.9445252445503343  0.502192601181406  1.0000
  C   C23       1.0  0.4921380854598567  0.5183595134715945  0.23906988871693358  1.0000
  C   C24       1.0  0.5782650309808021  0.4526449620219283  0.2595436208202031  1.0000
  C   C25       1.0  0.42404267112065247  0.5767121410937578  0.27170566594875817  1.0000
  C   C26       1.0  0.6612025019236044  0.4018008734524657  0.22724458530970537  1.0000
  C   C27       1.0  0.7468474780475842  0.3404602096359923  0.24678168413931453  1.0000
  C   C28       1.0  0.5130762868280313  0.5009279811448694  0.3465054372198111  1.0000
  C   C29       1.0  0.43456239986103634  0.5681032001314321  0.32558925397045607  1.0000
  C   C30       1.0  0.586154939262869  0.4412794460621186  0.3135553570591298  1.0000
  C   C31       1.0  0.6693260841420853  0.37225480637971503  0.3323927499811532  1.0000
  C   C32       1.0  0.7477792906996827  0.3224055853795775  0.30009895082714877  1.0000
  C   C33       1.0  0.5011994582648286  0.5750738355583421  0.6835488172123617  1.0000
  C   C34       1.0  0.4997715719149767  0.5793269064800413  0.7367223828580336  1.0000
  C   C35       1.0  0.4962204928639551  0.6686744163603962  0.7634327182420221  1.0000
  C   C36       1.0  0.5068690541798162  0.3999146421012583  0.686946202688759  1.0000
  C   C37       1.0  0.5049466276606296  0.4020835880049844  0.7402863098948557  1.0000
  C   C38       1.0  0.5064616108306694  0.31650927793736366  0.7708695022884555  1.0000
  C   C39       1.0  0.4995435236420532  0.4136774057012148  0.9029606369956369  1.0000
  C   C40       1.0  0.5013439460934493  0.4091363767574379  0.8496946881421863  1.0000
  C   C41       1.0  0.5049241694401588  0.31987475388834247  0.8228481323620185  1.0000
  C   C42       1.0  0.4927277599030191  0.5887787615656207  0.8990864754750304  1.0000
  C   C43       1.0  0.4955567681547279  0.5863451007957536  0.845835181516776  1.0000
  C   C44       1.0  0.49414350987828476  0.6720271602391039  0.8153782379551869  1.0000
  C   C45       1.0  0.5046373775220374  0.4860239424177806  0.6590331301134356  1.0000
  C   C46       1.0  0.501397591064979  0.49241429648930785  0.7661486065471976  1.0000
  C   C47       1.0  0.49469270263094256  0.502971324613661  0.92724836518628  1.0000
  C   C48       1.0  0.4994629614367057  0.4958810925612624  0.820120547169431  1.0000
  C   C49       1.0  0.8919430297785452  0.5072213458701142  0.5043770784217898  1.0000
  C   C50       1.0  0.9549276645479383  0.5431404201636383  0.5469658498529242  1.0000
  C   C51       1.0  0.956587150721802  0.4738531147787839  0.46193743320620934  1.0000
  C   C52       1.0  0.893582383521057  0.5817975620767442  0.5905080727343018  1.0000
  C   C53       1.0  0.9568169614357063  0.61827301153852  0.630591995329233  1.0000
  C   C54       1.0  0.1482334010221393  0.502082315408849  0.5025424333801921  1.0000
  C   C55       1.0  0.0855384188656529  0.46959983083298346  0.4613108892402948  1.0000
  C   C56       1.0  0.08494798168158722  0.541135655857687  0.5457208585538139  1.0000
  C   C57       1.0  0.1479502876571459  0.5784872721664558  0.5874706869673005  1.0000
  C   C58       1.0  0.0860493557609985  0.6170985655214807  0.6289942360632708  1.0000
  C   C59       1.0  0.405923167973782  0.8043286780740431  0.049636155800627094  1.0000
  C   C60       1.0  0.4040199296248731  0.9052836726486646  0.0489203482517411  1.0000
  C   C61       1.0  0.3267442051215923  0.9612232423890033  0.0173030551114834  1.0000
  C   C62       1.0  0.5543961834654496  0.7995759272060993  0.1116537049196538  1.0000
  C   C63       1.0  0.5599537153510709  0.9002784877470235  0.11361267301205659  1.0000
  C   C64       1.0  0.6382418283366463  0.9512528288809037  0.1462917267070338  1.0000
  C   C65       1.0  0.5599692726272423  0.20703191746661528  0.11511827576552489  1.0000
  C   C66       1.0  0.5626949082323165  0.10600794125733871  0.1154413142247819  1.0000
  C   C67       1.0  0.6396475843759291  0.0499111813691897  0.14714752092213956  1.0000
  C   C68       1.0  0.4085618082595914  0.21142743628829663  0.0544038427013902  1.0000
  C   C69       1.0  0.4056384221257333  0.11079367283897312  0.0512497453780725  1.0000
  C   C70       1.0  0.3273105606027045  0.0598712283312608  0.018468122070451905  1.0000
  C   C71       1.0  0.4828330923505674  0.9547089809046126  0.0816780257575971  1.0000
  C   C72       1.0  0.4839361502869437  0.05646358349368799  0.08270361067726378  1.0000
  C   C73       1.0  0.8497885508216072  0.49820691060399724  0.0845236137791829  1.0000
  C   C74       1.0  0.9128175785633914  0.4543685647766297  0.042614980240493594  1.0000
  C   C75       1.0  0.9129432642242392  0.5367595624163783  0.12409410375574478  1.0000
  C   C76       1.0  0.8496104444421636  0.41175349167910014  0.0023652149846568973  1.0000
  C   C77       1.0  0.9113950584744898  0.36975895680987486  0.9617449421376774  1.0000
  C   C78       1.0  0.10613639988361001  0.4951975095166148  0.08206601205567668  1.0000
  C   C79       1.0  0.04193431888011649  0.5336271169237746  0.12343777149553861  1.0000
  C   C80       1.0  0.04282974640845082  0.45381196642689753  0.04098643240052269  1.0000
  C   C81       1.0  0.10390660595801648  0.41162928965462  0.99833164500739  1.0000
  C   C82       1.0  0.040604946590391905  0.3701083321410793  0.9596574161561263  1.0000
  N   N1        1.0  0.5207369283378894  0.2464066034902288  0.5013543307766994  1.0000
  N   N2        1.0  0.5129187821754826  0.7444920071596146  0.5033026241858636  1.0000
  N   N3        1.0  0.4790983620205439  0.7548401089410391  0.08040146931357127  1.0000
  N   N4        1.0  0.48398439529687215  0.256537827509483  0.08551988416626699  1.0000
  Cl  Cl1       1.0  0.3439228397060603  0.6403259704228363  0.36389603031907575  1.0000
  Cl  Cl2       1.0  0.3245178547088088  0.6607238548996222  0.24815396619246846  1.0000
  Cl  Cl3       1.0  0.8535777472050088  0.28839176223624463  0.20617995244103327  1.0000
  Cl  Cl4       1.0  0.8469570442055603  0.23892237864011887  0.3244713844325062  1.0000
  Cl  Cl5       1.0  0.1636586034127774  0.42559037494030605  0.4086792976483764  1.0000
  Cl  Cl6       1.0  0.8824520660683958  0.44113574131836236  0.40810149492525477  1.0000
  Cl  Cl7       1.0  0.8777801859110711  0.6658145160410599  0.6822501937916597  1.0000
  Cl  Cl8       1.0  0.16660967195473117  0.6641667973060308  0.6782083949353747  1.0000
  Cl  Cl9       1.0  0.11660759634035862  0.5743782677804462  0.17545683521215238  1.0000
  Cl  Cl10      1.0  0.835004743244731  0.588134341704901  0.1749892398703352  1.0000
  Cl  Cl11      1.0  0.8309212010508632  0.31720317538318454  0.9140930895543561  1.0000
  Cl  Cl12      1.0  0.11978922399283934  0.3183651738209221  0.9091960008123648  1.0000
  O   O1        1.0  0.5213820241667052  0.4027512787828016  0.5805537799208763  1.0000
  O   O2        1.0  0.49379390856994837  0.5648022692509329  0.5792199739209138  1.0000
  O   O3        1.0  0.3363598093774556  0.5799239227612533  0.4943208966101266  1.0000
  O   O4        1.0  0.3349765320968103  0.4182706647414989  0.5083874821080768  1.0000
  O   O5        1.0  0.5493058248290126  0.571798731683785  0.42629194782467283  1.0000
  O   O6        1.0  0.5105229970937801  0.4118891595671101  0.4242269495819427  1.0000
  O   O7        1.0  0.7039098083108116  0.4260394432976042  0.5007423986049346  1.0000
  O   O8        1.0  0.7032588050220951  0.5884871127807686  0.5100764690469859  1.0000
  O   O9        1.0  0.471722180777519  0.5899984101791489  0.0039317074069344995  1.0000
  O   O10       1.0  0.50522569482591  0.42883756752280544  0.0087224424329548  1.0000
  O   O11       1.0  0.2951749273697216  0.414185367478062  0.0774329215450251  1.0000
  O   O12       1.0  0.29382761436373533  0.5771563101244296  0.08371046359851417  1.0000
  O   O13       1.0  0.44999408201707075  0.4398837943215029  0.1624227422678359  1.0000
  O   O14       1.0  0.4952920718504856  0.5987839586599862  0.1585647431736277  1.0000
  O   O15       1.0  0.6637387878408134  0.5806595033173635  0.0743571964461367  1.0000
  O   O16       1.0  0.6604525398037425  0.4225496029472354  0.09708410265174189  1.0000
  F   F1        1.0  0.25828785816705857  0.9011514177891727  0.5915814888845574  1.0000
  F   F2        1.0  0.2616101498933361  0.0971478576685456  0.5908555881730208  1.0000
  F   F3        1.0  0.770635128009417  0.8935764059794237  0.413560711764255  1.0000
  F   F4        1.0  0.7756713835918062  0.08930351015376202  0.41375076912679987  1.0000
  F   F5        1.0  0.49043392107148537  0.7583537694247724  0.839225550389763  1.0000
  F   F6        1.0  0.49454924747114154  0.7516852271961767  0.7359383989952875  1.0000
  F   F7        1.0  0.5066554920184387  0.23673545565269194  0.8502676242673884  1.0000
  F   F8        1.0  0.5095082406358743  0.23006997393270717  0.7470959144115241  1.0000
  F   F9        1.0  0.2529976112586354  0.11093048820536212  0.9885740539051752  1.0000
  F   F10       1.0  0.2519687491850888  0.9148510178356092  0.9861639746616646  1.0000
  F   F11       1.0  0.7139540614718101  0.0957649595813379  0.1785705755572238  1.0000
  F   F12       1.0  0.7113666198791151  0.9004133625184565  0.1768192958348536  1.0000
