data_image0
_chemical_formula_structural       Zn2H32C24N4O18
_chemical_formula_sum              "Zn2 H32 C24 N4 O18"
_cell_length_a       4.927931794395755
_cell_length_b       4.92791522911055
_cell_length_c       29.701056728001664
_cell_angle_alpha    89.99909235335328
_cell_angle_beta     89.99908165533654
_cell_angle_gamma    88.33968311713839

_space_group_name_H-M_alt    "P 1"
_space_group_IT_number       1

loop_
  _space_group_symop_operation_xyz
  'x, y, z'

loop_
  _atom_site_type_symbol
  _atom_site_label
  _atom_site_symmetry_multiplicity
  _atom_site_fract_x
  _atom_site_fract_y
  _atom_site_fract_z
  _atom_site_occupancy
  Zn  Zn1       1.0  0.23854321761123728  0.7614598113628687  0.7500001270281442  1.0000
  Zn  Zn2       1.0  0.7614606249926721  0.2385436935223595  0.24999977751276242  1.0000
  H   H1        1.0  0.40800686867826375  0.19928749045464395  0.8001029858343002  1.0000
  H   H2        1.0  0.5920025497363637  0.8006980511747127  0.3001021076480086  1.0000
  H   H3        1.0  0.800719932686512  0.5919914602330819  0.699897596196763  1.0000
  H   H4        1.0  0.19929625600539674  0.4080206281617649  0.19989678272356304  1.0000
  H   H5        1.0  0.569050222508963  0.9096645142297743  0.8164916293259876  1.0000
  H   H6        1.0  0.4309544545197284  0.09031823101382486  0.31649074912712644  1.0000
  H   H7        1.0  0.09033684875222289  0.43094514942037426  0.6835085375623036  1.0000
  H   H8        1.0  0.9096759678578434  0.5690703039448265  0.18350754632458427  1.0000
  H   H9        1.0  0.9661223550287802  0.22932007311140262  0.7353891702368996  1.0000
  H   H10       1.0  0.033893807061644986  0.7706794851468782  0.23538887839556816  1.0000
  H   H11       1.0  0.7706766957234448  0.03387982393667951  0.7646107877927901  1.0000
  H   H12       1.0  0.2293327494277193  0.9661182478761531  0.2646089525355748  1.0000
  H   H13       1.0  0.07590950630002169  0.06825661070787699  0.8490305790671895  1.0000
  H   H14       1.0  0.924105149497471  0.9317476276167157  0.34902759842640296  1.0000
  H   H15       1.0  0.931735818491546  0.9240842461362176  0.6509687177261865  1.0000
  H   H16       1.0  0.0682641303022535  0.0759383502170294  0.1509705570049391  1.0000
  H   H17       1.0  0.2592865267049689  0.309959134600902  0.8802818160896206  1.0000
  H   H18       1.0  0.7407105270944995  0.6900340890701171  0.3802828916598172  1.0000
  H   H19       1.0  0.6900323056866497  0.7406978878908036  0.6197197577129498  1.0000
  H   H20       1.0  0.3099743523775799  0.25931820762214386  0.11971500692861527  1.0000
  H   H21       1.0  0.39839231557176186  0.0735814962684813  0.9384235469718117  1.0000
  H   H22       1.0  0.601588907376687  0.9263987878439293  0.43842086196365654  1.0000
  H   H23       1.0  0.9263989707328475  0.6015937949060728  0.5615785407333646  1.0000
  H   H24       1.0  0.0735813387163873  0.3984483505943857  0.06158089966532999  1.0000
  H   H25       1.0  0.06506325409024068  0.06510298042923782  4.232056419099998e-06  1.0000
  H   H26       1.0  0.9349095409654564  0.9349153823947348  0.49999898422194605  1.0000
  H   H27       1.0  0.7648404106629768  0.764819928089089  9.911261429e-07  1.0000
  H   H28       1.0  0.23517559121750503  0.23516088059032816  0.5000002050710535  1.0000
  H   H29       1.0  0.8088799835756929  0.06696123654492682  0.9094893955685347  1.0000
  H   H30       1.0  0.19111180011771006  0.9330161834483164  0.40948872207989934  1.0000
  H   H31       1.0  0.9330090465212278  0.19110920009935475  0.5905105694984554  1.0000
  H   H32       1.0  0.06698793212005678  0.8089054678663171  0.09051314209998647  1.0000
  C   C1        1.0  0.022481322032668106  0.48028525687534807  0.8274178357937101  1.0000
  C   C2        1.0  0.977518212258161  0.5197133646772939  0.327417637154582  1.0000
  C   C3        1.0  0.5197178373979128  0.9775019657475141  0.6725838541671292  1.0000
  C   C4        1.0  0.48028650684645385  0.022512782088703928  0.17258182871001534  1.0000
  C   C5        1.0  0.0611508209944063  0.2697572283589125  0.8648033994120181  1.0000
  C   C6        1.0  0.9388507448461424  0.7302367158786466  0.3648031505651445  1.0000
  C   C7        1.0  0.7302286383882048  0.9388390407070588  0.635195938098782  1.0000
  C   C8        1.0  0.2697734244207409  0.061174309179115496  0.13519462750023334  1.0000
  C   C9        1.0  0.7973685009364287  0.47242396909608425  0.9264015380418227  1.0000
  C   C10       1.0  0.20263949178666954  0.5275674300459129  0.4264019753946967  1.0000
  C   C11       1.0  0.5275476816258049  0.20262274284070253  0.5735971829573359  1.0000
  C   C12       1.0  0.4724390902033021  0.7973754945924797  0.07359540915278727  1.0000
  C   C13       1.0  0.6002737447424025  0.42984015862534614  0.963997667784916  1.0000
  C   C14       1.0  0.3997097104394243  0.5701443492084336  0.4639913860637248  1.0000
  C   C15       1.0  0.5701283009864042  0.39972730782075416  0.5360045453003366  1.0000
  C   C16       1.0  0.4298554445097266  0.6003000619583859  0.03600856675993919  1.0000
  C   C17       1.0  0.4073190564013913  0.22597446832969584  0.9649650858444755  1.0000
  C   C18       1.0  0.5926735246066669  0.7740377687425306  0.46496059938183976  1.0000
  C   C19       1.0  0.7740208843042848  0.5926716737742481  0.5350394989995165  1.0000
  C   C20       1.0  0.22594375993902818  0.4073327276106014  0.03504068525073479  1.0000
  C   C21       1.0  0.21910848495890176  0.2191194859401904  2.2057851793999997e-06  1.0000
  C   C22       1.0  0.780884427297323  0.7808934052877631  0.4999993270526061  1.0000
  C   C23       1.0  0.6112095567900936  0.6111775552850672  0.9999974031107254  1.0000
  C   C24       1.0  0.3888025206290919  0.38880050441743913  0.4999998630982388  1.0000
  N   N1        1.0  0.8498772732126054  0.25935839943185357  0.8985348765065165  1.0000
  N   N2        1.0  0.15011643506894498  0.7406236813846332  0.39853290959046445  1.0000
  N   N3        1.0  0.740619466145155  0.1501036480826343  0.6014655547371459  1.0000
  N   N4        1.0  0.2593796448984733  0.8499060748566262  0.10146579490466927  1.0000
  O   O1        1.0  0.23406473653312077  0.48729644882043016  0.8007375370066537  1.0000
  O   O2        1.0  0.7659349384518704  0.5127019188599816  0.3007378816290185  1.0000
  O   O3        1.0  0.5127049036125513  0.7659287303842746  0.6992647696103444  1.0000
  O   O4        1.0  0.4872994667172036  0.23409032156660453  0.19926130426042474  1.0000
  O   O5        1.0  0.81423963553933  0.6247824717065241  0.8234658621844415  1.0000
  O   O6        1.0  0.18575411417300808  0.3752086960500661  0.3234645048377444  1.0000
  O   O7        1.0  0.37522499652859403  0.18576146403314914  0.6765370502971135  1.0000
  O   O8        1.0  0.6247852990197913  0.8142647878227934  0.17653474856385992  1.0000
  O   O9        1.0  0.9072738937498099  0.6960053674642311  0.9214244984960798  1.0000
  O   O10       1.0  0.0927326190437512  0.30398037585904797  0.4214238136014074  1.0000
  O   O11       1.0  0.30397541824852675  0.09270636630940027  0.5785757503793716  1.0000
  O   O12       1.0  0.6960245030355026  0.9072845232210441  0.07857675672514827  1.0000
  O   O13       1.0  0.48947105023545834  0.015599155216165193  0.7914379327980182  1.0000
  O   O14       1.0  0.510545343377231  0.9843742922201029  0.291435454132248  1.0000
  O   O15       1.0  0.9844042147242288  0.510519418265595  0.7085626754584025  1.0000
  O   O16       1.0  0.015613889683450604  0.4894736767475791  0.20856307337766106  1.0000
  O   O17       1.0  0.9523295029890804  0.047661260089867576  0.7499990838351989  1.0000
  O   O18       1.0  0.047678146314446196  0.9523358851863221  0.24999913727371129  1.0000
