data_image0
_chemical_formula_structural       NiH18C20N8O6
_chemical_formula_sum              "Ni1 H18 C20 N8 O6"
_cell_length_a       8.215280523855222
_cell_length_b       8.457467327268878
_cell_length_c       9.688870350446376
_cell_angle_alpha    85.66121986273313
_cell_angle_beta     76.22713920114202
_cell_angle_gamma    61.902623280316206

_space_group_name_H-M_alt    "P 1"
_space_group_IT_number       1

loop_
  _space_group_symop_operation_xyz
  'x, y, z'

loop_
  _atom_site_type_symbol
  _atom_site_label
  _atom_site_symmetry_multiplicity
  _atom_site_fract_x
  _atom_site_fract_y
  _atom_site_fract_z
  _atom_site_occupancy
  Ni  Ni1       1.0  0.999998156805809  0.9999986634380915  1.500639356756403e-06  1.0000
  H   H1        1.0  0.07938419585988755  0.5780513402651833  0.8152810712695594  1.0000
  H   H2        1.0  0.9206169451391804  0.42194907911619584  0.18472087414161817  1.0000
  H   H3        1.0  0.10088353924967215  0.3648299264317032  0.7727450136332619  1.0000
  H   H4        1.0  0.8991151079858922  0.6351704622046981  0.22725434228540553  1.0000
  H   H5        1.0  0.23952563908957816  0.3778012783711374  0.5229621743869544  1.0000
  H   H6        1.0  0.7604775077955638  0.622195089619545  0.47703655799345046  1.0000
  H   H7        1.0  0.33377847714291425  0.6091620625960913  0.43292144418041534  1.0000
  H   H8        1.0  0.6662252498012222  0.39083566676598014  0.5670791378422917  1.0000
  H   H9        1.0  0.37202107017959907  0.4016795717260421  0.6319119238224572  1.0000
  H   H10       1.0  0.6279788221317733  0.5983208367475116  0.3680892429566782  1.0000
  H   H11       1.0  0.08260455508232686  0.7040093961239221  0.4865808187713653  1.0000
  H   H12       1.0  0.9173979267859947  0.29598831340100423  0.5134179523908742  1.0000
  H   H13       1.0  0.9801755867622999  0.11886176200504649  0.2533749944162337  1.0000
  H   H14       1.0  0.019824309160952923  0.8811386375391803  0.7466251401344761  1.0000
  H   H15       1.0  0.19798627938460828  0.9643829300208536  0.18590118428724614  1.0000
  H   H16       1.0  0.8020129623574589  0.035618784269637195  0.8140958923600222  1.0000
  H   H17       1.0  0.24305082740355036  0.8531909036968341  0.5677316704147514  1.0000
  H   H18       1.0  0.7569490649078289  0.14680950477671925  0.43226949636438416  1.0000
  C   C1        1.0  0.40737979617068026  0.9065172787436637  0.8124320208761944  1.0000
  C   C2        1.0  0.5926257559082656  0.09348183182694918  0.18757222164928317  1.0000
  C   C3        1.0  0.655083738867695  0.9198242947294941  0.6261108358093354  1.0000
  C   C4        1.0  0.3449109996129281  0.08018144913602748  0.3738878966046215  1.0000
  C   C5        1.0  0.7373470768698736  0.6736482955229447  0.7885641430583161  1.0000
  C   C6        1.0  0.2626534732345646  0.32635078927502553  0.21143904939583538  1.0000
  C   C7        1.0  0.5996455405117019  0.8334158250023903  0.7437608533242965  1.0000
  C   C8        1.0  0.4003570263144383  0.16657918161691038  0.25623602941381307  1.0000
  C   C9        1.0  0.08253977736269752  0.4953078186068823  0.7317284453712387  1.0000
  C   C10       1.0  0.9174588590372321  0.5046925968174988  0.2682740072326978  1.0000
  C   C11       1.0  0.23613364371279033  0.4693897351030286  0.599303605495514  1.0000
  C   C12       1.0  0.76386499629902  0.5306106713920186  0.4006978148799973  1.0000
  C   C13       1.0  0.2140147168538392  0.6413055417104585  0.5256508512181169  1.0000
  C   C14       1.0  0.7859864313689824  0.3586948598122675  0.47434902973621  1.0000
  C   C15       1.0  0.7062024539671581  0.5988190731193724  0.9226488744374065  1.0000
  C   C16       1.0  0.29379742750858645  0.4011813621421538  0.0773553890270051  1.0000
  C   C17       1.0  0.8033937024379437  0.4139539747675939  0.9404085010798013  1.0000
  C   C18       1.0  0.19660811080169074  0.5860450852208957  0.059591341092698286  1.0000
  C   C19       1.0  0.567510441866773  0.7012597378867651  0.042065919075106664  1.0000
  C   C20       1.0  0.4324876144741624  0.2987393161662196  0.9579346838865347  1.0000
  N   N1        1.0  0.24832615768436056  0.9612157244268358  0.8711625339509365  1.0000
  N   N2        1.0  0.751673830420465  0.0387819543531123  0.12883364771879965  1.0000
  N   N3        1.0  0.7026650700979145  0.989845945712297  0.5277881272735884  1.0000
  N   N4        1.0  0.2973391700067864  0.0101558032801634  0.47221103167342443  1.0000
  N   N5        1.0  0.878922388752493  0.26010829119744017  0.9579703657152121  1.0000
  N   N6        1.0  0.12107499534787554  0.7398921222484416  0.042032340485107476  1.0000
  N   N7        1.0  0.4562633132014042  0.7812303642310281  0.1450346398286654  1.0000
  N   N8        1.0  0.5437283261735786  0.21877405002341271  0.8549668790494491  1.0000
  O   O1        1.0  0.0844327268946401  0.06769842137265408  0.16442953997984228  1.0000
  O   O2        1.0  0.9155671762523666  0.9323019603129198  0.835568530114024  1.0000
  O   O3        1.0  0.9001354030533831  0.5918030994987119  0.6905135276667024  1.0000
  O   O4        1.0  0.0998630851021788  0.40820266816096035  0.309486508414956  1.0000
  O   O5        1.0  0.21146454069737786  0.7630963433352704  0.6230334321418738  1.0000
  O   O6        1.0  0.7885360238545686  0.23690270574539338  0.3769656313985763  1.0000
