data_image0
_chemical_formula_structural       Zn8H24C52S4O46
_chemical_formula_sum              "Zn8 H24 C52 S4 O46"
_cell_length_a       15.93131875472879
_cell_length_b       15.93789368883287
_cell_length_c       21.310374409714612
_cell_angle_alpha    111.93365841321813
_cell_angle_beta     112.27387371415244
_cell_angle_gamma    90.1121997862405

_space_group_name_H-M_alt    "P 1"
_space_group_IT_number       1

loop_
  _space_group_symop_operation_xyz
  'x, y, z'

loop_
  _atom_site_type_symbol
  _atom_site_label
  _atom_site_symmetry_multiplicity
  _atom_site_fract_x
  _atom_site_fract_y
  _atom_site_fract_z
  _atom_site_occupancy
  Zn  Zn1       1.0  0.03532359423260815  0.6363153216983267  0.5655078179788405  1.0000
  Zn  Zn2       1.0  0.6349757669417289  0.03383281465986697  0.5672460763093383  1.0000
  Zn  Zn3       1.0  0.06641919209955205  0.4757707761443371  0.433158491945136  1.0000
  Zn  Zn4       1.0  0.47634609135014483  0.07173521775327883  0.43618640428802286  1.0000
  Zn  Zn5       1.0  0.8702760703093163  0.471038510441673  0.44064975277261437  1.0000
  Zn  Zn6       1.0  0.47064118979995584  0.8722756369791256  0.4386738872246029  1.0000
  Zn  Zn7       1.0  0.04240510680372023  0.43543979831166996  0.5642226825953288  1.0000
  Zn  Zn8       1.0  0.43183982038499397  0.040774847125987945  0.5621026487608703  1.0000
  H   H1        1.0  0.27116881424709044  0.5922358597895965  0.9300200643388336  1.0000
  H   H2        1.0  0.5937043633408836  0.2785544400447862  0.9273893873112797  1.0000
  H   H3        1.0  0.6314050889196494  0.28851869874913655  0.0490900903949124  1.0000
  H   H4        1.0  0.28021869048506426  0.638074965693349  0.05138902649685658  1.0000
  H   H5        1.0  0.3423759515137947  0.6936844573874413  0.9522899488539951  1.0000
  H   H6        1.0  0.7021970992043267  0.3382724863477833  0.9511441695388145  1.0000
  H   H7        1.0  0.7083476665796767  0.3860370496599329  0.07252188621200854  1.0000
  H   H8        1.0  0.3844715220505535  0.7054738823743137  0.07430909507957044  1.0000
  H   H9        1.0  0.17642444885028408  0.8508859221689635  0.9497547894650894  1.0000
  H   H10       1.0  0.8389737546172074  0.15376988421112983  0.9571210955798152  1.0000
  H   H11       1.0  0.9116938444635992  0.2658328744935118  0.07618392556516786  1.0000
  H   H12       1.0  0.2765805636699809  0.9185288203920763  0.0729694943006151  1.0000
  H   H13       1.0  0.43790497874239526  0.9103616104094313  0.12871061881254062  1.0000
  H   H14       1.0  0.8956069551873612  0.4292114793022606  0.12211389670027725  1.0000
  H   H15       1.0  0.8012993231424518  0.2822042898357393  0.8804615661757325  1.0000
  H   H16       1.0  0.3053281671605036  0.7877587812506449  0.8793056877571105  1.0000
  H   H17       1.0  0.013866686667853385  0.7047509477666836  0.854646073554946  1.0000
  H   H18       1.0  0.6921012198331341  0.013366348654777383  0.8588837932787783  1.0000
  H   H19       1.0  0.8267918529737983  0.0423767562077444  0.02025614218136692  1.0000
  H   H20       1.0  0.12388906971543891  0.888083063467299  0.02232222506907536  1.0000
  H   H21       1.0  0.0428161290800236  0.5509319285484936  0.9926219082591532  1.0000
  H   H22       1.0  0.5317446788466071  0.06829799559267966  0.0017391256765861426  1.0000
  H   H23       1.0  0.6781082397232723  0.9915242445863869  0.007944693004809223  1.0000
  H   H24       1.0  0.2366190421633761  0.7652616368656027  0.1976113766385056  1.0000
  C   C1        1.0  0.8921326771980559  0.4043239063285284  0.3002549810510116  1.0000
  C   C2        1.0  0.4039084312853305  0.9017077342932043  0.3011945360806152  1.0000
  C   C3        1.0  0.34496892235327453  0.8488149254758853  0.5038091450592291  1.0000
  C   C4        1.0  0.8521873651517425  0.3453274524919934  0.5085811957498619  1.0000
  C   C5        1.0  0.16288986646695486  0.6663152640060802  0.5036189558112127  1.0000
  C   C6        1.0  0.6688257620869109  0.16265772088181754  0.5067664099395016  1.0000
  C   C7        1.0  0.10493981901173308  0.6034622431565282  0.7010964831684064  1.0000
  C   C8        1.0  0.22783463686364774  0.7312159092176813  0.5050526414709894  1.0000
  C   C9        1.0  0.7352419373730472  0.22705466584723424  0.5094234613662396  1.0000
  C   C10       1.0  0.5990114114735832  0.10081841656393221  0.7013559666171503  1.0000
  C   C11       1.0  0.28161382382364764  0.7853847027713814  0.5052436526900267  1.0000
  C   C12       1.0  0.7899106291430797  0.2810367940835833  0.5103783417211929  1.0000
  C   C13       1.0  0.23652890213195144  0.8155994972401504  0.9596338378076016  1.0000
  C   C14       1.0  0.8108049869712417  0.21802699210121568  0.961496867385847  1.0000
  C   C15       1.0  0.8466393445720826  0.28277197464920784  0.0442900902879513  1.0000
  C   C16       1.0  0.29408197548399073  0.8523764471010085  0.04418770172405576  1.0000
  C   C17       1.0  0.2855352355343542  0.6666830868558123  0.9602842652426207  1.0000
  C   C18       1.0  0.6675863961585268  0.28579210318460496  0.9589632913619827  1.0000
  C   C19       1.0  0.6902029430132686  0.3112951249801199  0.041196182251198275  1.0000
  C   C20       1.0  0.30958608189936837  0.6929459164639127  0.04274899369573144  1.0000
  C   C21       1.0  0.36034757261659683  0.8599076951959006  0.22107224926571686  1.0000
  C   C22       1.0  0.8484616005287507  0.3589819485366305  0.22071076778399842  1.0000
  C   C23       1.0  0.6366360506277077  0.1343602826675435  0.7810581502065687  1.0000
  C   C24       1.0  0.1409919274371349  0.6420627746102883  0.7809164618110744  1.0000
  C   C25       1.0  0.2016196063019324  0.7104886964766239  0.9282064539178878  1.0000
  C   C26       1.0  0.3975604369214735  0.870798025126341  0.06812829891477881  1.0000
  C   C27       1.0  0.8698306643119054  0.38333426787781383  0.06212547357324635  1.0000
  C   C28       1.0  0.8491847183026735  0.2544473225199366  0.9184314629842092  1.0000
  C   C29       1.0  0.7032164410378029  0.1951779713754291  0.928222251464689  1.0000
  C   C30       1.0  0.2872749765617757  0.8435308525604204  0.919883825655113  1.0000
  C   C31       1.0  0.7737935085894351  0.2675728081812351  0.07420755498092271  1.0000
  C   C32       1.0  0.036048569868448614  0.7303454483222468  0.9153595758886369  1.0000
  C   C33       1.0  0.6872309345191  0.026123606854170492  0.9119773498625818  1.0000
  C   C34       1.0  0.833240430549509  0.11445054515732518  0.0580681373105491  1.0000
  C   C35       1.0  0.12908132907521266  0.8559470044987806  0.06135549952997375  1.0000
  C   C36       1.0  0.2714002508959439  0.7816042697662694  0.07383673142528117  1.0000
  C   C37       1.0  0.16220587921439034  0.7599689698457582  0.04282972956433181  1.0000
  C   C38       1.0  0.7441720462965264  0.1597926565178227  0.04244832525077403  1.0000
  C   C39       1.0  0.679176442174516  0.12356293800119293  0.9568476506078128  1.0000
  C   C40       1.0  0.12399729916883488  0.699726718760559  0.9563350079085355  1.0000
  C   C41       1.0  0.3168805258888838  0.8231490962279866  0.15425861810155786  1.0000
  C   C42       1.0  0.8136517897827319  0.31296511703408936  0.15444176184932704  1.0000
  C   C43       1.0  0.6663483738691912  0.15943019498696043  0.847827574655881  1.0000
  C   C44       1.0  0.16614566171998763  0.6725559687710999  0.8477135207849075  1.0000
  C   C45       1.0  0.22614143323767186  0.281246834386515  0.48843808530473615  1.0000
  C   C46       1.0  0.2796842284634947  0.2272228480460043  0.4883638174239664  1.0000
  C   C47       1.0  0.7798163750623033  0.7270031617043174  0.49837510718746364  1.0000
  C   C48       1.0  0.7246965506706645  0.7794307911870747  0.4968171885874355  1.0000
  C   C49       1.0  0.8443669010576117  0.6633195726998765  0.500299059125247  1.0000
  C   C50       1.0  0.6602875888184699  0.8430709135114541  0.4974682771898813  1.0000
  C   C51       1.0  0.16240346076332918  0.3457503092788273  0.4913678092465404  1.0000
  C   C52       1.0  0.34376833267573664  0.1632420523639055  0.49116650473690276  1.0000
  S   S1        1.0  0.07878770074401609  0.5666870235508487  0.9115362608399737  1.0000
  S   S2        1.0  0.5428046097703431  0.09807338983077322  0.9169530097147742  1.0000
  S   S3        1.0  0.6952264843543148  0.12477939165876246  0.098894093371129  1.0000
  S   S4        1.0  0.12005945672938624  0.705142228588933  0.09291201335775418  1.0000
  O   O1        1.0  0.0038956989692949112  0.5043755559316879  0.5008938126704409  1.0000
  O   O2        1.0  0.4396860225226575  0.9859116352869394  0.331256884946292  1.0000
  O   O3        1.0  0.5117110993472451  0.08877673961251266  0.6683830914882734  1.0000
  O   O4        1.0  0.839050770034042  0.420570755939373  0.3341091185922379  1.0000
  O   O5        1.0  0.40032942397845533  0.84870134382696  0.33290759195303116  1.0000
  O   O6        1.0  0.10671496161661766  0.518434007951747  0.6694673244538266  1.0000
  O   O7        1.0  0.43561922572346384  0.8453524156369738  0.02584863232880249  1.0000
  O   O8        1.0  0.8642963462355054  0.4138896116658088  0.016251098655196423  1.0000
  O   O9        1.0  0.9272502084259885  0.2475921106898936  0.9232655414194824  1.0000
  O   O10       1.0  0.3014040770007258  0.9235402424116829  0.9298211116238522  1.0000
  O   O11       1.0  0.07445489517315465  0.6586396111485301  0.6703108078138201  1.0000
  O   O12       1.0  0.6572799414285413  0.08642376766229626  0.6723287521956607  1.0000
  O   O13       1.0  0.9928730316495946  0.7784625017714791  0.9471172364469782  1.0000
  O   O14       1.0  0.6852938466187626  0.9627591788580361  0.9315364014287583  1.0000
  O   O15       1.0  0.905197161478405  0.15532376246361673  0.1104661180768075  1.0000
  O   O16       1.0  0.12172857585411377  0.8977143103984844  0.11902349018896531  1.0000
  O   O17       1.0  0.9798168185137753  0.42325142826922496  0.3287338820230514  1.0000
  O   O18       1.0  0.023552063463661805  0.5489569855326837  0.8354588057794816  1.0000
  O   O19       1.0  0.15412172466937343  0.5190668560628211  0.9317867186580174  1.0000
  O   O20       1.0  0.007611681058463655  0.5521813282994829  0.943281544195827  1.0000
  O   O21       1.0  0.5059301155799932  0.18044320916808257  0.9405689016004006  1.0000
  O   O22       1.0  0.5201105059984104  0.04351652043138907  0.8399109979510869  1.0000
  O   O23       1.0  0.5205640931376366  0.030037669237053387  0.9485300275928239  1.0000
  O   O24       1.0  0.7606524733575456  0.1576549419632158  0.17413883595773424  1.0000
  O   O25       1.0  0.6035761843406461  0.14883428877936922  0.08418209172278067  1.0000
  O   O26       1.0  0.6893018945240853  0.01800157566325569  0.06331475246820162  1.0000
  O   O27       1.0  0.024658230045943735  0.7104090095315598  0.07293800865530646  1.0000
  O   O28       1.0  0.15037717414444524  0.6164873324436188  0.07889886618028186  1.0000
  O   O29       1.0  0.16980889799922488  0.7663311298017349  0.17894753818587356  1.0000
  O   O30       1.0  0.5031226300035955  0.004719151457372679  0.5007351464045371  1.0000
  O   O31       1.0  0.8091507503293516  0.578766873948581  0.4636278226830229  1.0000
  O   O32       1.0  0.5803281320736177  0.813973789654057  0.4445038839773333  1.0000
  O   O33       1.0  0.1252646640385677  0.35268949286493984  0.536141771081418  1.0000
  O   O34       1.0  0.36162439739620583  0.1362605200744724  0.5433984677815289  1.0000
  O   O35       1.0  0.8154495711762239  0.38013460898055473  0.46169412603377674  1.0000
  O   O36       1.0  0.3930771579916907  0.8124982209523426  0.467757295155792  1.0000
  O   O37       1.0  0.9360986620513145  0.3598508498733254  0.553480506497813  1.0000
  O   O38       1.0  0.3457901103279469  0.933695554884686  0.5382546053586951  1.0000
  O   O39       1.0  0.13939870181772562  0.5878683071841807  0.44975022049318625  1.0000
  O   O40       1.0  0.5857422417946198  0.15581884849349595  0.4627490424138472  1.0000
  O   O41       1.0  0.13620357897558938  0.6947684712361597  0.5561546918776515  1.0000
  O   O42       1.0  0.7002536533169774  0.11974359897524793  0.5483527426696213  1.0000
  O   O43       1.0  0.9290657391331933  0.698672867390279  0.5385137377091384  1.0000
  O   O44       1.0  0.6902721463641085  0.9215782964438616  0.5513154145493998  1.0000
  O   O45       1.0  0.15072386923391426  0.38841256948170877  0.4494950130205241  1.0000
  O   O46       1.0  0.3757046539093808  0.1408703449117468  0.4416406978765579  1.0000
