data_image0
_chemical_formula_structural       Zn2H28C28N2O14
_chemical_formula_sum              "Zn2 H28 C28 N2 O14"
_cell_length_a       7.388126875648303
_cell_length_b       8.097716773800961
_cell_length_c       12.189482494096229
_cell_angle_alpha    107.94622952559445
_cell_angle_beta     92.96635852944452
_cell_angle_gamma    96.83504677751023

_space_group_name_H-M_alt    "P 1"
_space_group_IT_number       1

loop_
  _space_group_symop_operation_xyz
  'x, y, z'

loop_
  _atom_site_type_symbol
  _atom_site_label
  _atom_site_symmetry_multiplicity
  _atom_site_fract_x
  _atom_site_fract_y
  _atom_site_fract_z
  _atom_site_occupancy
  Zn  Zn1       1.0  0.3485245006443948  0.2707080278493451  0.45317517136921026  1.0000
  Zn  Zn2       1.0  0.6514765000755746  0.7292841961861283  0.5468220240757872  1.0000
  H   H1        1.0  0.7166437293513254  0.15058013070478893  0.1601806109144377  1.0000
  H   H2        1.0  0.2833598185239339  0.8494199561129393  0.8398199170071124  1.0000
  H   H3        1.0  0.6618454656863192  0.2888912687303248  0.06229781018890891  1.0000
  H   H4        1.0  0.338160416130215  0.7111061805864196  0.9376989785688606  1.0000
  H   H5        1.0  0.6249349051644515  0.4450502335401367  0.921780891321653  1.0000
  H   H6        1.0  0.3750668998793287  0.5549472359132324  0.07821740185073622  1.0000
  H   H7        1.0  0.1405537792332936  0.5482615590019861  0.40213440289570457  1.0000
  H   H8        1.0  0.8594509013850882  0.45173721162954916  0.5978683567383385  1.0000
  H   H9        1.0  0.01218397093531112  0.6220108983393832  0.23451323124702136  1.0000
  H   H10       1.0  0.9878180473224917  0.3779970713972248  0.7654921335656937  1.0000
  H   H11       1.0  0.14601118411917474  0.12871858682074594  0.014633670891484514  1.0000
  H   H12       1.0  0.8539818036949711  0.8712920466269054  0.9853661833988098  1.0000
  H   H13       1.0  0.2678695429792981  0.0753685922187657  0.1937737856008468  1.0000
  H   H14       1.0  0.7321257255700361  0.9246302178762917  0.8062204538704519  1.0000
  H   H15       1.0  0.014007090106396409  0.3124687175679882  0.9217260791453016  1.0000
  H   H16       1.0  0.9859849181270591  0.6875445470103473  0.07827755967647933  1.0000
  H   H17       1.0  0.002583463972207789  0.23173267596488503  0.46701761422802684  1.0000
  H   H18       1.0  0.9974212440281889  0.768266092615214  0.5329818643705125  1.0000
  H   H19       1.0  0.1768915217722693  0.9510601476256967  0.3626179161261264  1.0000
  H   H20       1.0  0.8231046305207103  0.048936038518697  0.6373840224379491  1.0000
  H   H21       1.0  0.5894148662505074  0.4256458589232112  0.35474465170750585  1.0000
  H   H22       1.0  0.41058305625596603  0.5743529425341125  0.6452562405702196  1.0000
  H   H23       1.0  0.1000301771896019  0.22324189034077344  0.5853700482963617  1.0000
  H   H24       1.0  0.8999731832957139  0.7767568840967699  0.4146285646755885  1.0000
  H   H25       1.0  0.3871014071370098  0.9144880260320178  0.3864119474286838  1.0000
  H   H26       1.0  0.6128970585607406  0.08550552414996564  0.6135887127482461  1.0000
  H   H27       1.0  0.6847937884718648  0.2871496088177921  0.4011056308012186  1.0000
  H   H28       1.0  0.31520975940339474  0.7128504779999432  0.5988948971203313  1.0000
  C   C1        1.0  0.6686725034371079  0.9260724198961443  0.21650394399583212  1.0000
  C   C2        1.0  0.331331996636827  0.07392503784233642  0.783496080429735  1.0000
  C   C3        1.0  0.6384598820044901  0.0205122246756062  0.1406601138828307  1.0000
  C   C4        1.0  0.361543471635322  0.9794865502747927  0.8593393193479955  1.0000
  C   C5        1.0  0.5151040931924413  0.9494640467025095  0.04012198617911632  1.0000
  C   C6        1.0  0.4848981071677443  0.05053604597266311  0.9598776761158447  1.0000
  C   C7        1.0  0.5742294798731747  0.22251680430546372  0.9825466949887841  1.0000
  C   C8        1.0  0.425776388252352  0.7774806460369988  0.017451734286737516  1.0000
  C   C9        1.0  0.5503606506712728  0.31426463885295414  0.9045764805661276  1.0000
  C   C10       1.0  0.4496411269904925  0.6857328326518514  0.09542509364176513  1.0000
  C   C11       1.0  0.567038345075872  0.7594209706229977  0.1966221239790613  1.0000
  C   C12       1.0  0.4329648006374854  0.2405764934857829  0.8033778550787856  1.0000
  C   C13       1.0  0.5691839946416907  0.6677011988200691  0.2862226715115526  1.0000
  C   C14       1.0  0.4308142768206055  0.3322910394945779  0.7137768939746464  1.0000
  C   C15       1.0  0.1786190345124865  0.0030129886105428006  0.6880507947769844  1.0000
  C   C16       1.0  0.8213831726932029  0.9969871035517743  0.3119480472591007  1.0000
  C   C17       1.0  0.1410712971950191  0.45968014518062034  0.3146069532684592  1.0000
  C   C18       1.0  0.8589312916360611  0.5403225712292186  0.6853948984079423  1.0000
  C   C19       1.0  0.0698693090855329  0.5001756261540251  0.2200550749150167  1.0000
  C   C20       1.0  0.9301332934365547  0.4998270892300953  0.77994513624364  1.0000
  C   C21       1.0  0.07381294575934311  0.38354135295325165  0.10770471688492482  1.0000
  C   C22       1.0  0.926182321232055  0.6164666470962885  0.8922979603126037  1.0000
  C   C23       1.0  0.141450246413406  0.22522561923878479  0.099143625865409  1.0000
  C   C24       1.0  0.8585409643417492  0.7747823994087998  0.9008580949701043  1.0000
  C   C25       1.0  0.21063119824723492  0.19491801860395702  0.19823991703741234  1.0000
  C   C26       1.0  0.7893617295153207  0.80508342950494  0.8017588818565287  1.0000
  C   C27       1.0  0.0186947832425375  0.42124622107447623  0.0022585880783126274  1.0000
  C   C28       1.0  0.9813033935509736  0.5787630775889384  0.9977444542864901  1.0000
  N   N1        1.0  0.2138682526728743  0.31132467376221484  0.3047154589417289  1.0000
  N   N2        1.0  0.7861325933267269  0.6886754252832575  0.6952841579855188  1.0000
  O   O1        1.0  0.5936219773434459  0.5094314819157973  0.2565406683869043  1.0000
  O   O2        1.0  0.40636816795535685  0.49056079462066293  0.7434586248930231  1.0000
  O   O3        1.0  0.5390672498119714  0.7614319093227949  0.38896932882736485  1.0000
  O   O4        1.0  0.46092891617201565  0.23856427579588066  0.6110309692189517  1.0000
  O   O5        1.0  0.06492950688253532  0.10591012077929923  0.6788298783335449  1.0000
  O   O6        1.0  0.9350711174996035  0.8940886684502801  0.32117192493848273  1.0000
  O   O7        1.0  0.1649938441518231  0.8430513930477591  0.6256349209913807  1.0000
  O   O8        1.0  0.8350097242599475  0.15694869223139565  0.3743631461535415  1.0000
  O   O9        1.0  0.1085023123425444  0.28924834971178376  0.5289209243967717  1.0000
  O   O10       1.0  0.8915000890985924  0.7107530543178628  0.4710790123300371  1.0000
  O   O11       1.0  0.3086829297617655  0.9999748279846802  0.3734798580563421  1.0000
  O   O12       1.0  0.6913143895018551  2.0039409221800075e-05  0.6265202109258396  1.0000
  O   O13       1.0  0.5949417217667518  0.3737098652535168  0.42162798067700186  1.0000
  O   O14       1.0  0.4050602638214684  0.6262889170929  0.5783730477038631  1.0000
