data_image0
_chemical_formula_structural       Cu2H14C32N18
_chemical_formula_sum              "Cu2 H14 C32 N18"
_cell_length_a       7.482690713161025
_cell_length_b       10.9152042523061
_cell_length_c       11.360119152772443
_cell_angle_alpha    115.50972374455868
_cell_angle_beta     88.2736634159186
_cell_angle_gamma    110.43348892128172

_space_group_name_H-M_alt    "P 1"
_space_group_IT_number       1

loop_
  _space_group_symop_operation_xyz
  'x, y, z'

loop_
  _atom_site_type_symbol
  _atom_site_label
  _atom_site_symmetry_multiplicity
  _atom_site_fract_x
  _atom_site_fract_y
  _atom_site_fract_z
  _atom_site_occupancy
  Cu  Cu1       1.0  0.43417941372374014  0.34955973960542513  0.7423835622824697  1.0000
  Cu  Cu2       1.0  0.5658159295962335  0.6504390273087638  0.25761880185574176  1.0000
  H   H1        1.0  0.4320368678597645  0.056514165829575816  0.7266675167392405  1.0000
  H   H2        1.0  0.5679611451770442  0.943486916280705  0.27332875413229374  1.0000
  H   H3        1.0  0.3170864716122423  0.5682563732432371  0.6327729376147886  1.0000
  H   H4        1.0  0.6829158250138861  0.43175119176743243  0.3672312996721772  1.0000
  H   H5        1.0  0.09311681781285604  0.9292974357956114  0.30026053489183385  1.0000
  H   H6        1.0  0.9068844155342289  0.07070246174638582  0.6997422648173311  1.0000
  H   H7        1.0  0.11304823871224565  0.41558926903420723  0.37669139989294825  1.0000
  H   H8        1.0  0.8869559204622489  0.5844107506027072  0.6233052686604167  1.0000
  H   H9        1.0  0.2917371865036317  0.7961025473163519  0.5636652549896866  1.0000
  H   H10       1.0  0.7082659132252829  0.203898453199173  0.4363379940621073  1.0000
  H   H11       1.0  0.07529932976610348  0.1512383722205186  0.2999730687330455  1.0000
  H   H12       1.0  0.9247056711156745  0.8487637460769263  0.700029755093567  1.0000
  H   H13       1.0  0.11512650644966982  0.7283324907238437  0.3452837274051248  1.0000
  H   H14       1.0  0.884873220939262  0.27166415516861525  0.6547159613688578  1.0000
  C   C1        1.0  0.1669353832893138  0.9528196681889369  0.3929915791720617  1.0000
  C   C2        1.0  0.8330623259203023  0.04717811225633991  0.6070050744449773  1.0000
  C   C3        1.0  0.35496037076644166  0.024796799012911205  0.6321732508087193  1.0000
  C   C4        1.0  0.6450342864772055  0.9752062800616842  0.3678335619467888  1.0000
  C   C5        1.0  0.2768407996027236  0.8784478285283653  0.5390883526042245  1.0000
  C   C6        1.0  0.7231632938631732  0.12156080983904619  0.4609180831609833  1.0000
  C   C7        1.0  0.18065361194545212  0.8422417844964729  0.4185271195193323  1.0000
  C   C8        1.0  0.8193534639443526  0.15776152562484924  0.581470906243041  1.0000
  C   C9        1.0  0.2478846518426536  0.09699233685122978  0.4909586681381271  1.0000
  C   C10       1.0  0.752111051901011  0.9030042813869557  0.5090410344075381  1.0000
  C   C11       1.0  0.23968964058659736  0.22419383000089252  0.48451652146020047  1.0000
  C   C12       1.0  0.7603096441232395  0.7758072317107009  0.5154814939563935  1.0000
  C   C13       1.0  0.17435701759171707  0.3808259616182069  0.4363685436956857  1.0000
  C   C14       1.0  0.8256502319210242  0.6191696458273697  0.5636306636017706  1.0000
  C   C15       1.0  0.2755826669116317  0.4542670595265363  0.5621687356101148  1.0000
  C   C16       1.0  0.7244106414499994  0.5457187136354021  0.43782204558350907  1.0000
  C   C17       1.0  0.8941770208853937  0.3237715608928369  0.9679916779815866  1.0000
  C   C18       1.0  0.10581247989186703  0.6762237934420343  0.03201546010342339  1.0000
  C   C19       1.0  0.7362475676804509  0.3224062529376823  0.9048173789076442  1.0000
  C   C20       1.0  0.2637455011174127  0.6775880649128043  0.09518754233688759  1.0000
  C   C21       1.0  0.061365487924703595  0.3334445201243951  0.9080568537326171  1.0000
  C   C22       1.0  0.9386296429356168  0.6665455095921757  0.09194273973624688  1.0000
  C   C23       1.0  0.8895537152191794  0.3243000390154976  0.09209788833345564  1.0000
  C   C24       1.0  0.11045883344532827  0.6757042240329483  0.9079110678136074  1.0000
  C   C25       1.0  0.625772952452337  0.6871144697116378  0.8795996297254263  1.0000
  C   C26       1.0  0.37422765669355573  0.3128724729129786  0.12038983331297  1.0000
  C   C27       1.0  0.6792515049779766  0.8381330488434601  0.9424325600387392  1.0000
  C   C28       1.0  0.3207608187457396  0.16187255048496502  0.0575619869792661  1.0000
  C   C29       1.0  0.8092690932211822  0.924671517777881  0.05975551326798723  1.0000
  C   C30       1.0  0.19073063056651307  0.07532425648499701  0.9402306030556389  1.0000
  C   C31       1.0  0.6168545534865046  0.9053121843598433  0.8791720974094944  1.0000
  C   C32       1.0  0.38314728368148815  0.09468566816488533  0.1208219187324389  1.0000
  N   N1        1.0  0.33956664005948767  0.13094368328723505  0.6086192021300931  1.0000
  N   N2        1.0  0.6604347323717265  0.8690562734883259  0.3913800993078311  1.0000
  N   N3        1.0  0.3148643512067792  0.35543675165718713  0.5903472219401706  1.0000
  N   N4        1.0  0.6851380624458017  0.644568561018744  0.40966047572891284  1.0000
  N   N5        1.0  0.6063951478079516  0.3189499951189561  0.8467894345648688  1.0000
  N   N6        1.0  0.3935989365523511  0.6810464954340176  0.1532172691138386  1.0000
  N   N7        1.0  0.19932479977408243  0.3426584957744296  0.8556119396062128  1.0000
  N   N8        1.0  0.8006678354567922  0.6573370695057007  0.14438381991612914  1.0000
  N   N9        1.0  0.8865826166289068  0.32641537303116047  0.19616842743189267  1.0000
  N   N10       1.0  0.11343011883634087  0.67359444401702  0.8038366855875337  1.0000
  N   N11       1.0  0.5871372328325392  0.5605787408013327  0.8194799657634988  1.0000
  N   N12       1.0  0.41285974664982916  0.4394342821031358  0.18052394502930716  1.0000
  N   N13       1.0  0.9203716965367407  0.9983840946015478  0.156369578689173  1.0000
  N   N14       1.0  0.07963551843719331  0.0016192747533309959  0.8436249488019528  1.0000
  N   N15       1.0  0.5663708358263689  0.9598440703227594  0.8244866830555182  1.0000
  N   N16       1.0  0.43361219339276863  0.0401622866875613  0.17551628999825647  1.0000
  N   N17       1.0  0.15479003139755323  0.23714829020322273  0.3892336119340314  1.0000
  N   N18       1.0  0.845206944251352  0.7628560843539705  0.6107622807825522  1.0000
