data_image0
_chemical_formula_structural       Eu4H126C126N2O28
_chemical_formula_sum              "Eu4 H126 C126 N2 O28"
_cell_length_a       14.573377188284345
_cell_length_b       15.457737058435304
_cell_length_c       17.376943139317888
_cell_angle_alpha    98.07617030827065
_cell_angle_beta     105.48726748691466
_cell_angle_gamma    98.7763577302368

_space_group_name_H-M_alt    "P 1"
_space_group_IT_number       1

loop_
  _space_group_symop_operation_xyz
  'x, y, z'

loop_
  _atom_site_type_symbol
  _atom_site_label
  _atom_site_symmetry_multiplicity
  _atom_site_fract_x
  _atom_site_fract_y
  _atom_site_fract_z
  _atom_site_occupancy
  Eu  Eu1       1.0  0.10688244486287604  0.9198060994935988  0.5074853817969541  1.0000
  Eu  Eu2       1.0  0.8931183427313981  0.08019368765969401  0.4925149401975021  1.0000
  Eu  Eu3       1.0  0.3897913433700992  0.9443773789664008  0.5415840338248332  1.0000
  Eu  Eu4       1.0  0.6102088724187311  0.05562307141238422  0.45841624573041895  1.0000
  H   H1        1.0  0.5169603328580266  0.8376160248973152  0.6032680983589673  1.0000
  H   H2        1.0  0.4830407474368812  0.16238509630753845  0.3967341820366245  1.0000
  H   H3        1.0  0.5910461917053809  0.9169604042043534  0.5912669320971775  1.0000
  H   H4        1.0  0.4089540205037139  0.08304004599937542  0.40873277116646295  1.0000
  H   H5        1.0  0.2712082146879026  0.525708385085558  0.9683385989438736  1.0000
  H   H6        1.0  0.7287925729063789  0.47429140206774184  0.03166172305058988  1.0000
  H   H7        1.0  0.16090486758295705  0.5443716564651029  0.9054556737177821  1.0000
  H   H8        1.0  0.8390956380498835  0.4556267971618198  0.09454441875035974  1.0000
  H   H9        1.0  0.1597056654489464  0.4524604966759328  0.9554028702493372  1.0000
  H   H10       1.0  0.8402951257250634  0.5475392906524235  0.04459802803673095  1.0000
  H   H11       1.0  0.3083931826479045  0.6858679808709455  0.22870902409248842  1.0000
  H   H12       1.0  0.6916071705419071  0.3141331360959612  0.7712907939343128  1.0000
  H   H13       1.0  0.3297843009968773  0.5961304941173325  0.10875913385341113  1.0000
  H   H14       1.0  0.6702167685588379  0.40387062656233746  0.8912414176673668  1.0000
  H   H15       1.0  0.028585282985801527  0.5769072693056645  0.9793772948730679  1.0000
  H   H16       1.0  0.971415501028744  0.4230925176725648  0.020622450829783652  1.0000
  H   H17       1.0  0.006776568075906742  0.6665648909818602  0.10060805796715754  1.0000
  H   H18       1.0  0.9932229349267558  0.33343555585923224  0.8993920643857153  1.0000
  H   H19       1.0  0.06338038768961954  0.7407503205089726  0.23723559441487657  1.0000
  H   H20       1.0  0.9366198245194823  0.2592501296947489  0.7627641088487637  1.0000
  H   H21       1.0  0.2817708447280296  0.773187785760534  0.3281326817366975  1.0000
  H   H22       1.0  0.718229508461789  0.2268133312063725  0.6718671362901035  1.0000
  H   H23       1.0  0.9708469560925579  0.25308015659767596  0.0765049875688177  1.0000
  H   H24       1.0  0.029151555742238672  0.7469189533544169  0.9234953243469807  1.0000
  H   H25       1.0  0.03777125082043399  0.18509887998736474  0.13465755325674425  1.0000
  H   H26       1.0  0.9622271200336459  0.8148995632015357  0.8653426438958933  1.0000
  H   H27       1.0  0.9108664134683264  0.14969343668681742  0.08791416518477044  1.0000
  H   H28       1.0  0.08913209120700571  0.8503056729151481  0.9120849941478115  1.0000
  H   H29       1.0  0.8961691351702469  0.0917786655289135  0.7979612322450792  1.0000
  H   H30       1.0  0.1038305052334039  0.9082224479003074  0.20203842857934975  1.0000
  H   H31       1.0  0.8681930831446749  0.16556680296430673  0.9226910996589129  1.0000
  H   H32       1.0  0.13180712906442693  0.834433647239422  0.07730860360472752  1.0000
  H   H33       1.0  0.1266293800353324  0.09807721299075212  0.06811277488797171  1.0000
  H   H34       1.0  0.8733697000251793  0.9019212335607848  0.9318870031754333  1.0000
  H   H35       1.0  0.1555108421100542  0.024370932880657403  0.9430773936010511  1.0000
  H   H36       1.0  0.8444878071257307  0.975628843659557  0.05692245678629602  1.0000
  H   H37       1.0  0.09926214405609107  0.9673073659565364  0.7949633829715881  1.0000
  H   H38       1.0  0.9007380717327392  0.03269308442224881  0.2050368965836569  1.0000
  H   H39       1.0  0.9768608193722057  0.08786041782145304  0.7031910010736981  1.0000
  H   H40       1.0  0.023138394509558794  0.9121386951431493  0.2968077391696583  1.0000
  H   H41       1.0  0.9938398887089688  0.4619782263923754  0.1724846115449027  1.0000
  H   H42       1.0  0.00616103628630069  0.5380222273490459  0.8275152489211168  1.0000
  H   H43       1.0  0.1077260563607041  0.4738438472621239  0.15077637183938464  1.0000
  H   H44       1.0  0.8922748722142939  0.5261566066543537  0.8492240649182323  1.0000
  H   H45       1.0  0.09981853616059062  0.5276121413342525  0.24450341398294037  1.0000
  H   H46       1.0  0.9001815386475228  0.4723876422813478  0.755496750809151  1.0000
  H   H47       1.0  0.2771528374809619  0.27500308506106563  0.29528409693615754  1.0000
  H   H48       1.0  0.7228472337474159  0.7249966983794707  0.7047154915643292  1.0000
  H   H49       1.0  0.24041473548456346  0.4035416266307409  0.2306743704797399  1.0000
  H   H50       1.0  0.7595851983428331  0.596457490221674  0.7693256795491907  1.0000
  H   H51       1.0  0.9486457819157437  0.3487406078847927  0.24704687134671852  1.0000
  H   H52       1.0  0.051355146659254655  0.6512598460316854  0.7529535654108985  1.0000
  H   H53       1.0  0.985388615512363  0.2202079211784138  0.3134981909429087  1.0000
  H   H54       1.0  0.014611600276467178  0.7797925292003712  0.6865020886123364  1.0000
  H   H55       1.0  0.09080417818825738  0.13430475402154232  0.370554179873679  1.0000
  H   H56       1.0  0.9091958966198561  0.865695029594065  0.6294459849184125  1.0000
  H   H57       1.0  0.30333106471662313  0.16919478759066212  0.367567981736542  1.0000
  H   H58       1.0  0.6966688619513094  0.830804328911633  0.6324309157091864  1.0000
  H   H59       1.0  0.1800141061276365  0.28357847811113157  0.7393941441240347  1.0000
  H   H60       1.0  0.8199859651007417  0.7164213053294051  0.2606054443764522  1.0000
  H   H61       1.0  0.050893187677800704  0.2633603804248068  0.6951445126034062  1.0000
  H   H62       1.0  0.9491068835505841  0.7366394030157295  0.30485507589707345  1.0000
  H   H63       1.0  0.10639576818689993  0.32335007685499323  0.7964163931894961  1.0000
  H   H64       1.0  0.893604303041478  0.6766497065855432  0.2035831953109907  1.0000
  H   H65       1.0  0.303609823287765  0.576135818591233  0.7166922302513186  1.0000
  H   H66       1.0  0.6963902515203485  0.4238639650243671  0.28330793454077263  1.0000
  H   H67       1.0  0.2802168811645771  0.43390775553743327  0.764383618750863  1.0000
  H   H68       1.0  0.7197824736979115  0.5660920241903541  0.23561523625564731  1.0000
  H   H69       1.0  0.9753373257352108  0.38180956026042884  0.6359007196808764  1.0000
  H   H70       1.0  0.024662177267451613  0.6181908865806705  0.3640994026720038  1.0000
  H   H71       1.0  0.9977074865769354  0.5262060597102974  0.588796597947962  1.0000
  H   H72       1.0  0.0022925918109138153  0.4737937240803661  0.4112041431357343  1.0000
  H   H73       1.0  0.09722035261923877  0.6649923368734604  0.5859596186561049  1.0000
  H   H74       1.0  0.9027798631695916  0.33500811350532433  0.414040660899147  1.0000
  H   H75       1.0  0.31873263549981357  0.685997528307219  0.6561177740466919  1.0000
  H   H76       1.0  0.6812668675028561  0.31400291853387335  0.3438823483061882  1.0000
  H   H77       1.0  0.309344820668521  0.3889518496230125  0.09018829484780615  1.0000
  H   H78       1.0  0.69065610790647  0.6110486042934726  0.9098121419098109  1.0000
  H   H79       1.0  0.3347391417791172  0.30247931733627814  0.14463690939824403  1.0000
  H   H80       1.0  0.6652609330289962  0.6975204662793218  0.8553632553938402  1.0000
  H   H81       1.0  0.2138831413514595  0.30072586739600377  0.08617000298372095  1.0000
  H   H82       1.0  0.7861170744373708  0.6992745829827814  0.9138302765715313  1.0000
  H   H83       1.0  0.47500215192319206  0.15770631943772168  0.9582194832633921  1.0000
  H   H84       1.0  0.5249980638656383  0.8422941309410633  0.04178079629185312  1.0000
  H   H85       1.0  0.4488616524043678  0.24390386675325007  0.07920008917364643  1.0000
  H   H86       1.0  0.5511384188240172  0.7560959166872864  0.9207994993268402  1.0000
  H   H87       1.0  0.1679449123185535  0.2681581470570223  0.9333838811411898  1.0000
  H   H88       1.0  0.8320552998905484  0.7318423031467063  0.06661582212245785  1.0000
  H   H89       1.0  0.1923391507599916  0.18057279111674518  0.8137357924488386  1.0000
  H   H90       1.0  0.8076617778150067  0.8194276627997326  0.1862646443087784  1.0000
  H   H91       1.0  0.42485854112086935  0.092609674963775  0.8177832554488023  1.0000
  H   H92       1.0  0.5751416710882324  0.9073907752399536  0.18221644781483806  1.0000
  H   H93       1.0  0.21850669718999424  0.09610341075472921  0.7143210000293936  1.0000
  H   H94       1.0  0.7814933776181191  0.9038963728608709  0.2856791647626978  1.0000
  H   H95       1.0  0.482268132095946  0.42349708378030476  0.047840872269084386  1.0000
  H   H96       1.0  0.5177318017314433  0.5765020330721101  0.9521591777598534  1.0000
  H   H97       1.0  0.5836955654549029  0.4050949309138617  0.12140707066431848  1.0000
  H   H98       1.0  0.4163043683724935  0.594904185938553  0.8785929793646121  1.0000
  H   H99       1.0  0.5983239675999457  0.49127963765121063  0.06510023162402946  1.0000
  H   H100      1.0  0.40167611078790333  0.5087201461394529  0.9349005094596593  1.0000
  H   H101      1.0  0.5343732779592116  0.7445259743252706  0.2121226752519975  1.0000
  H   H102      1.0  0.4656267932691662  0.25547380911527284  0.7878769132484893  1.0000
  H   H103      1.0  0.5680623934121058  0.6388237158197684  0.10875234878620436  1.0000
  H   H104      1.0  0.43193754041528365  0.36117540103264645  0.8912477012427334  1.0000
  H   H105      1.0  0.4898830069084923  0.42260858532564793  0.22559707361674708  1.0000
  H   H106      1.0  0.5101164960941703  0.5773918615154513  0.7744030487361332  1.0000
  H   H107      1.0  0.4550508308744057  0.5289993732738126  0.3294044620087818  1.0000
  H   H108      1.0  0.5449479521826318  0.47100106967946703  0.6705943505585098  1.0000
  H   H109      1.0  0.44387141340336456  0.6725550463223299  0.38597138842364853  1.0000
  H   H110      1.0  0.5561280895993052  0.3274454005187693  0.6140287339292316  1.0000
  H   H111      1.0  0.5133738892927796  0.8350443417145501  0.3163263070414574  1.0000
  H   H112      1.0  0.4866254691494375  0.16495543818830075  0.6836731242566574  1.0000
  H   H113      1.0  0.8464052708630446  0.8455366306334754  0.4252314901493294  1.0000
  H   H114      1.0  0.1535949449257927  0.15446381974530962  0.5747687894059157  1.0000
  H   H115      1.0  0.6710162892822354  0.7127784532382647  0.46089889287299013  1.0000
  H   H116      1.0  0.32898464287249135  0.2872220008532764  0.5391021201762387  1.0000
  H   H117      1.0  0.683121003238277  0.6536469830707504  0.3690659200839691  1.0000
  H   H118      1.0  0.3168786407451094  0.34635413053352704  0.6309343170320647  1.0000
  H   H119      1.0  0.6995195592711595  0.7725239899235845  0.3871192924352372  1.0000
  H   H120      1.0  0.3004806600974064  0.22747646063026394  0.6128815634116124  1.0000
  H   H121      1.0  0.9235680104189045  0.664264902838788  0.517357655270388  1.0000
  H   H122      1.0  0.07643206796893762  0.3357348809518755  0.482643085813301  1.0000
  H   H123      1.0  0.8196279343173031  0.5869241885090589  0.4491558394921144  1.0000
  H   H124      1.0  0.18037285327697825  0.41307559864423393  0.5508444825023491  1.0000
  H   H125      1.0  0.8129117503803656  0.6440821424026238  0.5440995584323788  1.0000
  H   H126      1.0  0.1870883280074764  0.35591764138803944  0.45590118265131735  1.0000
  C   C1        1.0  0.1939074746428702  0.5229280297264652  0.9624389301987436  1.0000
  C   C2        1.0  0.8060934503523995  0.47707242401495625  0.0375609302672686  1.0000
  C   C3        1.0  0.2464655354889871  0.6620369520644332  0.1744215562458962  1.0000
  C   C4        1.0  0.7535346767201146  0.3379634981392955  0.8255781470177513  1.0000
  C   C5        1.0  0.2584030728332252  0.6111640982269152  0.10646871023997316  1.0000
  C   C6        1.0  0.7415979931427613  0.38883702227769135  0.8935312649892  1.0000
  C   C7        1.0  0.18062449584883208  0.5792468630863111  0.03505569685556508  1.0000
  C   C8        1.0  0.8193764327261661  0.42075359083016656  0.9649447399020518  1.0000
  C   C9        1.0  0.09009901388247238  0.6005410040741096  0.03412659381516648  1.0000
  C   C10       1.0  0.9099017701320734  0.39945878290411946  0.9658731518876851  1.0000
  C   C11       1.0  0.07772121857928481  0.6506891174368904  0.10234332933957553  1.0000
  C   C12       1.0  0.9222789936298169  0.3493113327668382  0.897656373924065  1.0000
  C   C13       1.0  0.155540916851642  0.6825933182951758  0.17406702807643631  1.0000
  C   C14       1.0  0.8444592953574526  0.3174071319085457  0.8259326751872113  1.0000
  C   C15       1.0  0.13856433943872307  0.7340474507707601  0.24404568438908578  1.0000
  C   C16       1.0  0.8614351564044821  0.2659529957202125  0.755953285380585  1.0000
  C   C17       1.0  0.2047427475595072  0.7746409496989699  0.3155098286752108  1.0000
  C   C18       1.0  0.7952574646495876  0.22535950050475154  0.6844898745884366  1.0000
  C   C19       1.0  0.17692247697814883  0.8258541785477078  0.38092747321790926  1.0000
  C   C20       1.0  0.8230777316512173  0.17414627148095724  0.6190716537541265  1.0000
  C   C21       1.0  0.9786973590450214  0.1839185998812169  0.07982041311719706  1.0000
  C   C22       1.0  0.02130029544316162  0.8160798395949344  0.9201790505414638  1.0000
  C   C23       1.0  0.9478209260501274  0.09422334235251381  0.857028494618824  1.0000
  C   C24       1.0  0.0521792861589745  0.9057771078512148  0.14297120864481633  1.0000
  C   C25       1.0  0.9319280328298658  0.13534592482935892  0.9273253412753778  1.0000
  C   C26       1.0  0.06807075380690726  0.8646545182989841  0.07267404758352573  1.0000
  C   C27       1.0  0.9966339428165156  0.13884371662382483  0.004484226377933073  1.0000
  C   C28       1.0  0.0033640007925655447  0.8611560567288238  0.9955166193902517  1.0000
  C   C29       1.0  0.0766791730250986  0.09779077653280412  0.008747630613299907  1.0000
  C   C30       1.0  0.9233207643820264  0.902208340494667  0.9912529957072355  1.0000
  C   C31       1.0  0.09229715222198108  0.05543159854297391  0.9385119305295365  1.0000
  C   C32       1.0  0.9077014970137965  0.9445681779972405  0.06148791985781098  1.0000
  C   C33       1.0  0.02938638444589969  0.054332739646596906  0.8611800723643059  1.0000
  C   C34       1.0  0.9706131149770344  0.9456677070194388  0.1388194736969696  1.0000
  C   C35       1.0  0.05107476170252309  0.0153692226727458  0.7883983268722549  1.0000
  C   C36       1.0  0.9489247413001465  0.9846312241683464  0.21160179548062547  1.0000
  C   C37       1.0  0.0202826228177173  0.036887626483846206  0.7143549317672468  1.0000
  C   C38       1.0  0.9797175929711132  0.9631128238949459  0.28564534778799827  1.0000
  C   C39       1.0  0.04868299166381015  0.9964852769583461  0.6446900253841863  1.0000
  C   C40       1.0  0.9513170795645677  0.0035145064821974987  0.3553095631163005  1.0000
  C   C41       1.0  0.0720850165265077  0.46582216946505645  0.19838465857338158  1.0000
  C   C42       1.0  0.9279157710677737  0.5341776176882433  0.8016156634210748  1.0000
  C   C43       1.0  0.20504233673865002  0.29121988881767896  0.2852836948587126  1.0000
  C   C44       1.0  0.7949570252833029  0.7087798912602353  0.7147163127309997  1.0000
  C   C45       1.0  0.18441406402934754  0.3633116095195846  0.24892148184714818  1.0000
  C   C46       1.0  0.8155858662183135  0.6366875071577669  0.7510779918901779  1.0000
  C   C47       1.0  0.0922602967652466  0.3859869634543927  0.23520645156383327  1.0000
  C   C48       1.0  0.9077406353894802  0.6140134906371486  0.7647945614853955  1.0000
  C   C49       1.0  0.020878753953425602  0.33282886738519585  0.258025846201221  1.0000
  C   C50       1.0  0.9791216063958501  0.667172249931845  0.7419751244087893  1.0000
  C   C51       1.0  0.04102744343814631  0.2607695860711062  0.29496112822437237  1.0000
  C   C52       1.0  0.9589734851368518  0.7392308678453788  0.7050393085332518  1.0000
  C   C53       1.0  0.13394941043413408  0.2391993546592417  0.31010669388553685  1.0000
  C   C54       1.0  0.8660506607942435  0.7608004287813018  0.6898928946149498  1.0000
  C   C55       1.0  0.15259405489630498  0.16751631665376726  0.3542725384555113  1.0000
  C   C56       1.0  0.8474061573127897  0.8324841335499615  0.6457271648081291  1.0000
  C   C57       1.0  0.2373197081280835  0.1403102225993749  0.38061556423397763  1.0000
  C   C58       1.0  0.7626802256993058  0.859688894253047  0.619384485794953  1.0000
  C   C59       1.0  0.24492898724878384  0.07086069837094301  0.43124944730238474  1.0000
  C   C60       1.0  0.7550705085944216  0.9291397481200292  0.568749522467279  1.0000
  C   C61       1.0  0.11465588099111558  0.3121895520877586  0.7346950241195744  1.0000
  C   C62       1.0  0.8853441902372692  0.6878102313527777  0.2653045643809123  1.0000
  C   C63       1.0  0.2310829267410454  0.534402323487356  0.6991594464334698  1.0000
  C   C64       1.0  0.7689172890477849  0.4655981268914362  0.3008408331217752  1.0000
  C   C65       1.0  0.21792716446935154  0.4544756374256239  0.7262581437716948  1.0000
  C   C66       1.0  0.782072197552594  0.5455241426522907  0.27374186381802457  1.0000
  C   C67       1.0  0.1259572345997171  0.398292501973117  0.7045621057719914  1.0000
  C   C68       1.0  0.8740428402083963  0.60170728164249  0.2954380590200999  1.0000
  C   C69       1.0  0.046999408548003906  0.4253166256549363  0.6546527765667777  1.0000
  C   C70       1.0  0.9529999534739488  0.5746831544229708  0.3453472310229416  1.0000
  C   C71       1.0  0.059800937176675034  0.505954285231539  0.6277254711904519  1.0000
  C   C72       1.0  0.9401978566195553  0.49404615824693116  0.3722750702516607  1.0000
  C   C73       1.0  0.15208977256016706  0.5620229462572652  0.6488839413106791  1.0000
  C   C74       1.0  0.8479097268627669  0.43797750040877065  0.3511156047505893  1.0000
  C   C75       1.0  0.16355032248685572  0.6449682526014371  0.6185332437193838  1.0000
  C   C76       1.0  0.836449755900986  0.35503153118922637  0.3814674973643123  1.0000
  C   C77       1.0  0.24806050914712333  0.699836794337138  0.6260202043812628  1.0000
  C   C78       1.0  0.7519389974352748  0.30016365267901796  0.3739804942632149  1.0000
  C   C79       1.0  0.2509654968502346  0.7831223826980961  0.5929467481929154  1.0000
  C   C80       1.0  0.7490347153588671  0.21687806750563254  0.407052955070725  1.0000
  C   C81       1.0  0.29049980669451253  0.31655339195071264  0.08764799964888684  1.0000
  C   C82       1.0  0.709500977320033  0.6834463950275165  0.9123517460539718  1.0000
  C   C83       1.0  0.4078033272211102  0.18272882221596382  0.9526250715261144  1.0000
  C   C84       1.0  0.5921974567934356  0.8172709647622657  0.04737467417674423  1.0000
  C   C85       1.0  0.3932151714893592  0.23167754930923223  0.020506445436936447  1.0000
  C   C86       1.0  0.6067849033187471  0.7683222343063677  0.979493719355155  1.0000
  C   C87       1.0  0.30741199569577293  0.2642669568642546  0.01485852321452799  1.0000
  C   C88       1.0  0.6925882200930644  0.7357334935145304  0.9851417563407242  1.0000
  C   C89       1.0  0.2364423810994793  0.24567490163254044  0.9387507264609598  1.0000
  C   C90       1.0  0.7635578346893508  0.7543255487462447  0.061249553094292315  1.0000
  C   C91       1.0  0.25007065403774215  0.19614251710475372  0.8711585500796704  1.0000
  C   C92       1.0  0.7499294207703713  0.803857266510846  0.12884161471242095  1.0000
  C   C93       1.0  0.33622487482345786  0.1635094639010788  0.8765282991183414  1.0000
  C   C94       1.0  0.6637760537515335  0.8364909900154064  0.12347213763927563  1.0000
  C   C95       1.0  0.3536633545585063  0.11138310155835282  0.8072982187525997  1.0000
  C   C96       1.0  0.6463368540708672  0.8886173484703123  0.19270090821943608  1.0000
  C   C97       1.0  0.29206226567225707  0.0833423738571071  0.7313524041992638  1.0000
  C   C98       1.0  0.7079379501165731  0.9166580765216852  0.26864787535598833  1.0000
  C   C99       1.0  0.3222966511157992  0.03283003548326491  0.6672822846632088  1.0000
  C   C100      1.0  0.6777021319412383  0.9671704074700146  0.3327165279040898  1.0000
  C   C101      1.0  0.5500028142422195  0.4574192250260438  0.09518222267428202  1.0000
  C   C102      1.0  0.4499971195851701  0.542579891826371  0.9048178273546486  1.0000
  C   C103      1.0  0.5235700379794821  0.6739088351877599  0.21516687863010736  1.0000
  C   C104      1.0  0.4764301742296126  0.32609161501596884  0.784832824633533  1.0000
  C   C105      1.0  0.5424376050270183  0.6138984857719124  0.15661842650471408  1.0000
  C   C106      1.0  0.4575626071820763  0.38610196443181627  0.843381276758926  1.0000
  C   C107      1.0  0.5302887778874066  0.5223281848424365  0.15873496117652056  1.0000
  C   C108      1.0  0.4697112933409784  0.47767159859809993  0.841264627323959  1.0000
  C   C109      1.0  0.4987314063199618  0.49317069592753165  0.22199173928974159  1.0000
  C   C110      1.0  0.5012678147212667  0.5068284173871903  0.7780081535368242  1.0000
  C   C111      1.0  0.4792879513509476  0.5529064569573733  0.2804659447530753  1.0000
  C   C112      1.0  0.5207114142507265  0.44709332329560436  0.7195346391282487  1.0000
  C   C113      1.0  0.49163070905971296  0.6446755829354273  0.27856953891706854  1.0000
  C   C114      1.0  0.5083686529622398  0.3553241971424796  0.7214304686726509  1.0000
  C   C115      1.0  0.4722739128135061  0.704378575185075  0.3423139910352405  1.0000
  C   C116      1.0  0.5277261548351432  0.295621208080405  0.6576850211736416  1.0000
  C   C117      1.0  0.4853167460250559  0.7941595251951484  0.354501104269005  1.0000
  C   C118      1.0  0.5146820370319817  0.20584091775813115  0.6454977082982938  1.0000
  C   C119      1.0  0.4601187000054807  0.8429700236714057  0.42287650550373723  1.0000
  C   C120      1.0  0.5398816531843308  0.15703109329550102  0.5771233125230639  1.0000
  C   C121      1.0  0.8780544624740186  0.7954371275824104  0.4572236406026919  1.0000
  C   C122      1.0  0.12195146276359028  0.2045633514480444  0.5427790491547315  1.0000
  C   C123      1.0  0.7114053641610809  0.7147138171602877  0.4157179496468118  1.0000
  C   C124      1.0  0.288595427012929  0.2852859701680686  0.5842829486392491  1.0000
  C   C125      1.0  0.8442577542709699  0.6497794848911127  0.49365659944319173  1.0000
  C   C126      1.0  0.1557423205371435  0.3502202987244872  0.5063435653488996  1.0000
  N   N1        1.0  0.8142303770779336  0.7222699411169132  0.4545039491074834  1.0000
  N   N2        1.0  0.1857682721578513  0.27772983542330826  0.545495901279864  1.0000
  O   O1        1.0  0.0878507276175711  0.8235960618788881  0.376840953213403  1.0000
  O   O2        1.0  0.9121492062098255  0.17640305497352676  0.6231590968155276  1.0000
  O   O3        1.0  0.24424926148936518  0.873985437767047  0.4421930559356612  1.0000
  O   O4        1.0  0.7557500969528519  0.1260143421358038  0.5578063753624536  1.0000
  O   O5        1.0  0.0359721133420976  0.033887595605200695  0.5808850018104936  1.0000
  O   O6        1.0  0.9640279614660159  0.9661121880103993  0.4191151629815909  1.0000
  O   O7        1.0  0.08682099231333502  0.9281097318098831  0.6459832634200924  1.0000
  O   O8        1.0  0.9131792234754954  0.07189071856890192  0.3540170161351527  1.0000
  O   O9        1.0  0.1687279816026148  0.03420109976025291  0.4455054341190064  1.0000
  O   O10       1.0  0.8312720932054987  0.9657986838553472  0.554494730673085  1.0000
  O   O11       1.0  0.33022833711129346  0.05333475676792432  0.4591867166158183  1.0000
  O   O12       1.0  0.6697717412765485  0.9466650270227391  0.5408140244678779  1.0000
  O   O13       1.0  0.1706621994832176  0.8030047250289769  0.5580551363293014  1.0000
  O   O14       1.0  0.8293387326715161  0.19699572906256443  0.4419458767199203  1.0000
  O   O15       1.0  0.3353583398563488  0.8291631779841071  0.6023766472227978  1.0000
  O   O16       1.0  0.6646411595665923  0.1708372686819289  0.39762289883847773  1.0000
  O   O17       1.0  0.2593053901968005  0.0013998191861120002  0.5967499550920721  1.0000
  O   O18       1.0  0.7406941092261333  0.9986006274799166  0.40324959096920315  1.0000
  O   O19       1.0  0.409621315922898  0.02305372785992431  0.6793037907369669  1.0000
  O   O20       1.0  0.5903783173212888  0.9769473852191695  0.32069471750425305  1.0000
  O   O21       1.0  0.47530468331004266  0.9294870248144493  0.4343284641218902  1.0000
  O   O22       1.0  0.5246945305717218  0.0705120881501529  0.5656702761214591  1.0000
  O   O23       1.0  0.4219300975073068  0.8020894969143909  0.46841354002712177  1.0000
  O   O24       1.0  0.5780695428963438  0.19791161651482983  0.5315861207973074  1.0000
  O   O25       1.0  0.9669652617223647  0.8076976995338185  0.49291845916391724  1.0000
  O   O26       1.0  0.03303096719348281  0.19230073286694702  0.5070806900899997  1.0000
  O   O27       1.0  0.5394962012039385  0.9020882759508878  0.6188334591976387  1.0000
  O   O28       1.0  0.4605044339473139  0.09791417454239593  0.3811665883554839  1.0000
