data_image0
_chemical_formula_structural       Zn8H12C44O34
_chemical_formula_sum              "Zn8 H12 C44 O34"
_cell_length_a       15.995407099301616
_cell_length_b       15.99464814318612
_cell_length_c       21.384292866762483
_cell_angle_alpha    111.93916631643381
_cell_angle_beta     112.0164875946812
_cell_angle_gamma    89.95225484915876

_space_group_name_H-M_alt    "P 1"
_space_group_IT_number       1

loop_
  _space_group_symop_operation_xyz
  'x, y, z'

loop_
  _atom_site_type_symbol
  _atom_site_label
  _atom_site_symmetry_multiplicity
  _atom_site_fract_x
  _atom_site_fract_y
  _atom_site_fract_z
  _atom_site_occupancy
  Zn  Zn1       1.0  0.28200497195424384  0.8817621290472459  0.5637257111854765  1.0000
  Zn  Zn2       1.0  0.8817016005097642  0.28185553424101073  0.5637803888911179  1.0000
  Zn  Zn3       1.0  0.28190989069170763  0.6820914001476481  0.5637975788059748  1.0000
  Zn  Zn4       1.0  0.718089838784941  0.31790776688148276  0.43620166472601346  1.0000
  Zn  Zn5       1.0  0.11829693420131804  0.7181446401163925  0.43621970911666347  1.0000
  Zn  Zn6       1.0  0.7179940098334044  0.11823771227549432  0.4362727850575539  1.0000
  Zn  Zn7       1.0  0.31801561484511615  0.7183033606753642  0.4362615674522345  1.0000
  Zn  Zn8       1.0  0.6819844013042413  0.2816952431925586  0.5637386453899184  1.0000
  H   H1        1.0  0.6480202756476245  0.0982857696742343  0.04928156401535944  1.0000
  H   H2        1.0  0.3329423472003015  0.10635331542664524  0.014859183014976915  1.0000
  H   H3        1.0  0.908618136606698  0.6819897007752971  0.01483088296568276  1.0000
  H   H4        1.0  0.09138085912067609  0.3180103624497121  0.9851689930208849  1.0000
  H   H5        1.0  0.6670540389144292  0.8936410156345219  0.9851401311763369  1.0000
  H   H6        1.0  0.5102167942951467  0.806243520805026  0.014374551283822298  1.0000
  H   H7        1.0  0.4897827468981787  0.1937549722930214  0.9856245038360001  1.0000
  H   H8        1.0  0.7918633512278458  0.495864198133063  0.9856114947640933  1.0000
  H   H9        1.0  0.35198038283148475  0.901713286041243  0.9507179253459696  1.0000
  H   H10       1.0  0.20813628682929422  0.5041363169395083  0.014387657741657695  1.0000
  H   H11       1.0  0.04913280702742623  0.5986805244777074  0.950741044120086  1.0000
  H   H12       1.0  0.9508668379995696  0.4013201015459915  0.049258798257433664  1.0000
  C   C1        1.0  0.14964326760828336  0.649830201487923  0.2998921898468652  1.0000
  C   C2        1.0  0.5368917138797897  0.03661735671828134  0.07583302493009116  1.0000
  C   C3        1.0  0.039201339207508644  0.5389211525778137  0.0758369070772247  1.0000
  C   C4        1.0  0.9607987738056563  0.46107947326462545  0.9241634031508495  1.0000
  C   C5        1.0  0.46310829529969755  0.9633811361985068  0.924166498040293  1.0000
  C   C6        1.0  0.42435036952215194  0.9240547821525026  0.846380132613703  1.0000
  C   C7        1.0  0.5756452131446607  0.07593933559319051  0.1536129153144898  1.0000
  C   C8        1.0  0.07757582732173061  0.5779000196880375  0.1536099689194614  1.0000
  C   C9        1.0  0.8503568454048747  0.35017042435451623  0.7001081203812164  1.0000
  C   C10       1.0  0.9224231753755134  0.4221001544881062  0.8463905969388749  1.0000
  C   C11       1.0  0.4731356211794235  0.5267986458551449  0.500008216943101  1.0000
  C   C12       1.0  0.5268676639031966  0.47319984579281293  0.49999458098118776  1.0000
  C   C13       1.0  0.026787413031136947  0.9731266905824186  0.4999939103641465  1.0000
  C   C14       1.0  0.9732123427994068  0.02687617931806597  0.5000074091428389  1.0000
  C   C15       1.0  0.3500401152242105  0.8497270658631066  0.7001140412715756  1.0000
  C   C16       1.0  0.026818953382452534  0.5268325569479374  0.5000180463290391  1.0000
  C   C17       1.0  0.9731814463034141  0.4731675057332936  0.499983233209207  1.0000
  C   C18       1.0  0.09080322873919058  0.9090922500911777  0.5000240004694875  1.0000
  C   C19       1.0  0.9091995798618413  0.09090938985372082  0.49997695622039373  1.0000
  C   C20       1.0  0.4090652542821331  0.5907922184388711  0.4999788931020603  1.0000
  C   C21       1.0  0.6499597955658984  0.15027266414598026  0.29988470080080293  1.0000
  C   C22       1.0  0.590933470237843  0.4092053707828002  0.5000220768299642  1.0000
  C   C23       1.0  0.09081590829375591  0.5908701967425002  0.500025888162952  1.0000
  C   C24       1.0  0.9091854203945715  0.40912975462507023  0.499975637204635  1.0000
  C   C25       1.0  0.4091290961140146  0.909212811699611  0.49996068782431285  1.0000
  C   C26       1.0  0.5908730438033699  0.09078467352637892  0.5000389163713878  1.0000
  C   C27       1.0  0.473164981208555  0.9731946464415632  0.49998763004247593  1.0000
  C   C28       1.0  0.5268378924580972  0.02680194258855554  0.500011341698638  1.0000
  C   C29       1.0  0.5822908067769319  0.054527847257567374  0.026451209785513234  1.0000
  C   C30       1.0  0.41770827340009486  0.9454707569728741  0.973548067355523  1.0000
  C   C31       1.0  0.0281524460777051  0.5558084746828699  0.9735723709921871  1.0000
  C   C32       1.0  0.97184766693546  0.44419215115956945  0.02642793923589438  1.0000
  C   C33       1.0  0.5586606115024396  0.9497522058560294  0.9756461700142368  1.0000
  C   C34       1.0  0.44133828039126394  0.05024572444332163  0.024352918714633656  1.0000
  C   C35       1.0  0.9741791453935915  0.5830648109700222  0.024360581378822094  1.0000
  C   C36       1.0  0.025820960649703427  0.41693570392128276  0.9756390389774837  1.0000
  C   C37       1.0  0.39009137002816635  0.8895886974978068  0.7792761344754525  1.0000
  C   C38       1.0  0.6099117461551558  0.11041271213928637  0.22072786113990614  1.0000
  C   C39       1.0  0.11027372458920581  0.6106936882840374  0.2207241544177592  1.0000
  C   C40       1.0  0.8897258429580075  0.3893085076853638  0.7792769766770675  1.0000
  C   C41       1.0  0.4876185462684646  0.06861059081630567  0.9758551747228807  1.0000
  C   C42       1.0  0.512381651194346  0.9313885760315657  0.02414453665966217  1.0000
  C   C43       1.0  0.09274860241315247  0.5116581894920457  0.02414405675557416  1.0000
  C   C44       1.0  0.9072515036301495  0.4883423253992589  0.9758555636007386  1.0000
  O   O1        1.0  0.25001876750029345  0.7500273512694307  0.5000023194195435  1.0000
  O   O2        1.0  0.7631282160230696  0.33460041573641774  0.6686114085670739  1.0000
  O   O3        1.0  0.3340854823152454  0.9054299693657768  0.6685843987702285  1.0000
  O   O4        1.0  0.6659136947255958  0.09457065683918134  0.3314149757567294  1.0000
  O   O5        1.0  0.05732768622794281  0.8263647639155212  0.4555031363471613  1.0000
  O   O6        1.0  0.9426718882891335  0.17363754300501452  0.5444986846194341  1.0000
  O   O7        1.0  0.37081597360288754  0.6018233497084823  0.5444738460846565  1.0000
  O   O8        1.0  0.6291862771180304  0.3981763793943003  0.4555272352405098  1.0000
  O   O9        1.0  0.7499800329738946  0.24997192707336072  0.4999966782830897  1.0000
  O   O10       1.0  0.057341344615487386  0.6288984150096298  0.45530531700214993  1.0000
  O   O11       1.0  0.9426595160866781  0.3711015365392001  0.5446957405148823  1.0000
  O   O12       1.0  0.1735550542638862  0.6021311516028974  0.5447510864259826  1.0000
  O   O13       1.0  0.8264446891524954  0.3978682373285025  0.45524953684954284  1.0000
  O   O14       1.0  0.3981113325915474  0.8264582101855922  0.45548941742607957  1.0000
  O   O15       1.0  0.6018902285361278  0.17353703134487833  0.5445082417895933  1.0000
  O   O16       1.0  0.3708298625471968  0.9426692880093838  0.5444234131044751  1.0000
  O   O17       1.0  0.6291712375641793  0.057326064653480634  0.45557446813240443  1.0000
  O   O18       1.0  0.17356768832554062  0.9425303549253384  0.5445797744677917  1.0000
  O   O19       1.0  0.8264314042656549  0.057471730274194555  0.4554201989047046  1.0000
  O   O20       1.0  0.39796697596839425  0.6290668676856654  0.4554580142734749  1.0000
  O   O21       1.0  0.6020339761532867  0.370931735819731  0.5445431342697944  1.0000
  O   O22       1.0  0.09365360926678076  0.6651738383765675  0.3311627753126061  1.0000
  O   O23       1.0  0.9063451137276246  0.33482700991191905  0.6688375111073414  1.0000
  O   O24       1.0  0.334121561253852  0.7624580582054463  0.668875200778352  1.0000
  O   O25       1.0  0.665877239220336  0.23754122013734497  0.3311237969242812  1.0000
  O   O26       1.0  0.23687050000147275  0.6654003216009344  0.3313881879810978  1.0000
  O   O27       1.0  0.6123020890364471  0.8954161265919042  0.9453389720360974  1.0000
  O   O28       1.0  0.3876969911405865  0.1045824776385373  0.05466030510493884  1.0000
  O   O29       1.0  0.9502101696341397  0.6670560678529329  0.054636796565141435  1.0000
  O   O30       1.0  0.049789475392863596  0.3329445581707731  0.9453630458123784  1.0000
  O   O31       1.0  0.5298769111346501  0.8671210175369667  0.054124757370360044  1.0000
  O   O32       1.0  0.47012262308881253  0.1328773646099464  0.9458736078776937  1.0000
  O   O33       1.0  0.8130078636992409  0.4759411302935846  0.9458689996086778  1.0000
  O   O34       1.0  0.18699233376356966  0.5240580365542868  0.05413071177386536  1.0000
