data_image0
_chemical_formula_structural       Mn2H16C16N36
_chemical_formula_sum              "Mn2 H16 C16 N36"
_cell_length_a       6.394302012123516
_cell_length_b       10.037723546368591
_cell_length_c       12.106314352562185
_cell_angle_alpha    104.37910749151119
_cell_angle_beta     89.9997102337203
_cell_angle_gamma    90.00069964152802

_space_group_name_H-M_alt    "P 1"
_space_group_IT_number       1

loop_
  _space_group_symop_operation_xyz
  'x, y, z'

loop_
  _atom_site_type_symbol
  _atom_site_label
  _atom_site_symmetry_multiplicity
  _atom_site_fract_x
  _atom_site_fract_y
  _atom_site_fract_z
  _atom_site_occupancy
  Mn  Mn1       1.0  1.57311419215e-05  0.5000001297640253  1.1241007307203189e-05  1.0000
  Mn  Mn2       1.0  0.5000172537023388  0.9999856535757203  0.9999912460960443  1.0000
  H   H1        1.0  0.5725861568688444  0.4888093869599715  0.3715642092245232  1.0000
  H   H2        1.0  0.07256490663658612  0.011219684731614204  0.6284479155871026  1.0000
  H   H3        1.0  0.42744032305100893  0.5112057792730484  0.6284466149821241  1.0000
  H   H4        1.0  0.927420912036027  0.9887883088230044  0.3715580904995405  1.0000
  H   H5        1.0  0.6027992880451266  0.7274916766398932  0.12756505105998875  1.0000
  H   H6        1.0  0.10283862414929251  0.7724960383303169  0.8724202116744094  1.0000
  H   H7        1.0  0.3971896583434856  0.2725060657194619  0.8724346609838634  1.0000
  H   H8        1.0  0.897159705640462  0.22750583772148048  0.1275778948207673  1.0000
  H   H9        1.0  0.10978184672297431  0.6028348916265004  0.28806140701784944  1.0000
  H   H10       1.0  0.6097809628709926  0.8971496902381162  0.7119355655193897  1.0000
  H   H11       1.0  0.8902289941174075  0.3971607541280521  0.7119428186277118  1.0000
  H   H12       1.0  0.3902142391927584  0.10285228532655573  0.28805017149957013  1.0000
  H   H13       1.0  0.5808081246681668  0.8984343510729432  0.41564131620453537  1.0000
  H   H14       1.0  0.0808374959406066  0.6015870194885268  0.5843659803845114  1.0000
  H   H15       1.0  0.41917613020027744  0.10157987281958468  0.584358570725115  1.0000
  H   H16       1.0  0.9191577060214088  0.39841478356702714  0.4156411970631665  1.0000
  C   C1        1.0  0.6167417556959265  0.5209933306077588  0.29566607731974404  1.0000
  C   C2        1.0  0.1167428238560291  0.9790231580220878  0.7043409150688332  1.0000
  C   C3        1.0  0.38325813796861763  0.4790105426114979  0.7043398850376547  1.0000
  C   C4        1.0  0.8832508142880754  0.020982825129998203  0.2956588844136618  1.0000
  C   C5        1.0  0.6297770070094941  0.6440091129167556  0.1680998860724756  1.0000
  C   C6        1.0  0.1297979885562341  0.8559962195383337  0.8318972809006411  1.0000
  C   C7        1.0  0.37021819497791614  0.35599070624708423  0.8318977862482839  1.0000
  C   C8        1.0  0.8701987773441787  0.14400870201237131  0.1681064246511781  1.0000
  C   C9        1.0  0.1815495396005531  0.6971192886795947  0.3371553408227256  1.0000
  C   C10       1.0  0.681556693324957  0.8028751023221972  0.662841024910378  1.0000
  C   C11       1.0  0.8184425346041594  0.3028825608090956  0.6628460642037268  1.0000
  C   C12       1.0  0.31843850871240426  0.19712784196594413  0.33715235088359913  1.0000
  C   C13       1.0  0.4275447169732089  0.8505185149771959  0.40172745244505825  1.0000
  C   C14       1.0  0.9275698687783632  0.6494818309436782  0.5982678351981433  1.0000
  C   C15       1.0  0.5724442295035815  0.1494854577258806  0.598266140440856  1.0000
  C   C16       1.0  0.0724284609840069  0.3505199986633585  0.4017360437201488  1.0000
  N   N1        1.0  0.7592367235871934  0.5394586145748903  0.13719043680386986  1.0000
  N   N2        1.0  0.25925316164906326  0.960546638085866  0.862808005957234  1.0000
  N   N3        1.0  0.24076786177796813  0.4605493525095812  0.8628188677989355  1.0000
  N   N4        1.0  0.7407373486711182  0.0394552246669519  0.13719174980641205  1.0000
  N   N5        1.0  0.7509563569166104  0.4613413669381501  0.21713041996245855  1.0000
  N   N6        1.0  0.25096703219568184  0.0386756870682063  0.7828753686810472  1.0000
  N   N7        1.0  0.24905604791422323  0.5386666068103381  0.7828780600037389  1.0000
  N   N8        1.0  0.7490250420168467  0.9613261756904166  0.21712438708166093  1.0000
  N   N9        1.0  0.5385405493460809  0.6363594845024991  0.2685019443954743  1.0000
  N   N10       1.0  0.03855323135010741  0.8636575046262821  0.7314987624881367  1.0000
  N   N11       1.0  0.4614593443086363  0.36364234511034976  0.731501934521873  1.0000
  N   N12       1.0  0.9614388429006483  0.13634746335176123  0.26849917064340895  1.0000
  N   N13       1.0  0.3913710112305609  0.7238090254715887  0.3296062086093484  1.0000
  N   N14       1.0  0.89138383941161  0.7761982042427461  0.670396414780157  1.0000
  N   N15       1.0  0.6086288824594632  0.27619691789394113  0.6703985386606062  1.0000
  N   N16       1.0  0.10860823482048691  0.22380369169071207  0.3295992178231727  1.0000
  N   N17       1.0  0.0941082947528145  0.8020171165734524  0.40903656494973006  1.0000
  N   N18       1.0  0.5941250594350223  0.6979704607511722  0.5909577792478302  1.0000
  N   N19       1.0  0.9058884711660726  0.197982768945856  0.590952861051349  1.0000
  N   N20       1.0  0.40587327041151877  0.3020335385266222  0.40903251510491856  1.0000
  N   N21       1.0  0.2501792442903438  0.8998495390177442  0.44919821770669427  1.0000
  N   N22       1.0  0.7502148424391636  0.6001442871493341  0.550803620437911  1.0000
  N   N23       1.0  0.7498065744066552  0.10015545547691572  0.5507964169011358  1.0000
  N   N24       1.0  0.24978974291899192  0.399856573757468  0.4491926197015842  1.0000
  N   N25       1.0  0.21382513034097173  0.4227045517311083  0.11390743200288256  1.0000
  N   N26       1.0  0.7138821828148282  0.07724939893167711  0.8860967039368643  1.0000
  N   N27       1.0  0.7862013492249035  0.5772725158448111  0.8861011323652049  1.0000
  N   N28       1.0  0.2861239663542393  0.922740175700909  0.11389384970451027  1.0000
  N   N29       1.0  0.30362760499697583  0.31569532295591785  0.09075009859223117  1.0000
  N   N30       1.0  0.8035910916760403  0.18426050884004752  0.9092310563162513  1.0000
  N   N31       1.0  0.6964004384689843  0.6842777038577524  0.9092485264716926  1.0000
  N   N32       1.0  0.1964041101947132  0.8157279643290778  0.09076835119418546  1.0000
  N   N33       1.0  0.3947140434934155  0.2103601045395465  0.06926281800777896  1.0000
  N   N34       1.0  0.894619917961741  0.2896552238709802  0.9307058619694998  1.0000
  N   N35       1.0  0.6053061805813159  0.7896170957124512  0.9307292537266177  1.0000
  N   N36       1.0  0.10536590054326209  0.7103372833963775  0.06930430948170137  1.0000
