data_image0
_chemical_formula_structural       Cd4Hg4H40C32S16N24O8
_chemical_formula_sum              "Cd4 Hg4 H40 C32 S16 N24 O8"
_cell_length_a       7.551012432040366
_cell_length_b       15.255896367045095
_cell_length_c       16.203593357039843
_cell_angle_alpha    89.99996305635224
_cell_angle_beta     89.99974835283635
_cell_angle_gamma    90.0002767784773

_space_group_name_H-M_alt    "P 1"
_space_group_IT_number       1

loop_
  _space_group_symop_operation_xyz
  'x, y, z'

loop_
  _atom_site_type_symbol
  _atom_site_label
  _atom_site_symmetry_multiplicity
  _atom_site_fract_x
  _atom_site_fract_y
  _atom_site_fract_z
  _atom_site_occupancy
  Cd  Cd1       1.0  0.4905841651798326  0.24649064965478829  0.6165978376931915  1.0000
  Cd  Cd2       1.0  0.5094156360305178  0.7464954581117309  0.3834098816510404  1.0000
  Cd  Cd3       1.0  0.9905818703837569  0.7464893118095901  0.8834046567915692  1.0000
  Cd  Cd4       1.0  0.0094152822123661  0.2464954849883441  0.1165938053498792  1.0000
  Hg  Hg1       1.0  0.0330632632387804  0.4404368165516458  0.4239014825469808  1.0000
  Hg  Hg2       1.0  0.966927831441474  0.9404380037196345  0.5760943911762054  1.0000
  Hg  Hg3       1.0  0.5330638632583417  0.9404363409067711  0.07609401328134877  1.0000
  Hg  Hg4       1.0  0.46692855573977  0.44044044581764297  0.9239055633222292  1.0000
  H   H1        1.0  0.13453317642924392  0.2014400646108925  0.72307027838918  1.0000
  H   H2        1.0  0.8654767808496259  0.7014431762567026  0.27693068016370853  1.0000
  H   H3        1.0  0.6345292359680528  0.7014401093529798  0.776928653031014  1.0000
  H   H4        1.0  0.3654727753588176  0.20144182053719112  0.22307045408924606  1.0000
  H   H5        1.0  0.4543060142759643  0.03825890096069879  0.8728929416742375  1.0000
  H   H6        1.0  0.5457036788019565  0.5382646242779358  0.12710688341162069  1.0000
  H   H7        1.0  0.9543087824337845  0.5382590464900046  0.6271066700244248  1.0000
  H   H8        1.0  0.0456889917083032  0.038261201313858406  0.3728906864864072  1.0000
  H   H9        1.0  0.9102123757046457  0.20008220688590228  0.6295266532746098  1.0000
  H   H10       1.0  0.0897975683802841  0.7000879846142922  0.3704718375282353  1.0000
  H   H11       1.0  0.4102131734605337  0.7000842675793422  0.8704717144384588  1.0000
  H   H12       1.0  0.5897901489809597  0.20008526842782703  0.1295292449596133  1.0000
  H   H13       1.0  0.1365179960228033  0.2579755404876494  0.8546737836778462  1.0000
  H   H14       1.0  0.8634858899891285  0.7579774249241993  0.14532652280201566  1.0000
  H   H15       1.0  0.6365205925456721  0.7579743627925736  0.6453269601800926  1.0000
  H   H16       1.0  0.3634846177696431  0.2579740142310101  0.3546733462998262  1.0000
  H   H17       1.0  0.9136479889173756  0.21978402240773673  0.8647590341665816  1.0000
  H   H18       1.0  0.0863634712755825  0.7197873281962969  0.13523944446196617  1.0000
  H   H19       1.0  0.41365100254585485  0.719784930366657  0.6352380800414394  1.0000
  H   H20       1.0  0.5863564846638383  0.21978576474814557  0.3647610157384449  1.0000
  H   H21       1.0  0.9556351114552156  0.3275155459651413  0.8275116642397364  1.0000
  H   H22       1.0  0.04437872182447931  0.8275233144432618  0.1724892164072642  1.0000
  H   H23       1.0  0.45563512556002195  0.8275177398334745  0.6724877660112581  1.0000
  H   H24       1.0  0.5443707617551965  0.3275178431445056  0.3275118803507766  1.0000
  H   H25       1.0  0.5740219734912202  0.13966314363380405  0.7894026649170341  1.0000
  H   H26       1.0  0.4259873823927123  0.6396639354285653  0.21059709751426678  1.0000
  H   H27       1.0  0.07402162859222731  0.6396633454138723  0.710598897174762  1.0000
  H   H28       1.0  0.9259758083694863  0.1396650446029497  0.2894002481212823  1.0000
  H   H29       1.0  0.1954790536079898  0.9574120611176155  0.8554683926336606  1.0000
  H   H30       1.0  0.8045214765917664  0.4574155330639299  0.14453240776684587  1.0000
  H   H31       1.0  0.6954807631939985  0.45741392324077873  0.644529638665169  1.0000
  H   H32       1.0  0.304518442710517  0.9574169483615405  0.3554680760003777  1.0000
  H   H33       1.0  0.20165634536009241  0.9845897930811133  0.7483989173441116  1.0000
  H   H34       1.0  0.7983470980553378  0.48459121174958847  0.251601249114195  1.0000
  H   H35       1.0  0.7016530733755033  0.48459027220865647  0.751599084517494  1.0000
  H   H36       1.0  0.29833580249646735  0.9845946655116224  0.2483967619250933  1.0000
  H   H37       1.0  0.09568159530453361  0.056329534672300986  0.8197575585802213  1.0000
  H   H38       1.0  0.904321652035371  0.5563308380262838  0.1802428724950431  1.0000
  H   H39       1.0  0.5956825386192437  0.5563302999425375  0.6802396906165169  1.0000
  H   H40       1.0  0.404311438482992  0.0563340056521753  0.3197558032905476  1.0000
  C   C1        1.0  0.6462878700085853  0.41040717403019755  0.48764289801966487  1.0000
  C   C2        1.0  0.3537174998871961  0.9104134889655879  0.5123653371834606  1.0000
  C   C3        1.0  0.1462880681994463  0.9104068536751767  0.0123567045300774  1.0000
  C   C4        1.0  0.8537199503854184  0.41040004416171166  0.987629313380438  1.0000
  C   C5        1.0  0.17637587750888883  0.410826202898093  0.24337780702501988  1.0000
  C   C6        1.0  0.8236189018479506  0.9108210257448733  0.7566211707276906  1.0000
  C   C7        1.0  0.6763668310310963  0.9108249503253417  0.2566217336608148  1.0000
  C   C8        1.0  0.3236305969679024  0.4108209673520591  0.7433778612366452  1.0000
  C   C9        1.0  0.2918977896480612  0.5837823344731844  0.49536988850944397  1.0000
  C   C10       1.0  0.7080911573586876  0.08378140015194901  0.5046280570301745  1.0000
  C   C11       1.0  0.7919087629872054  0.08377380296416703  0.004630851960847299  1.0000
  C   C12       1.0  0.20810269751331137  0.5837833768444723  0.9953695621459744  1.0000
  C   C13       1.0  0.13387099753387594  0.2463762098473481  0.4917376269594412  1.0000
  C   C14       1.0  0.866131451262639  0.746385066821908  0.5082639209809372  1.0000
  C   C15       1.0  0.6338510473564156  0.7463810236808469  0.0082627195365887  1.0000
  C   C16       1.0  0.36613153654580805  0.24638090844803875  0.9917412970121615  1.0000
  C   C17       1.0  0.8801526663646372  0.22622613991957505  0.6913802400539382  1.0000
  C   C18       1.0  0.11985355925457948  0.7262333422744475  0.3086188517453223  1.0000
  C   C19       1.0  0.3801527224546533  0.7262295531867338  0.8086187902093157  1.0000
  C   C20       1.0  0.6198495301905851  0.22623058448679248  0.19138030159380998  1.0000
  C   C21       1.0  0.004190182902164  0.2596370437335551  0.8272040858731626  1.0000
  C   C22       1.0  0.9958150436483068  0.7596438152886759  0.1727931338418927  1.0000
  C   C23       1.0  0.5041951693461968  0.7596397804701664  0.6727938422023951  1.0000
  C   C24       1.0  0.49580740852843525  0.2596384566110004  0.3272058461044196  1.0000
  C   C25       1.0  0.44116160267474663  0.1155713211843263  0.7732712013983587  1.0000
  C   C26       1.0  0.558851491662317  0.6155770090015976  0.2267322787960069  1.0000
  C   C27       1.0  0.9411621080620879  0.615570744214473  0.7267308580380529  1.0000
  C   C28       1.0  0.05883509437331471  0.1155736530486848  0.2732670678502558  1.0000
  C   C29       1.0  0.20747437137139  0.0111733605747162  0.8112784746094518  1.0000
  C   C30       1.0  0.7925271120528734  0.5111750457279809  0.1887226015159982  1.0000
  C   C31       1.0  0.7074752348001142  0.5111741201403674  0.6887216592929164  1.0000
  C   C32       1.0  0.29251962702254275  0.011176252608436198  0.31127571395634845  1.0000
  S   S1        1.0  0.7116056090873857  0.4953829396323072  0.4331900683518484  1.0000
  S   S2        1.0  0.2883714528948644  0.995389716818046  0.5668131771981706  1.0000
  S   S3        1.0  0.21161191600555904  0.9953871710476393  0.06680564504359407  1.0000
  S   S4        1.0  0.7883850108907496  0.4953835189764319  0.9331895775749075  1.0000
  S   S5        1.0  0.2194286982180316  0.5002086411209347  0.5498801197430012  1.0000
  S   S6        1.0  0.780568705489557  0.0002092281605499  0.4501197288678185  1.0000
  S   S7        1.0  0.7194288534881608  0.00020505381208119996  0.9501169107208298  1.0000
  S   S8        1.0  0.2805685502435368  0.5002147819232405  0.0498798521540778  1.0000
  S   S9        1.0  0.9970020874822012  0.2715576975561547  0.41680088795877873  1.0000
  S   S10       1.0  0.0030006064131668994  0.7715578802651135  0.583200027277641  1.0000
  S   S11       1.0  0.4969949966986676  0.7715606069587932  0.08320610510391188  1.0000
  S   S12       1.0  0.5029971025693669  0.2715589037524495  0.9168034502009732  1.0000
  S   S13       1.0  0.23248369428441865  0.492333095866975  0.3044968834713515  1.0000
  S   S14       1.0  0.767506581221447  0.9923284808078634  0.6955038953648796  1.0000
  S   S15       1.0  0.7324818451555686  0.992330573445784  0.1955049605350823  1.0000
  S   S16       1.0  0.2675150519902587  0.4923303477537644  0.804492732559261  1.0000
  N   N1        1.0  0.5962000698543761  0.35057121970618244  0.5270761963299719  1.0000
  N   N2        1.0  0.4037941229500532  0.8505763702515662  0.47292899012155937  1.0000
  N   N3        1.0  0.0961919565494043  0.8505699340524869  0.9729251900360507  1.0000
  N   N4        1.0  0.9037995875893969  0.3505717565447455  0.027076910684705496  1.0000
  N   N5        1.0  0.13969330616068024  0.35269324100369187  0.1988303363200714  1.0000
  N   N6        1.0  0.8603035559339105  0.8526861553677914  0.8011662087624956  1.0000
  N   N7        1.0  0.6396891373447247  0.8526906475030172  0.3011693154000312  1.0000
  N   N8        1.0  0.3603037517485889  0.3526867824098758  0.6988303154225122  1.0000
  N   N9        1.0  0.34752126597952326  0.6422679979359884  0.4556761488889974  1.0000
  N   N10       1.0  0.6524656016972444  0.1422642816385036  0.5443248462513353  1.0000
  N   N11       1.0  0.8475265681288138  0.14226271714186103  0.0443225901006272  1.0000
  N   N12       1.0  0.15246692116352284  0.6422662850194597  0.9556777878868771  1.0000
  N   N13       1.0  0.2304881505190082  0.22556599315890938  0.545492894819489  1.0000
  N   N14       1.0  0.76951541999604  0.7255713772704337  0.4545099002733081  1.0000
  N   N15       1.0  0.7304825372924029  0.7255737842586923  0.9545138481064297  1.0000
  N   N16       1.0  0.2695117629335043  0.22556948551521572  0.045496969905812486  1.0000
  N   N17       1.0  0.0161212680824718  0.22655020710795523  0.7431721059094301  1.0000
  N   N18       1.0  0.9838849606733079  0.7265542716015289  0.2568276028376246  1.0000
  N   N19       1.0  0.5161201656356055  0.7265509208594878  0.7568264353313124  1.0000
  N   N20       1.0  0.4838807658167141  0.2265522468755279  0.243172039127451  1.0000
  N   N21       1.0  0.3760757581964214  0.0552083357556157  0.8239452317770313  1.0000
  N   N22       1.0  0.6239314512160166  0.555212902701875  0.1760564342800635  1.0000
  N   N23       1.0  0.8760780652668032  0.5552091038431046  0.6760557639444611  1.0000
  N   N24       1.0  0.1239185495477173  0.0552101681501469  0.3239421992417277  1.0000
  O   O1        1.0  0.7278261163178428  0.25346525504163253  0.7103391452870227  1.0000
  O   O2        1.0  0.2721830231182949  0.7534741462634358  0.2896623982662589  1.0000
  O   O3        1.0  0.2278263509980647  0.7534686810617613  0.7896601800822863  1.0000
  O   O4        1.0  0.7721748424889725  0.2534694092660885  0.21033889489129354  1.0000
  O   O5        1.0  0.35972130068805797  0.14411955069348886  0.7109073312695244  1.0000
  O   O6        1.0  0.6402880985483463  0.6441201479028749  0.28909859987883374  1.0000
  O   O7        1.0  0.8597198942948341  0.6441202427404774  0.7890942601566593  1.0000
  O   O8        1.0  0.1402815590357208  0.14412404423807598  0.2109061166748774  1.0000
