data_image0
_chemical_formula_structural       Cd2H28C32S4N8O4
_chemical_formula_sum              "Cd2 H28 C32 S4 N8 O4"
_cell_length_a       5.69431311950871
_cell_length_b       12.562871013538722
_cell_length_c       14.395776927222833
_cell_angle_alpha    106.71156894605927
_cell_angle_beta     101.35707899632716
_cell_angle_gamma    103.17699543350226

_space_group_name_H-M_alt    "P 1"
_space_group_IT_number       1

loop_
  _space_group_symop_operation_xyz
  'x, y, z'

loop_
  _atom_site_type_symbol
  _atom_site_label
  _atom_site_symmetry_multiplicity
  _atom_site_fract_x
  _atom_site_fract_y
  _atom_site_fract_z
  _atom_site_occupancy
  Cd  Cd1       1.0  1.192183475736385e-06  0.999998204862088  0.9999935313350861  1.0000
  Cd  Cd2       1.0  0.5000104214482164  0.49999671048019684  0.5000026678659992  1.0000
  H   H1        1.0  0.44108177617440714  0.7991018078283788  0.883709277844602  1.0000
  H   H2        1.0  0.2581757930713311  0.7006677563104022  0.6163844888661956  1.0000
  H   H3        1.0  0.5589348542411016  0.20091164744149384  0.11629374105871901  1.0000
  H   H4        1.0  0.7418427107191903  0.29932215401873213  0.38361075874362877  1.0000
  H   H5        1.0  0.2432787397262145  0.585826459447965  0.8311000515141982  1.0000
  H   H6        1.0  0.32626988623477604  0.9138478656257544  0.6686259622047784  1.0000
  H   H7        1.0  0.7567061275092043  0.4141896060881437  0.16890432588827767  1.0000
  H   H8        1.0  0.6737246714459459  0.0861429127326119  0.331370115896334  1.0000
  H   H9        1.0  0.9683045406148024  0.5626281606804682  0.9695482501699217  1.0000
  H   H10       1.0  0.938118887873479  0.9373684226593115  0.5308779568653536  1.0000
  H   H11       1.0  0.0316545473717015  0.4373643650213667  0.03045296002161287  1.0000
  H   H12       1.0  0.06189167929339594  0.06262934572396259  0.46912452136288607  1.0000
  H   H13       1.0  0.1338470157740518  0.7782699383665702  0.019619346097911817  1.0000
  H   H14       1.0  0.8374987997313075  0.7218105105081353  0.4809304000581849  1.0000
  H   H15       1.0  0.8661471916710255  0.22172259343531664  0.9803811509035754  1.0000
  H   H16       1.0  0.16254140277016665  0.278187271280629  0.5190748451204499  1.0000
  H   H17       1.0  0.17599745048854498  0.27099627147632077  0.7966117162287674  1.0000
  H   H18       1.0  0.60955109454153  0.22883339204722827  0.7029564225560989  1.0000
  H   H19       1.0  0.8239671070379302  0.729007595365239  0.20339456676401116  1.0000
  H   H20       1.0  0.39046304063578663  0.7711643726964111  0.2970442456378066  1.0000
  H   H21       1.0  0.18527186905174647  0.37514090891119894  0.7338209422754787  1.0000
  H   H22       1.0  0.5760289509163528  0.12457596991459496  0.7656694733394288  1.0000
  H   H23       1.0  0.8146963028102475  0.6248603250418867  0.26617731985892584  1.0000
  H   H24       1.0  0.42400643439807356  0.8754226783581347  0.2343342280669632  1.0000
  H   H25       1.0  0.09217368505867535  0.40074090019189856  0.8460532880341772  1.0000
  H   H26       1.0  0.3461813418898246  0.09905756462146799  0.6532447038032173  1.0000
  H   H27       1.0  0.9078054404672642  0.5992716675954811  0.15394656676104299  1.0000
  H   H28       1.0  0.6538295036061399  0.9009376059336346  0.3467643602206323  1.0000
  C   C1        1.0  0.4220281096218417  0.9955530911505194  0.874275970534562  1.0000
  C   C2        1.0  0.05099191377408377  0.5042463067484775  0.6255555530425169  1.0000
  C   C3        1.0  0.577960122316476  0.0044489967438963  0.1257133632457368  1.0000
  C   C4        1.0  0.9490199740043862  0.4957601974840387  0.3744559432115011  1.0000
  C   C5        1.0  0.5514248442808877  0.7435718267877005  0.9017110753285846  1.0000
  C   C6        1.0  0.406478353063598  0.7562591148179791  0.5984199073015475  1.0000
  C   C7        1.0  0.4485711248683089  0.25643551418414745  0.09828775515594401  1.0000
  C   C8        1.0  0.5935401299833174  0.2437368983934718  0.4015767572603579  1.0000
  C   C9        1.0  0.4421849378473439  0.6234906969136276  0.8721191343182113  1.0000
  C   C10       1.0  0.44687311424440423  0.8762782062815048  0.6278193163093208  1.0000
  C   C11       1.0  0.5578071783311741  0.37652275427210896  0.12788445333062268  1.0000
  C   C12       1.0  0.5531312163140855  0.1237117056713402  0.3721778857793652  1.0000
  C   C13       1.0  0.5907714409066929  0.5550145743043302  0.8956430229259453  1.0000
  C   C14       1.0  0.6409502728362002  0.9448476133539786  0.6043574813052572  1.0000
  C   C15       1.0  0.4092065960116784  0.44498928905446883  0.10436061046314654  1.0000
  C   C16       1.0  0.3590533766728824  0.0551440335565729  0.39563662872262734  1.0000
  C   C17       1.0  0.8441834298706183  0.6113117833575287  0.9488099504144925  1.0000
  C   C18       1.0  0.785612966724628  0.888661158645789  0.5515504752879323  1.0000
  C   C19       1.0  0.15578810622273662  0.3886842272627717  0.05118993701292143  1.0000
  C   C20       1.0  0.21438580648160155  0.11133224718081891  0.4484506987277115  1.0000
  C   C21       1.0  0.9382708391626766  0.7314516146884034  0.9767152428866125  1.0000
  C   C22       1.0  0.731392936698029  0.7685530823842869  0.5237229926545908  1.0000
  C   C23       1.0  0.06172595749247733  0.2685470181890679  0.02328569608568643  1.0000
  C   C24       1.0  0.2686350947039529  0.23144294761082312  0.47627964817431223  1.0000
  C   C25       1.0  0.48989781471073723  0.4248644343303099  0.867523224951384  1.0000
  C   C26       1.0  0.6982626496983713  0.07492468989175188  0.6321218824783088  1.0000
  C   C27       1.0  0.510063550622398  0.5751411563408624  0.13247565530340216  1.0000
  C   C28       1.0  0.30168834600375055  0.9250547596603623  0.3678776268292268  1.0000
  C   C29       1.0  0.22013363359389607  0.36397751952400637  0.8078912430511166  1.0000
  C   C30       1.0  0.5489918970111347  0.1358388276416633  0.6916518358014159  1.0000
  C   C31       1.0  0.7798495500035473  0.6360298267896384  0.1921109321619312  1.0000
  C   C32       1.0  0.4510307490766153  0.8641571967240297  0.3083489995094554  1.0000
  S   S1        1.0  0.12079738330106714  0.9540673253278413  0.8202689300574164  1.0000
  S   S2        1.0  0.8457365739322356  0.5460004481835269  0.6797152151371648  1.0000
  S   S3        1.0  0.8791947253961254  0.04594521124806761  0.1797170086923501  1.0000
  S   S4        1.0  0.15427772665196948  0.45399732580301605  0.32028920853733217  1.0000
  N   N1        1.0  0.642061090351568  0.0261861610029186  0.912071797846636  1.0000
  N   N2        1.0  0.20230218168349273  0.4734470873689745  0.5876739239815976  1.0000
  N   N3        1.0  0.35793382240265703  0.9738124404277497  0.08791648443424556  1.0000
  N   N4        1.0  0.7977313400020664  0.5265541808835367  0.41233237269646145  1.0000
  N   N5        1.0  0.7949703234724056  0.7968680084151671  0.9532419720457028  1.0000
  N   N6        1.0  0.5454861768593774  0.7030470617876503  0.5470440880792325  1.0000
  N   N7        1.0  0.2050455813618939  0.20313672579934663  0.046758009615132316  1.0000
  N   N8        1.0  0.4545384585701838  0.2969454723439284  0.45295458533901467  1.0000
  O   O1        1.0  0.6316102585876209  0.3712825470578238  0.8939447490649144  1.0000
  O   O2        1.0  0.8670090763319392  0.12845497088039076  0.6053982652546992  1.0000
  O   O3        1.0  0.3683573323564461  0.6287160779651374  0.10605564825969088  1.0000
  O   O4        1.0  0.13299833748534712  0.8715409774738349  0.3945729505124547  1.0000
