data_image0
_chemical_formula_structural       Zn4H36C82N4Cl6O22
_chemical_formula_sum              "Zn4 H36 C82 N4 Cl6 O22"
_cell_length_a       13.252594539090751
_cell_length_b       13.83538795784282
_cell_length_c       28.587658258190256
_cell_angle_alpha    89.9097220600995
_cell_angle_beta     89.75029287058544
_cell_angle_gamma    89.86542264630316

_space_group_name_H-M_alt    "P 1"
_space_group_IT_number       1

loop_
  _space_group_symop_operation_xyz
  'x, y, z'

loop_
  _atom_site_type_symbol
  _atom_site_label
  _atom_site_symmetry_multiplicity
  _atom_site_fract_x
  _atom_site_fract_y
  _atom_site_fract_z
  _atom_site_occupancy
  Zn  Zn1       1.0  0.5094042883404057  0.40321739457308337  0.49653942919772487  1.0000
  Zn  Zn2       1.0  0.48853513960428063  0.6024325326139603  0.501280872668147  1.0000
  Zn  Zn3       1.0  0.5096463597509526  0.5974843501132059  0.037279012447569905  1.0000
  Zn  Zn4       1.0  0.48987081984257935  0.3983451219969253  0.0326190066190577  1.0000
  H   H1        1.0  0.3984904929247506  0.25603406557676334  0.5485870007404757  1.0000
  H   H2        1.0  0.32293598738196744  0.10180492453753233  0.5835710799037415  1.0000
  H   H3        1.0  0.6193343158445687  0.24530712306590638  0.44591991225112093  1.0000
  H   H4        1.0  0.6011767522700849  0.7487889496307931  0.4501495257806739  1.0000
  H   H5        1.0  0.6789145449359423  0.9029014014656059  0.4161936603604488  1.0000
  H   H6        1.0  0.38114859997327943  0.7594458398525392  0.5530890010453079  1.0000
  H   H7        1.0  0.5054912293519322  0.6266857123884862  0.18965009050287315  1.0000
  H   H8        1.0  0.49898403669082814  0.31914862981521  0.17609121713344683  1.0000
  H   H9        1.0  0.5060504076031904  0.3725671071813537  0.344130894217983  1.0000
  H   H10       1.0  0.4989442483250883  0.6801101397563868  0.35775085315682287  1.0000
  H   H11       1.0  0.4968648788004516  0.6545517369124243  0.6481572156522193  1.0000
  H   H12       1.0  0.4980863062588838  0.7454370553125361  0.7231038752714198  1.0000
  H   H13       1.0  0.5013891336670256  0.34482535588697516  0.6478906038615335  1.0000
  H   H14       1.0  0.4973850682369444  0.3449761565599658  0.8857256701627207  1.0000
  H   H15       1.0  0.49762451612563297  0.2540879481444663  0.8107643914089098  1.0000
  H   H16       1.0  0.5033404687706095  0.6546669691054491  0.8859548909027312  1.0000
  H   H17       1.0  0.8338576486444679  0.3721241212143483  0.4981612062350679  1.0000
  H   H18       1.0  0.8016378129015393  0.6795019442518397  0.5006193787473094  1.0000
  H   H19       1.0  0.16476577115732738  0.627205782597841  0.5005584647723822  1.0000
  H   H20       1.0  0.1970273670540053  0.3198102736193108  0.49885229130660497  1.0000
  H   H21       1.0  0.3984715824641611  0.7454318625352628  0.9855790374032838  1.0000
  H   H22       1.0  0.32361952642271774  0.9002523016010786  0.9508073334081218  1.0000
  H   H23       1.0  0.6196991617500132  0.7546800089864693  0.087198480273571  1.0000
  H   H24       1.0  0.6023096439393073  0.2513137645086303  0.08333986268281281  1.0000
  H   H25       1.0  0.6801012920851761  0.09667205432901231  0.11677959601700393  1.0000
  H   H26       1.0  0.3830449841679738  0.24218742361055237  0.9809328259119499  1.0000
  H   H27       1.0  0.8340425886588037  0.6293946480344064  0.035963186843083916  1.0000
  H   H28       1.0  0.803369018026359  0.322045675843981  0.033834717916605014  1.0000
  H   H29       1.0  0.16628687799142478  0.37427843769993535  0.034258060334067905  1.0000
  H   H30       1.0  0.19687676642673324  0.6817070854508034  0.0360113319138193  1.0000
  H   H31       1.0  0.5003546499758542  0.7185848015692006  0.23583513058654407  1.0000
  H   H32       1.0  0.5004330458634527  0.2808502550135686  0.2980099619031762  1.0000
  H   H33       1.0  0.934068882505464  0.2806367718248028  0.5005259959310493  1.0000
  H   H34       1.0  0.06454606611671211  0.7189633482149773  0.5006761766444257  1.0000
  H   H35       1.0  0.9337425668194327  0.7208043673994384  0.034833350120735  1.0000
  H   H36       1.0  0.06638703383072199  0.2824926722278676  0.03547299975062401  1.0000
  C   C1        1.0  0.4979628814301548  0.500916030999619  0.590969873009776  1.0000
  C   C2        1.0  0.3016066265867394  0.4886669603915836  0.49962999880479236  1.0000
  C   C3        1.0  0.5016837371966361  0.5132303354494355  0.4071018915748326  1.0000
  C   C4        1.0  0.6969527300692845  0.5116720906354361  0.49872753864107733  1.0000
  C   C5        1.0  0.4994530980255262  0.49868555705796086  0.9428948456541947  1.0000
  C   C6        1.0  0.3024211424116601  0.5129593970675332  0.0347830244689433  1.0000
  C   C7        1.0  0.5016017376083468  0.4861555651722399  0.1267217589116854  1.0000
  C   C8        1.0  0.6978281263336612  0.4899707674837331  0.0350908231553291  1.0000
  C   C9        1.0  0.44533526756718084  0.20929961673603262  0.5267242887536199  1.0000
  C   C10       1.0  0.438899063558317  0.10824761270230712  0.5292176854641326  1.0000
  C   C11       1.0  0.3714499289241502  0.059456304990448  0.560489135865204  1.0000
  C   C12       1.0  0.5699542648476523  0.2033621822819853  0.46873160455432133  1.0000
  C   C13       1.0  0.5701679853469557  0.10206749291670292  0.4680413395980595  1.0000
  C   C14       1.0  0.6339004915861751  0.04420574803104671  0.4380931292634572  1.0000
  C   C15       1.0  0.554858927341286  0.7956754652273831  0.4721931196878657  1.0000
  C   C16       1.0  0.5620963399256453  0.8966723012136346  0.47009631321796524  1.0000
  C   C17       1.0  0.630100096514731  0.9453820192918629  0.4390882945379317  1.0000
  C   C18       1.0  0.4304142637561199  0.8015714528522011  0.5302886785436983  1.0000
  C   C19       1.0  0.4308214289020781  0.9028299914944711  0.5312824693399563  1.0000
  C   C20       1.0  0.36761411575759695  0.960618161001854  0.5614675797459157  1.0000
  C   C21       1.0  0.5027312806809051  0.053510935344654315  0.4990734540344235  1.0000
  C   C22       1.0  0.49831473493576783  0.951375645650245  0.5002757870326846  1.0000
  C   C23       1.0  0.504654822790485  0.5565878411223083  0.20728773876945183  1.0000
  C   C24       1.0  0.5018265880446222  0.38210360004117666  0.1987960121351406  1.0000
  C   C25       1.0  0.5031542742296794  0.37057706526260864  0.24673586846228807  1.0000
  C   C26       1.0  0.5045730728842557  0.4522999902569041  0.2773404101978016  1.0000
  C   C27       1.0  0.5050123850990147  0.4426888535336035  0.3265016365475972  1.0000
  C   C28       1.0  0.5018945339054212  0.6171825969092171  0.3350062075994842  1.0000
  C   C29       1.0  0.5030809485411608  0.6287668831216989  0.2870721412375304  1.0000
  C   C30       1.0  0.5044284486440559  0.5470381502790644  0.2564515940208665  1.0000
  C   C31       1.0  0.5031405639300813  0.4756077051857304  0.17891635479958984  1.0000
  C   C32       1.0  0.5033634244980687  0.5236805886279684  0.3548890659848425  1.0000
  C   C33       1.0  0.4977907513757104  0.5871152194463959  0.667887735485323  1.0000
  C   C34       1.0  0.498654800160608  0.5884734233946392  0.7169028336915704  1.0000
  C   C35       1.0  0.49878970130362177  0.677450037345956  0.7424211088398138  1.0000
  C   C36       1.0  0.49995367515808203  0.41187387585146246  0.6677208720354741  1.0000
  C   C37       1.0  0.49938484851452364  0.4097866142433873  0.7167260639462257  1.0000
  C   C38       1.0  0.4988608349334386  0.3216938575448368  0.7436708690921351  1.0000
  C   C39       1.0  0.49847845053369594  0.4124119362122373  0.8659819372392975  1.0000
  C   C40       1.0  0.49885269064848353  0.41104141944987316  0.8169655799231209  1.0000
  C   C41       1.0  0.4983525834763185  0.3220655707318941  0.7914329447460133  1.0000
  C   C42       1.0  0.5014814061964047  0.5876365906593649  0.8661262202317419  1.0000
  C   C43       1.0  0.5004301608847328  0.5897202509406085  0.8171313984905808  1.0000
  C   C44       1.0  0.4999038231478251  0.6778065328155024  0.7901840075672055  1.0000
  C   C45       1.0  0.4986556261682439  0.499687734795046  0.6434950345179261  1.0000
  C   C46       1.0  0.4991809015879269  0.49913946267362524  0.7420850344478822  1.0000
  C   C47       1.0  0.499967847297384  0.4998422692005492  0.8903698939631185  1.0000
  C   C48       1.0  0.4994954405232476  0.5003724856120471  0.7917735026656844  1.0000
  C   C49       1.0  0.8713137520321225  0.44233446288627937  0.4988771389747698  1.0000
  C   C50       1.0  0.8513515969614927  0.6167940285703181  0.5000138019945696  1.0000
  C   C51       1.0  0.9546842660534979  0.6287091380518677  0.5002413969149516  1.0000
  C   C52       1.0  0.021376770049535296  0.5471395049783254  0.499963569237714  1.0000
  C   C53       1.0  0.1272633698183441  0.5570069318111379  0.5001787753542574  1.0000
  C   C54       1.0  0.14738974200793106  0.38257702980650526  0.4993328346100157  1.0000
  C   C55       1.0  0.044001632760704006  0.3707029941879654  0.49946318165686426  1.0000
  C   C56       1.0  0.9772430488936763  0.45222561571471  0.49944975768486444  1.0000
  C   C57       1.0  0.8093804843209044  0.5231405685772046  0.4991505809369628  1.0000
  C   C58       1.0  0.1892863713810797  0.4762793143645538  0.49972430229989584  1.0000
  C   C59       1.0  0.44561447534748305  0.7918602064681795  0.007186220467581002  1.0000
  C   C60       1.0  0.43959706082262767  0.8929638745199711  0.004667433259093902  1.0000
  C   C61       1.0  0.37230873925234675  0.9422443232625142  0.973669109755001  1.0000
  C   C62       1.0  0.5703359505783324  0.7969807895299397  0.064636764891155  1.0000
  C   C63       1.0  0.5708896494441262  0.8982747866876367  0.0653067084471175  1.0000
  C   C64       1.0  0.6347933236631108  0.955688977279927  0.09499651122159493  1.0000
  C   C65       1.0  0.5561753469593569  0.20474223038947065  0.061341772126112915  1.0000
  C   C66       1.0  0.5633104773959445  0.1037127618986915  0.0633445994976682  1.0000
  C   C67       1.0  0.6311889532559292  0.05454163028264251  0.09406762995711661  1.0000
  C   C68       1.0  0.4321051091285355  0.19970118315067964  0.0035678286158145  1.0000
  C   C69       1.0  0.43225403275098256  0.09845490746764803  0.0025789440654478  1.0000
  C   C70       1.0  0.36886889715405863  0.041108005016333514  0.9726598145923974  1.0000
  C   C71       1.0  0.5036243341154218  0.9472761607819965  0.0345367447005671  1.0000
  C   C72       1.0  0.49950350453480746  0.049449170396954414  0.033360131932411705  1.0000
  C   C73       1.0  0.8718537322439205  0.5591799305598856  0.0354492370164081  1.0000
  C   C74       1.0  0.8527483188204598  0.3847483408640074  0.0344757300874718  1.0000
  C   C75       1.0  0.956153198971812  0.3727984724561537  0.034711969309142915  1.0000
  C   C76       1.0  0.022467109459945796  0.45434394539645967  0.03491080436531751  1.0000
  C   C77       1.0  0.1284320512611217  0.4444803150851443  0.0347007348251864  1.0000
  C   C78       1.0  0.1476054856505371  0.6189173679214832  0.035503410519631  1.0000
  C   C79       1.0  0.0441516820046175  0.6307700137862824  0.035423294185541514  1.0000
  C   C80       1.0  0.9778407232845651  0.5492476351143981  0.03523914051344691  1.0000
  C   C81       1.0  0.8103053017137613  0.47841321137799764  0.035002224030606  1.0000
  C   C82       1.0  0.1900190689636148  0.525243007971021  0.0350165010455896  1.0000
  N   N1        1.0  0.5090615137595194  0.2540455277669055  0.4973012781569466  1.0000
  N   N2        1.0  0.49064572037381987  0.7511013855266242  0.5013969784351886  1.0000
  N   N3        1.0  0.5092006090210504  0.7466985157378051  0.0363657631215801  1.0000
  N   N4        1.0  0.49223032072053025  0.24973656664356986  0.03233048880761661  1.0000
  Cl  Cl1       1.0  0.285774112522617  0.9031661625985238  0.5993897709870454  1.0000
  Cl  Cl2       1.0  0.7163111278719185  0.10152497389815104  0.4003773327848564  1.0000
  Cl  Cl3       1.0  0.5002543144148887  0.7878980214629508  0.8193060701355465  1.0000
  Cl  Cl4       1.0  0.49854432916611563  0.21158935147128946  0.7145515441977608  1.0000
  Cl  Cl5       1.0  0.2873108356673555  0.09912616839527293  0.9350064319193978  1.0000
  Cl  Cl6       1.0  0.7171708644556462  0.8977670096928919  0.132309736697259  1.0000
  O   O1        1.0  0.5065779744225339  0.4206873167287244  0.5696254816354482  1.0000
  O   O2        1.0  0.4886446089542175  0.5837460162484831  0.5718080198740694  1.0000
  O   O3        1.0  0.33585433111213087  0.5746261203580262  0.5006694333033366  1.0000
  O   O4        1.0  0.35464467760174045  0.4116657727939313  0.4984562418020317  1.0000
  O   O5        1.0  0.49409502181460857  0.5916210672432315  0.43023817971386086  1.0000
  O   O6        1.0  0.5075163092118018  0.4285491079401639  0.4245478600825763  1.0000
  O   O7        1.0  0.6617961640386342  0.4259153953349327  0.4964423662210394  1.0000
  O   O8        1.0  0.6447067485732701  0.5888186012490452  0.5007896824910887  1.0000
  O   O9        1.0  0.5081782855621597  0.578864787144248  0.9642124813495558  1.0000
  O   O10       1.0  0.490044147322962  0.4159151783124245  0.9620954855152207  1.0000
  O   O11       1.0  0.33714829084082254  0.4270383003036785  0.0337883536653578  1.0000
  O   O12       1.0  0.3550191756297706  0.5900363165399226  0.0356112979114229  1.0000
  O   O13       1.0  0.4948256642142326  0.4077333128006801  0.1036056405282224  1.0000
  O   O14       1.0  0.5068153785255447  0.5708466861970865  0.1092639174923988  1.0000
  O   O15       1.0  0.6622559586215503  0.5757374323254183  0.0375142932761889  1.0000
  O   O16       1.0  0.6459374467397438  0.41291197783296957  0.03270670772592871  1.0000
  O   O17       1.0  0.5022270673849434  0.7211501277132445  0.2698797393296957  1.0000
  O   O18       1.0  0.5024294805522942  0.27822775867527133  0.2639574448057544  1.0000
  O   O19       1.0  0.007534636773023399  0.2782398811015341  0.4994954281363847  1.0000
  O   O20       1.0  0.9910602506930956  0.7211925699014544  0.5007854392455472  1.0000
  O   O21       1.0  0.007203721490277798  0.7232113170458734  0.035545559007808  1.0000
  O   O22       1.0  0.9929314818405641  0.2802926642901512  0.034665941426645516  1.0000
