data_image0
_chemical_formula_structural       Cu4H72C72S4Br8N24O4
_chemical_formula_sum              "Cu4 H72 C72 S4 Br8 N24 O4"
_cell_length_a       8.457751787880635
_cell_length_b       15.100128439016748
_cell_length_c       21.025061948789183
_cell_angle_alpha    90.00045585887828
_cell_angle_beta     90.00448086223224
_cell_angle_gamma    89.99887975935417

_space_group_name_H-M_alt    "P 1"
_space_group_IT_number       1

loop_
  _space_group_symop_operation_xyz
  'x, y, z'

loop_
  _atom_site_type_symbol
  _atom_site_label
  _atom_site_symmetry_multiplicity
  _atom_site_fract_x
  _atom_site_fract_y
  _atom_site_fract_z
  _atom_site_occupancy
  Cu  Cu1       1.0  0.19528313276042297  0.003212918178285  0.8989621312087834  1.0000
  Cu  Cu2       1.0  0.8046896055413127  0.996796623014177  0.39899621239611355  1.0000
  Cu  Cu3       1.0  0.6952455629279086  0.49677453279596057  0.8989629352813608  1.0000
  Cu  Cu4       1.0  0.30470943852048277  0.5032204389686754  0.3989782856270025  1.0000
  H   H1        1.0  0.9267982150300751  0.8327341930321097  0.34348982078955  1.0000
  H   H2        1.0  0.07317029006990339  0.16724423364866678  0.8434529162483031  1.0000
  H   H3        1.0  0.42681870796692317  0.667287668347214  0.343479910410025  1.0000
  H   H4        1.0  0.5731474301731225  0.3327324797690281  0.8434499848915705  1.0000
  H   H5        1.0  0.886890626164181  0.669505398259325  0.3586455278157104  1.0000
  H   H6        1.0  0.11307301719729418  0.33049506033627557  0.858602946351752  1.0000
  H   H7        1.0  0.386881070297015  0.8305130506142859  0.3586383970644249  1.0000
  H   H8        1.0  0.6130849383356461  0.169488070246679  0.8586153089875168  1.0000
  H   H9        1.0  0.7014975050355188  0.6182112054194419  0.44519630992825654  1.0000
  H   H10       1.0  0.29841470585685664  0.38179424240337306  0.9451698462997483  1.0000
  H   H11       1.0  0.20148948468595046  0.8818040779256152  0.4451918330685984  1.0000
  H   H12       1.0  0.7984581965346179  0.1182060054491529  0.9451743236409413  1.0000
  H   H13       1.0  0.6319800057644895  0.9777339412203716  0.4954321186958879  1.0000
  H   H14       1.0  0.367930521737513  0.022270771501609894  0.9954088902019933  1.0000
  H   H15       1.0  0.13202746686447847  0.5222806115537182  0.4954090629179221  1.0000
  H   H16       1.0  0.867939809314265  0.4777227761946606  0.9953962750126736  1.0000
  H   H17       1.0  0.4497259361060059  0.9315045918728018  0.5821489483117972  1.0000
  H   H18       1.0  0.5502345107091456  0.06847805358545142  0.0821242222745084  1.0000
  H   H19       1.0  0.9497382676458557  0.5684893860354807  0.5821241449793035  1.0000
  H   H20       1.0  0.05021626325072499  0.43151246438772983  0.08211525635761768  1.0000
  H   H21       1.0  0.5259351194380031  0.6569195163454038  0.5326383055888897  1.0000
  H   H22       1.0  0.47405318769154553  0.3430890380663811  0.0326311142347961  1.0000
  H   H23       1.0  0.025941624104198997  0.8430839083401906  0.5326402795075253  1.0000
  H   H24       1.0  0.9740738774516017  0.15689683160256607  0.032628189355314405  1.0000
  H   H25       1.0  0.9635008365393669  0.7435378804531607  0.759888364308523  1.0000
  H   H26       1.0  0.03647721106839438  0.25644287702809265  0.2599238306450502  1.0000
  H   H27       1.0  0.4635225608088687  0.7564613617566207  0.759878457794855  1.0000
  H   H28       1.0  0.5364826790332059  0.2435650905250739  0.25992612767545614  1.0000
  H   H29       1.0  0.9433314602716365  0.6473000089174334  0.8086339497688116  1.0000
  H   H30       1.0  0.056687129911033196  0.3526753599110321  0.3086481131967318  1.0000
  H   H31       1.0  0.44337424028278594  0.8526907272493245  0.8086326464890305  1.0000
  H   H32       1.0  0.5566916432710869  0.14733033634729512  0.3086527465847553  1.0000
  H   H33       1.0  0.21318048483065158  0.6166585038675053  0.8812427848898139  1.0000
  H   H34       1.0  0.7867787952442027  0.38335943840695563  0.38122600791814415  1.0000
  H   H35       1.0  0.71321830485099  0.8833233725343206  0.8812372725690167  1.0000
  H   H36       1.0  0.286770534687342  0.11665748382382192  0.38123199615300507  1.0000
  H   H37       1.0  0.3608140996884969  0.696082125658357  0.9669036758556118  1.0000
  H   H38       1.0  0.6391928636279117  0.30395668880140647  0.4668977877879783  1.0000
  H   H39       1.0  0.8608112896762419  0.803885431931981  0.9669101021595452  1.0000
  H   H40       1.0  0.13918621698709893  0.19608053554693328  0.4668975442602985  1.0000
  H   H41       1.0  0.3467555691905345  0.8623423930589453  0.9711170041189519  1.0000
  H   H42       1.0  0.653292548353562  0.13771236480602064  0.4711567300445623  1.0000
  H   H43       1.0  0.8467060740217034  0.6376240245815125  0.9711173041099955  1.0000
  H   H44       1.0  0.15332076329364944  0.36232212503226446  0.47115547823444365  1.0000
  H   H45       1.0  0.0631902821766346  0.8718129287641219  0.8103346806312075  1.0000
  H   H46       1.0  0.9367754861531095  0.1281915991498508  0.3103580732141111  1.0000
  H   H47       1.0  0.5631801740711566  0.6281794891278947  0.8103230397265406  1.0000
  H   H48       1.0  0.43679505192920937  0.3718104692556494  0.3103573480104345  1.0000
  H   H49       1.0  0.7993165363344585  0.04147139772701541  0.8055212701398844  1.0000
  H   H50       1.0  0.20076165305543722  0.9585251262453054  0.30554820792642096  1.0000
  H   H51       1.0  0.29926174784554144  0.45842058121186824  0.8053944941985876  1.0000
  H   H52       1.0  0.700760857746303  0.5414977972152926  0.305541808522932  1.0000
  H   H53       1.0  0.8729480338038939  0.028366056994237  0.7265735707839767  1.0000
  H   H54       1.0  0.12705206392340773  0.9716494086010456  0.2266138505175164  1.0000
  H   H55       1.0  0.37304407372089077  0.4715977978335603  0.726476831726771  1.0000
  H   H56       1.0  0.6270576947811006  0.5283766074010642  0.22660500253485338  1.0000
  H   H57       1.0  0.9037627475966657  0.1308142917179111  0.7687448785765909  1.0000
  H   H58       1.0  0.0962172957605532  0.8692023309634254  0.2687837922606349  1.0000
  H   H59       1.0  0.40388408613585364  0.3691259210231764  0.7686271372299629  1.0000
  H   H60       1.0  0.5962070854017865  0.6308185155858154  0.2687783485631314  1.0000
  H   H61       1.0  0.3760404087186515  0.5822477015628635  0.5907201370164472  1.0000
  H   H62       1.0  0.6239515285297157  0.4177436535078556  0.0906968598520095  1.0000
  H   H63       1.0  0.8760201261900062  0.9177537068213937  0.5907162358461733  1.0000
  H   H64       1.0  0.12398008707553737  0.0822614890692179  0.090701236818667  1.0000
  H   H65       1.0  0.5173941316895138  0.6118993943218528  0.6427828126004016  1.0000
  H   H66       1.0  0.4826048086038809  0.3881084653631249  0.142750405684211  1.0000
  H   H67       1.0  0.0173905926183977  0.8880974575549557  0.6427702840951781  1.0000
  H   H68       1.0  0.982618987264132  0.1118958325716051  0.1427467631138697  1.0000
  H   H69       1.0  0.12930523265026744  0.030623520389490004  0.7728932138029166  1.0000
  H   H70       1.0  0.8707183147485437  0.9693971244705822  0.2729736019078928  1.0000
  H   H71       1.0  0.6293065715427204  0.4693849386331764  0.7728843586257312  1.0000
  H   H72       1.0  0.3707193384408213  0.5306257724052516  0.272962005306809  1.0000
  C   C1        1.0  0.8500532169351727  0.8078349929751808  0.38097352747725205  1.0000
  C   C2        1.0  0.14992610088051347  0.1921769857469541  0.8809425918210537  1.0000
  C   C3        1.0  0.3500715505575015  0.6921840712163458  0.3809599459407735  1.0000
  C   C4        1.0  0.64991486001486  0.3078053910149093  0.8809404778365604  1.0000
  C   C5        1.0  0.825187639900143  0.7164471969156524  0.38932869532152387  1.0000
  C   C6        1.0  0.17480538411218297  0.28357547569230235  0.8892965307387543  1.0000
  C   C7        1.0  0.32518938388280816  0.7835695550662508  0.38932036110298907  1.0000
  C   C8        1.0  0.6748060047458039  0.21641338272435456  0.8892972549160518  1.0000
  C   C9        1.0  0.72583620876577  0.6883634249771192  0.43717068467270787  1.0000
  C   C10       1.0  0.2741368572064076  0.31166576925104295  0.9371436766588346  1.0000
  C   C11       1.0  0.22583448624332897  0.811652855049921  0.4371596476526491  1.0000
  C   C12       1.0  0.7741504023975238  0.18833263079751822  0.9371399694092163  1.0000
  C   C13       1.0  0.6519876604469342  0.7519296968041403  0.4768858142833706  1.0000
  C   C14       1.0  0.34798489592309056  0.24809930102549776  0.9768432952969235  1.0000
  C   C15       1.0  0.15198606646340096  0.7480897446443818  0.4768753867770669  1.0000
  C   C16       1.0  0.8479900361068642  0.25190018056920144  0.9768394540594159  1.0000
  C   C17       1.0  0.6832446696734705  0.8435273768378195  0.4655737842305214  1.0000
  C   C18       1.0  0.316743074070942  0.15650016379901646  0.9655456418439669  1.0000
  C   C19       1.0  0.18325612614478354  0.6564916318008186  0.4655543032408715  1.0000
  C   C20       1.0  0.8167316156892993  0.3435021341549458  0.9655422928457186  1.0000
  C   C21       1.0  0.6083176901544219  0.9078207939239675  0.5042577511825713  1.0000
  C   C22       1.0  0.3916701307651066  0.09219669890143221  0.00423799521392  1.0000
  C   C23       1.0  0.10833403270839878  0.5921954141264296  0.5042345952386142  1.0000
  C   C24       1.0  0.8916691559664327  0.40780154883390923  0.0042330895574167  1.0000
  C   C25       1.0  0.5079068314583138  0.8825164741536826  0.5521896267146573  1.0000
  C   C26       1.0  0.492104798607208  0.1174790645324251  0.052170760289186505  1.0000
  C   C27       1.0  0.007904446619591  0.6174926508020278  0.5521680334125277  1.0000
  C   C28       1.0  0.992104815519397  0.3825201061413779  0.0521666699720669  1.0000
  C   C29       1.0  0.47607527182295667  0.7911889971937427  0.5641732293683575  1.0000
  C   C30       1.0  0.5239627068222673  0.2087874768441083  0.0641580742491143  1.0000
  C   C31       1.0  0.9760620006785528  0.7088177620377396  0.564157265678638  1.0000
  C   C32       1.0  0.023970063048920992  0.2912143405855971  0.0641554887187752  1.0000
  C   C33       1.0  0.5481056141341795  0.7273790400152436  0.5265822067326624  1.0000
  C   C34       1.0  0.451886055489062  0.2726075890861565  0.026553598398713504  1.0000
  C   C35       1.0  0.04809951066972219  0.7726293988149353  0.5265742892395693  1.0000
  C   C36       1.0  0.9519134397256862  0.2273916669356737  0.026554381922956304  1.0000
  C   C37       1.0  0.3649265431004948  0.7719568797674723  0.6150091323798961  1.0000
  C   C38       1.0  0.6351004280079309  0.2280327734031715  0.1149941665499554  1.0000
  C   C39       1.0  0.8649207946552051  0.7280363109154566  0.6149961258851633  1.0000
  C   C40       1.0  0.13509908066417609  0.2719692361212509  0.11499480679931652  1.0000
  C   C41       1.0  0.21992945829038743  0.7078472935025103  0.6884684195228559  1.0000
  C   C42       1.0  0.780064411314683  0.2921524931529973  0.1884638160301009  1.0000
  C   C43       1.0  0.7199483899485627  0.7921501372353461  0.6884619411261285  1.0000
  C   C44       1.0  0.2800691261641148  0.2078556095041648  0.1884674410184246  1.0000
  C   C45       1.0  0.027813065437449297  0.6945780522572704  0.7881801749851222  1.0000
  C   C46       1.0  0.9722020976760246  0.3054017123732322  0.288198797959069  1.0000
  C   C47       1.0  0.5278433005554674  0.8054137828516305  0.7881766217974757  1.0000
  C   C48       1.0  0.47220378495291726  0.1946024051429873  0.2881999735525014  1.0000
  C   C49       1.0  0.12447485657445159  0.7378397712803845  0.8391845109000542  1.0000
  C   C50       1.0  0.8755092360380272  0.2621498632685899  0.339193685607178  1.0000
  C   C51       1.0  0.6244961466349324  0.7621404763287034  0.8391721637698383  1.0000
  C   C52       1.0  0.37551632075376756  0.2378630651836247  0.339194618201482  1.0000
  C   C53       1.0  0.21029562558013026  0.6888267937073705  0.8839149899380203  1.0000
  C   C54       1.0  0.7896689881444913  0.31117462382856337  0.383913121236759  1.0000
  C   C55       1.0  0.7103197236309383  0.8111498438379526  0.8839109919251698  1.0000
  C   C56       1.0  0.28966380785998774  0.18884362665772159  0.3839175951012805  1.0000
  C   C57       1.0  0.2921103234106255  0.7329998167858776  0.9318989268240898  1.0000
  C   C58       1.0  0.7078627408211914  0.2670081239107276  0.4319041693340608  1.0000
  C   C59       1.0  0.7921148722064969  0.7669785853626507  0.9318989716821164  1.0000
  C   C60       1.0  0.20786410398262936  0.23301809712319968  0.43190412452395327  1.0000
  C   C61       1.0  0.28603977692992527  0.8250083476687635  0.9340874346312447  1.0000
  C   C62       1.0  0.7139680705962447  0.1750141880669105  0.4341127953292769  1.0000
  C   C63       1.0  0.7860148282220293  0.6749668272937441  0.9340817525869411  1.0000
  C   C64       1.0  0.21398356066012517  0.3250133247055942  0.43411229403744034  1.0000
  C   C65       1.0  0.12624949424738924  0.8300860272087364  0.8441636023895711  1.0000
  C   C66       1.0  0.873735722417038  0.16991426179409064  0.3441912591873333  1.0000
  C   C67       1.0  0.6262401142186815  0.6699041956233316  0.8441517101960798  1.0000
  C   C68       1.0  0.37375219512305335  0.33009675551894446  0.3441907852821445  1.0000
  C   C69       1.0  0.8968716063417259  0.058100400680388  0.7733372062820081  1.0000
  C   C70       1.0  0.10315676556545839  0.9419156133810346  0.2733728888037276  1.0000
  C   C71       1.0  0.3969073303642289  0.441845230552765  0.7732365015388752  1.0000
  C   C72       1.0  0.6031541366285964  0.5581065448662699  0.2733680055378258  1.0000
  S   S1        1.0  0.1427811105078689  0.6243665289402216  0.7352394509126228  1.0000
  S   S2        1.0  0.8572575886031684  0.37563115724344703  0.2352368616649088  1.0000
  S   S3        1.0  0.6427979503345538  0.8756288797120106  0.7352338969112184  1.0000
  S   S4        1.0  0.35725966608493553  0.12437874006842967  0.2352419403203285  1.0000
  Br  Br1       1.0  0.4179430912839733  0.025005250328042905  0.8216098330340316  1.0000
  Br  Br2       1.0  0.5822392114321672  0.9750106664141144  0.3215318468828627  1.0000
  Br  Br3       1.0  0.9178839107439386  0.4749897522281685  0.8216043365850324  1.0000
  Br  Br4       1.0  0.08222390466516319  0.5249996750333067  0.3215378178984665  1.0000
  Br  Br5       1.0  0.0020037691774704  0.9841265478649746  0.9869063049164027  1.0000
  Br  Br6       1.0  0.9978374545626847  0.0158873372208674  0.4869873094868424  1.0000
  Br  Br7       1.0  0.5019980684817682  0.5158791248233213  0.9869164145644049  1.0000
  Br  Br8       1.0  0.4978857171059729  0.48415264058093044  0.48695674866694827  1.0000
  N   N1        1.0  0.7823572848908212  0.8690085213456843  0.41744070353725254  1.0000
  N   N2        1.0  0.21761488167348378  0.1309879913404117  0.91741027809163  1.0000
  N   N3        1.0  0.28238038226876216  0.6310056601146172  0.41742346381225565  1.0000
  N   N4        1.0  0.7175929645981041  0.36899946166646896  0.9174108710554237  1.0000
  N   N5        1.0  0.27681050294603426  0.8336337631139871  0.6429543050402274  1.0000
  N   N6        1.0  0.723210943092674  0.1663694628779737  0.1429432406372015  1.0000
  N   N7        1.0  0.776818996778722  0.666359938763513  0.642938589036433  1.0000
  N   N8        1.0  0.22319417142873013  0.3336326912481057  0.14294468781736921  1.0000
  N   N9        1.0  0.18532290711325314  0.7938321626113308  0.6891421505942148  1.0000
  N   N10       1.0  0.8146734793348995  0.20616564521203173  0.1891399026518528  1.0000
  N   N11       1.0  0.6853475757310504  0.7061629591308219  0.6891328318848551  1.0000
  N   N12       1.0  0.3146618154038591  0.29384345777821597  0.1891406603449326  1.0000
  N   N13       1.0  0.33099906190543044  0.6906062407196601  0.6425950663010909  1.0000
  N   N14       1.0  0.6690033853583727  0.30938969642200925  0.1425804836101818  1.0000
  N   N15       1.0  0.8309972172777333  0.8093909104531818  0.6425872534508699  1.0000
  N   N16       1.0  0.16900759407008079  0.190614298099142  0.14258449153374642  1.0000
  N   N17       1.0  0.39776114486963365  0.606482090564988  0.6354318915985503  1.0000
  N   N18       1.0  0.6022337750848833  0.39351574925490945  0.1354074340946028  1.0000
  N   N19       1.0  0.8977524538811748  0.8935136736339755  0.6354259577871346  1.0000
  N   N20       1.0  0.10224837743632519  0.10648681512491011  0.1354105142541755  1.0000
  N   N21       1.0  0.20477595991357583  0.8725683437730893  0.8907501112953682  1.0000
  N   N22       1.0  0.7952209385902547  0.12746957753559943  0.3907835486212008  1.0000
  N   N23       1.0  0.7047552414642269  0.6274117383830244  0.8907465517445489  1.0000
  N   N24       1.0  0.29524047567583267  0.3725487001187773  0.39078235171955816  1.0000
  O   O1        1.0  0.0384451823766909  0.0218546594650633  0.8010051044342674  1.0000
  O   O2        1.0  0.9616331741296875  0.9781822087076507  0.3010622599483455  1.0000
  O   O3        1.0  0.5383823284303516  0.4781132800287935  0.8009701361849438  1.0000
  O   O4        1.0  0.4616345422359912  0.5218348471845503  0.3010482379918571  1.0000
