data_image0
_chemical_formula_structural       CoH34C36N2O6
_chemical_formula_sum              "Co1 H34 C36 N2 O6"
_cell_length_a       6.089220596847824
_cell_length_b       7.2931019429519655
_cell_length_c       17.374809008179287
_cell_angle_alpha    97.17715972454172
_cell_angle_beta     96.84653237223434
_cell_angle_gamma    95.8038581722603

_space_group_name_H-M_alt    "P 1"
_space_group_IT_number       1

loop_
  _space_group_symop_operation_xyz
  'x, y, z'

loop_
  _atom_site_type_symbol
  _atom_site_label
  _atom_site_symmetry_multiplicity
  _atom_site_fract_x
  _atom_site_fract_y
  _atom_site_fract_z
  _atom_site_occupancy
  Co  Co1       1.0  0.9999956647979219  9.82921690699955e-07  1.883461791907211e-06  1.0000
  H   H1        1.0  0.02884848906617069  0.34457486779294294  0.23002348416662236  1.0000
  H   H2        1.0  0.9711717660881336  0.6554360006344948  0.7699724158927026  1.0000
  H   H3        1.0  0.2089131779943969  0.5428542822933338  0.3529819604661242  1.0000
  H   H4        1.0  0.7911034453630351  0.45715514964786047  0.647010276754365  1.0000
  H   H5        1.0  0.8200742890139807  0.306020296998568  0.3275207509327771  1.0000
  H   H6        1.0  0.1799254157171504  0.6939753961119807  0.6724724663405155  1.0000
  H   H7        1.0  0.6402622080995072  0.11277044859066622  0.2031484595619517  1.0000
  H   H8        1.0  0.35973372057284797  0.88723231816261  0.796848416374388  1.0000
  H   H9        1.0  0.6762689101097266  0.6663455708970716  0.5375646205238098  1.0000
  H   H10       1.0  0.3237645051544575  0.3336848651138453  0.46244080460776626  1.0000
  H   H11       1.0  0.032844823459690455  0.7000326681334951  0.5147540816796479  1.0000
  H   H12       1.0  0.9671408773841534  0.2999452419967313  0.4852475100118312  1.0000
  H   H13       1.0  0.3405906620192525  0.9194901538278443  0.48877124912608844  1.0000
  H   H14       1.0  0.6594232515943403  0.080485086328224  0.5112479782153513  1.0000
  H   H15       1.0  0.3271550859450656  0.042412433856988195  0.3604020704521176  1.0000
  H   H16       1.0  0.672887341200969  0.9575875801142927  0.6396165873644862  1.0000
  H   H17       1.0  0.9948091806772438  0.9465964740730969  0.2598663569393835  1.0000
  H   H18       1.0  0.005246496555209  0.0534170749111098  0.7401402345888924  1.0000
  H   H19       1.0  0.6830880778811378  0.7280246304636153  0.28633025257487793  1.0000
  H   H20       1.0  0.3169607998901398  0.2719888530836201  0.7136703206531436  1.0000
  H   H21       1.0  0.3805952176976319  0.11449690091239971  0.9316093644663113  1.0000
  H   H22       1.0  0.6193833008162528  0.88549916004321  0.0683916977279893  1.0000
  H   H23       1.0  0.5518937351710207  0.4061190218123159  0.8150699107826256  1.0000
  H   H24       1.0  0.44807639573951275  0.593899256588287  0.1849250205915212  1.0000
  H   H25       1.0  0.6457861539330312  0.2506027080489588  0.8810897646531471  1.0000
  H   H26       1.0  0.3541986198828155  0.7494041860463125  0.11889998266054388  1.0000
  H   H27       1.0  0.7060642377301605  0.4969494688567693  0.9077941613263221  1.0000
  H   H28       1.0  0.2939191146300288  0.5030575860891702  0.0922024469650324  1.0000
  H   H29       1.0  0.1508874668613629  0.5588366283527221  0.957070201022475  1.0000
  H   H30       1.0  0.8490973485797825  0.4411566660616089  0.04293441822532879  1.0000
  H   H31       1.0  0.1684359583427479  0.558565133874545  0.8556375525041487  1.0000
  H   H32       1.0  0.8315056447169552  0.44141599147705074  0.1443648199976053  1.0000
  H   H33       1.0  0.389212998083579  0.6776562809028802  0.9256773563010795  1.0000
  H   H34       1.0  0.6107447714598777  0.3223355924232436  0.0743140747503972  1.0000
  C   C1        1.0  0.322843918814641  0.2170522485671711  0.2087367410326664  1.0000
  C   C2        1.0  0.6771624280345562  0.7829742399116242  0.7912674580225882  1.0000
  C   C3        1.0  0.2015446545195658  0.3354253877416723  0.2523132699010233  1.0000
  C   C4        1.0  0.7984476660177153  0.6645969296591188  0.7476850085729723  1.0000
  C   C5        1.0  0.3022918195204625  0.4459429534843764  0.3210918929298217  1.0000
  C   C6        1.0  0.6976912815727729  0.554062685472438  0.6789034847381501  1.0000
  C   C7        1.0  0.5281211409082616  0.43987175750942953  0.3480117668210809  1.0000
  C   C8        1.0  0.47187141377477815  0.5601198788455903  0.6519838559098973  1.0000
  C   C9        1.0  0.6463091307483353  0.3146726235017283  0.3059174447432866  1.0000
  C   C10       1.0  0.3536932199125076  0.6853188543599131  0.694075089809992  1.0000
  C   C11       1.0  0.5457203459110431  0.20468704369996968  0.23709166572329823  1.0000
  C   C12       1.0  0.4542784432149745  0.7953141564620622  0.7628983347197362  1.0000
  C   C13       1.0  0.6466113505956342  0.5671252261753069  0.4171569083678505  1.0000
  C   C14       1.0  0.3534318112432829  0.4328951618882471  0.582838607264776  1.0000
  C   C15       1.0  0.5862191023530983  0.563771431145227  0.49022932649749146  1.0000
  C   C16       1.0  0.41373568261043664  0.43617998561913396  0.5097565415556247  1.0000
  C   C17       1.0  0.8333945933858969  0.6980397494202321  0.4026830932667806  1.0000
  C   C18       1.0  0.16663868955310326  0.30195851622754327  0.597314983890378  1.0000
  C   C19       1.0  0.02117533190119047  0.7559858232848525  0.45928505963415484  1.0000
  C   C20       1.0  0.9788023098300656  0.24398242724019073  0.5407168996948428  1.0000
  C   C21       1.0  0.1960908740788625  0.8792393771261543  0.44428392480380546  1.0000
  C   C22       1.0  0.8039112971427257  0.12074696229802839  0.555728495446793  1.0000
  C   C23       1.0  0.18873185143536378  0.9481743155517605  0.3726139829814555  1.0000
  C   C24       1.0  0.8113086725800898  0.05182429662458081  0.6274033819733802  1.0000
  C   C25       1.0  0.0027938512667446814  0.8930069131067384  0.3159093504884183  1.0000
  C   C26       1.0  0.9972422597513744  0.10699585518445787  0.684105173340015  1.0000
  C   C27       1.0  0.8280892906216836  0.7690823275739332  0.3306307052037525  1.0000
  C   C28       1.0  0.17192949201557892  0.23091755513891596  0.6693715040393114  1.0000
  C   C29       1.0  0.28589590703644063  0.23496569030593414  0.9368079595328993  1.0000
  C   C30       1.0  0.7140936143869538  0.7650274026479736  0.0631893462793514  1.0000
  C   C31       1.0  0.5814020913697746  0.38432489706965356  0.8767446308496716  1.0000
  C   C32       1.0  0.4185693298157319  0.61567951080697  0.1232531190688988  1.0000
  C   C33       1.0  0.2645935900212919  0.5547520653465269  0.9128840595734005  1.0000
  C   C34       1.0  0.7353770373036994  0.44524681300867996  0.08711511413302732  1.0000
  C   C35       1.0  0.2251288806199909  0.11815159114424029  0.1300884617027052  1.0000
  C   C36       1.0  0.7748766822259298  0.8818607721345444  0.8699058010958183  1.0000
  N   N1        1.0  0.3752909669690396  0.3866450619231614  0.9114869514542787  1.0000
  N   N2        1.0  0.6246958958645835  0.6133411241571309  0.08851163915340271  1.0000
  O   O1        1.0  0.3450489901908469  0.03430249536449989  0.08581627329814977  1.0000
  O   O2        1.0  0.6549639739701191  0.9657153406589459  0.9141768146660708  1.0000
  O   O3        1.0  0.1037481555072617  0.2294306424297758  0.9659399340516971  1.0000
  O   O4        1.0  0.8962342093274459  0.7705695036697406  0.0340585982081407  1.0000
  O   O5        1.0  0.017197186763027596  0.12604945001950088  0.1062286335225977  1.0000
  O   O6        1.0  0.982773672628248  0.8739508321034605  0.8937711938725386  1.0000
