data_image0
_chemical_formula_structural       Er2H50C68N8O12
_chemical_formula_sum              "Er2 H50 C68 N8 O12"
_cell_length_a       11.662397489081565
_cell_length_b       12.081560384086137
_cell_length_c       12.778793515272106
_cell_angle_alpha    106.79112504560098
_cell_angle_beta     111.37021416906771
_cell_angle_gamma    104.56487102797364

_space_group_name_H-M_alt    "P 1"
_space_group_IT_number       1

loop_
  _space_group_symop_operation_xyz
  'x, y, z'

loop_
  _atom_site_type_symbol
  _atom_site_label
  _atom_site_symmetry_multiplicity
  _atom_site_fract_x
  _atom_site_fract_y
  _atom_site_fract_z
  _atom_site_occupancy
  Er  Er1       1.0  0.4562608149259901  0.012682638142308598  0.122483796573313  1.0000
  Er  Er2       1.0  0.5437348216467369  0.9873166623364751  0.8775142844939267  1.0000
  H   H1        1.0  0.4429077620583399  0.3385261482302794  0.4284194058259913  1.0000
  H   H2        1.0  0.5570835384282871  0.661475963130492  0.5715780066263534  1.0000
  H   H3        1.0  0.47508065256511134  0.14120422501181198  0.5318866890640095  1.0000
  H   H4        1.0  0.5249144384773102  0.8587959996852489  0.46810598521666674  1.0000
  H   H5        1.0  0.571063231533408  0.4850782952570467  0.6077659037424965  1.0000
  H   H6        1.0  0.42893368749200517  0.5149153486737602  0.3922279324748388  1.0000
  H   H7        1.0  0.6008349652557995  0.6493445523957105  0.7966046343376545  1.0000
  H   H8        1.0  0.39917000416235027  0.3506528875073868  0.20339289511772304  1.0000
  H   H9        1.0  0.5798946668338232  0.5905707312820921  0.962598521019558  1.0000
  H   H10       1.0  0.4201147824732061  0.4094286036540352  0.037399439432348754  1.0000
  H   H11       1.0  0.5156884688556148  0.36588533155246944  0.9310108588689446  1.0000
  H   H12       1.0  0.4843134918514379  0.6341158703766396  0.06898826449144463  1.0000
  H   H13       1.0  0.4141636573115548  0.20221598879004424  0.9779399768457111  1.0000
  H   H14       1.0  0.5858298732258973  0.7977804874611252  0.02205977019158196  1.0000
  H   H15       1.0  0.2419576096794458  0.24652696231344606  0.826081042355277  1.0000
  H   H16       1.0  0.7580376375631416  0.7534714016235424  0.17391900295694981  1.0000
  H   H17       1.0  0.9973080164302387  0.10857847691351448  0.7336567568869867  1.0000
  H   H18       1.0  0.0026877381295235276  0.891418935460585  0.26633928453197325  1.0000
  H   H19       1.0  0.8232353794344713  0.9231218840248158  0.7159408312792476  1.0000
  H   H20       1.0  0.1767578960223517  0.07687835476342289  0.284058289714693  1.0000
  H   H21       1.0  0.7674264511328983  0.7473264274835214  0.7754163963970766  1.0000
  H   H22       1.0  0.23256533722400966  0.25266814285208733  0.22457677857872227  1.0000
  H   H23       1.0  0.8426433216581657  0.6277331476339042  0.8994152807506169  1.0000
  H   H24       1.0  0.15735280596926057  0.3722586140984419  0.10057934706340173  1.0000
  H   H25       1.0  0.03355653247339054  0.60960197440982  0.05817171349195135  1.0000
  H   H26       1.0  0.9664385391221444  0.39039166082498156  0.9418207272054531  1.0000
  H   H27       1.0  0.26883929750722746  0.7654179551950049  0.1426852859736981  1.0000
  H   H28       1.0  0.7311561190135621  0.23458513288674243  0.8573207955067161  1.0000
  H   H29       1.0  0.7556911145353523  0.1612819898305773  0.3117307481815459  1.0000
  H   H30       1.0  0.24430624511136043  0.8387192028914682  0.6882691996072765  1.0000
  H   H31       1.0  0.6759970159573854  0.0493785666662987  0.3367683390604482  1.0000
  H   H32       1.0  0.32399797302014105  0.9506235575290487  0.6632302959851158  1.0000
  H   H33       1.0  0.669219023476856  0.18924792823280967  0.1258028872852606  1.0000
  H   H34       1.0  0.3307785816972098  0.810749495116006  0.8741953338769476  1.0000
  H   H35       1.0  0.6798726143877827  0.35864207241708357  0.08421055840052816  1.0000
  H   H36       1.0  0.3201359513499752  0.6413638624449759  0.9157920353262693  1.0000
  H   H37       1.0  0.816655134540646  0.5735127809578129  0.11592326929250142  1.0000
  H   H38       1.0  0.1833604061110634  0.42649223391673274  0.8840805969724457  1.0000
  H   H39       1.0  0.056012932118321014  0.6862038671761609  0.2880639572274858  1.0000
  H   H40       1.0  0.9440006236695879  0.31379643764479676  0.7119403195825385  1.0000
  H   H41       1.0  0.24255628477121857  0.6876762658044413  0.4629206677883673  1.0000
  H   H42       1.0  0.7574530624709083  0.3123249686299657  0.5370832534284202  1.0000
  H   H43       1.0  0.3322683378900281  0.5800708852567098  0.5896394809041753  1.0000
  H   H44       1.0  0.6677399819800486  0.41993224318861166  0.4103693112058693  1.0000
  H   H45       1.0  0.30203081601816706  0.38920793628828676  0.6310892060868198  1.0000
  H   H46       1.0  0.6979723699989788  0.6107961162831186  0.3689181405583709  1.0000
  H   H47       1.0  0.15406445971995447  0.17059611342672548  0.5806227790873777  1.0000
  H   H48       1.0  0.8459398780251347  0.829404161586517  0.41937922546291145  1.0000
  H   H49       1.0  0.9104856348582898  0.08245349139055237  0.4208537893028961  1.0000
  H   H50       1.0  0.0895200111552299  0.917547721094408  0.5791457724273954  1.0000
  C   C1        1.0  0.42935890021276885  0.15630171517378946  0.3161229071519571  1.0000
  C   C2        1.0  0.5706396560841968  0.8437023076820936  0.6838782059117888  1.0000
  C   C3        1.0  0.4478185791775857  0.2503282837180407  0.4312659314007732  1.0000
  C   C4        1.0  0.5521767959456483  0.7496747747403772  0.5687299551764864  1.0000
  C   C5        1.0  0.47603238488140676  0.23294804940672978  0.5357368754891567  1.0000
  C   C6        1.0  0.5239617872227241  0.7670521743604153  0.4642562773665375  1.0000
  C   C7        1.0  0.5068576995257743  0.3297234610568154  0.6532589390081682  1.0000
  C   C8        1.0  0.4931393696712688  0.6702748933464378  0.3467362280374359  1.0000
  C   C9        1.0  0.5526879242535327  0.45847839233645954  0.676665486403685  1.0000
  C   C10       1.0  0.44731375874156487  0.5415199803887345  0.32333199310676963  1.0000
  C   C11       1.0  0.5751187286380527  0.5516485437805797  0.7848176436370621  1.0000
  C   C12       1.0  0.424888081841118  0.44834890026108815  0.2151797128916044  1.0000
  C   C13       1.0  0.5603849189755435  0.5183482930288149  0.8766915103171796  1.0000
  C   C14       1.0  0.43962453670034307  0.4816510464647477  0.12330801858136188  1.0000
  C   C15       1.0  0.5229957679529491  0.3929341321222493  0.8587137376186575  1.0000
  C   C16       1.0  0.47701040766873587  0.6070661447508455  0.14128730978160317  1.0000
  C   C17       1.0  0.4926087712096106  0.29781484607399716  0.7471490316030867  1.0000
  C   C18       1.0  0.5073911950803591  0.7021816389653706  0.2528481496324274  1.0000
  C   C19       1.0  0.442750686516021  0.16402015959483404  0.7333163378831031  1.0000
  C   C20       1.0  0.557247843965193  0.8359772692413472  0.2666829731507362  1.0000
  C   C21       1.0  0.3066679740783584  0.14647131065447638  0.9365168593420137  1.0000
  C   C22       1.0  0.6933264722129662  0.853525164247905  0.06348162489693697  1.0000
  C   C23       1.0  0.209882951447554  0.17010850481496928  0.8515801391157396  1.0000
  C   C24       1.0  0.7901128190343414  0.829888918952719  0.14841982341982168  1.0000
  C   C25       1.0  0.0755715368048726  0.0939972234126145  0.8003794094348108  1.0000
  C   C26       1.0  0.9244234295413348  0.9059983090417418  0.19961820780415693  1.0000
  C   C27       1.0  0.03866360677306348  0.9937000842414039  0.8333156034310178  1.0000
  C   C28       1.0  0.9613297866707881  0.006298266442143999  0.16668147791464338  1.0000
  C   C29       1.0  0.9022593617949112  0.9086372038692687  0.7818135305986614  1.0000
  C   C30       1.0  0.09773178852008609  0.09136019701904978  0.2181825510254072  1.0000
  C   C31       1.0  0.8715402307857189  0.8111337504962534  0.8142265268411749  1.0000
  C   C32       1.0  0.1284527637747246  0.18886365680935305  0.18577016607951435  1.0000
  C   C33       1.0  0.9741948406135776  0.792250896789696  0.9018900502763855  1.0000
  C   C34       1.0  0.025797356180028368  0.20774462376001415  0.09810586579434497  1.0000
  C   C35       1.0  0.9464033884805474  0.6938139828209983  0.9393208290838828  1.0000
  C   C36       1.0  0.05359209155169245  0.30618060262789726  0.060674352708453144  1.0000
  C   C37       1.0  0.05126002986678897  0.6837098519818098  0.02638886673166486  1.0000
  C   C38       1.0  0.9487348057546753  0.31628755946236  0.9736076532623059  1.0000
  C   C39       1.0  0.18330697968334406  0.7709195209882364  0.07472938536976392  1.0000
  C   C40       1.0  0.8166862989579045  0.22908072007871988  0.9252705198475013  1.0000
  C   C41       1.0  0.1109237710958267  0.875430423005575  0.9554138767210957  1.0000
  C   C42       1.0  0.889068438435494  0.12456510665900566  0.04458517624291846  1.0000
  C   C43       1.0  0.14367268377507958  0.9769778082999635  0.9193978791713846  1.0000
  C   C44       1.0  0.8563195162029515  0.023017714528464198  0.08059882112266346  1.0000
  C   C45       1.0  0.7833371584106458  0.41105484619803423  0.15876325993038867  1.0000
  C   C46       1.0  0.21666823889109557  0.5889501333814307  0.8412372442031993  1.0000
  C   C47       1.0  0.8605766236329371  0.5314188753681532  0.17640200618518506  1.0000
  C   C48       1.0  0.13943127506273362  0.46858329374819624  0.8236009079366511  1.0000
  C   C49       1.0  0.9917175739010844  0.592633779371809  0.2702826419219305  1.0000
  C   C50       1.0  0.008293094347187854  0.4073684016491867  0.7297219733681359  1.0000
  C   C51       1.0  0.0446294634634086  0.5333271364363128  0.34505503610382954  1.0000
  C   C52       1.0  0.9553773983069291  0.46667691985479803  0.654950396241311  1.0000
  C   C53       1.0  0.1799778356023011  0.592794924811649  0.4433459663714031  1.0000
  C   C54       1.0  0.8200316745491704  0.40721102921008157  0.5566624225669301  1.0000
  C   C55       1.0  0.2297546660818455  0.5331928793593333  0.5133630591535904  1.0000
  C   C56       1.0  0.7702486538444758  0.466809296500976  0.4866461689599149  1.0000
  C   C57       1.0  0.14766126741471192  0.40955323159872836  0.4898453328409145  1.0000
  C   C58       1.0  0.8523427259225543  0.5904527145647334  0.5101651433241868  1.0000
  C   C59       1.0  0.19793408491915435  0.3442906487645202  0.558500059273058  1.0000
  C   C60       1.0  0.8020705432755975  0.6557124645675073  0.44150672602044944  1.0000
  C   C61       1.0  0.11563324102954903  0.224762647934213  0.5323321884860235  1.0000
  C   C62       1.0  0.8843717764953424  0.7752414019396098  0.4676726325625038  1.0000
  C   C63       1.0  0.9809141192039307  0.17446366622861828  0.44094934835651856  1.0000
  C   C64       1.0  0.019091016307996214  0.8255384955405204  0.5590534330437221  1.0000
  C   C65       1.0  0.010970211003296959  0.34806924912923165  0.3949844393049133  1.0000
  C   C66       1.0  0.9890341684796765  0.651937631297308  0.6050232883918907  1.0000
  C   C67       1.0  0.9579943352642672  0.410966968414108  0.3196917368789939  1.0000
  C   C68       1.0  0.04201001840295492  0.5890333179927224  0.6803141887878893  1.0000
  N   N1        1.0  0.27505850025783474  0.0530866012504632  0.9696501902731783  1.0000
  N   N2        1.0  0.7249356683215352  0.9469070444479964  0.03034665011583803  1.0000
  N   N3        1.0  0.21294287979559795  0.8634575076255114  0.0398761298524021  1.0000
  N   N4        1.0  0.787050800913498  0.13654367909811066  0.9601249480131528  1.0000
  N   N5        1.0  0.829275455816969  0.3521123102241574  0.22713933963007796  1.0000
  N   N6        1.0  0.17073232170723426  0.6478917447181587  0.7728648299167277  1.0000
  N   N7        1.0  0.9299099528419746  0.23333154780875986  0.37460434221826944  1.0000
  N   N8        1.0  0.07009519859208511  0.7666706253539671  0.6254023602985723  1.0000
  O   O1        1.0  0.4370254344017682  0.19563592656700018  0.2341688884062663  1.0000
  O   O2        1.0  0.5629594970282241  0.8043576756514382  0.7658209743830965  1.0000
  O   O3        1.0  0.4102737094943408  0.043018546754979084  0.2998339700271799  1.0000
  O   O4        1.0  0.589738040601567  0.9569883547832702  0.7001746344094286  1.0000
  O   O5        1.0  0.3383017514118833  0.08085718990724187  0.6363462882119251  1.0000
  O   O6        1.0  0.6616966387913052  0.9191421110826  0.36364957290695804  1.0000
  O   O7        1.0  0.5115077703398186  0.14849818419357766  0.8279401058076346  1.0000
  O   O8        1.0  0.48848667595151324  0.8514982907088039  0.17205837843132324  1.0000
  O   O9        1.0  0.6654677673992282  0.1113522597158365  0.2997825386934139  1.0000
  O   O10       1.0  0.3345310216873755  0.8886479846519533  0.7002137108504412  1.0000
  O   O11       1.0  0.58177829314468  0.12107483246730058  0.06231388959557906  1.0000
  O   O12       1.0  0.41821773912703  0.8789254091107136  0.9376837956733224  1.0000
