data_image0
_chemical_formula_structural       La2H40C52O19
_chemical_formula_sum              "La2 H40 C52 O19"
_cell_length_a       7.397521202981475
_cell_length_b       14.46486926198821
_cell_length_c       16.9754
_cell_angle_alpha    104.03828450607527
_cell_angle_beta     102.57070640223583
_cell_angle_gamma    90.00362608288901

_space_group_name_H-M_alt    "P 1"
_space_group_IT_number       1

loop_
  _space_group_symop_operation_xyz
  'x, y, z'

loop_
  _atom_site_type_symbol
  _atom_site_label
  _atom_site_symmetry_multiplicity
  _atom_site_fract_x
  _atom_site_fract_y
  _atom_site_fract_z
  _atom_site_occupancy
  La  La1       1.0  0.0054010569777461  0.0359182636113715  0.4995531131364856  1.0000
  La  La2       1.0  0.5058403639608855  0.9642189170340316  0.5004810736580438  1.0000
  H   H1        1.0  0.1884846634756698  0.466731160118556  0.8946956582412042  1.0000
  H   H2        1.0  0.2934645109781116  0.5331819105462401  0.10522968387093098  1.0000
  H   H3        1.0  0.2876060961249891  0.5730249537224239  0.9721610614186175  1.0000
  H   H4        1.0  0.31533048964364246  0.4268395835707821  0.027869304939834205  1.0000
  H   H5        1.0  0.783428030881318  0.5048284293693825  0.8947309517266078  1.0000
  H   H6        1.0  0.8885071467060683  0.49497472748327453  0.10538909124703372  1.0000
  H   H7        1.0  0.7385738935950741  0.5798453198837805  0.8230530411959691  1.0000
  H   H8        1.0  0.9155674859769718  0.4200413429170666  0.17714914936363613  1.0000
  H   H9        1.0  0.2522466985312377  0.6640293078214086  0.8729263773015035  1.0000
  H   H10       1.0  0.3792474593688696  0.335938719749457  0.1268979032999979  1.0000
  H   H11       1.0  0.15400430009970736  0.5607824107373105  0.7915680499915042  1.0000
  H   H12       1.0  0.36230903050247326  0.4390485814314076  0.2083766884824527  1.0000
  H   H13       1.0  0.8943712804366372  0.7261991293839003  0.9273525863501321  1.0000
  H   H14       1.0  0.9666251477797092  0.2737546236659156  0.07271339669161148  1.0000
  H   H15       1.0  0.8833539460035951  0.6494300414096728  0.9952201212962493  1.0000
  H   H16       1.0  0.88796409558703  0.3505429822435673  0.004832483691991732  1.0000
  H   H17       1.0  0.33859936895544973  0.6482159933937197  0.752067093485685  1.0000
  H   H18       1.0  0.5866512091103929  0.3516842302021246  0.2477229113238195  1.0000
  H   H19       1.0  0.45770225553604865  0.7262847765102478  0.6574361871600942  1.0000
  H   H20       1.0  0.8006340008968494  0.273706804020371  0.3423030274971524  1.0000
  H   H21       1.0  0.9650839471341472  0.8830746883556344  0.62535297888153  1.0000
  H   H22       1.0  0.34039860387881055  0.1169490098473673  0.3747726506539877  1.0000
  H   H23       1.0  0.8400558562603708  0.8042258026633036  0.7192977790411348  1.0000
  H   H24       1.0  0.12128705481094931  0.1955894875322528  0.28078804542479224  1.0000
  H   H25       1.0  0.41215239101752144  0.7846383048679613  0.1395474276575186  1.0000
  H   H26       1.0  0.2724439007084101  0.2152626324539355  0.8605001478104768  1.0000
  H   H27       1.0  0.393202066540141  0.8830168765453479  0.2797240872261284  1.0000
  H   H28       1.0  0.11330764988750992  0.117026092261078  0.7203172427188634  1.0000
  H   H29       1.0  0.8032324227669893  0.8909656435963171  0.1959458292157309  1.0000
  H   H30       1.0  0.6069784422411146  0.1092600390796505  0.8040963990530513  1.0000
  H   H31       1.0  0.8184694950664169  0.7925099895052199  0.056052585496615855  1.0000
  H   H32       1.0  0.7621582594032434  0.2075907911114925  0.9440490059745131  1.0000
  H   H33       1.0  0.523643017642975  0.4511783557001721  0.8098472007292443  1.0000
  H   H34       1.0  0.71370702125364  0.5489224249165403  0.19014030012554173  1.0000
  H   H35       1.0  0.27963627401736363  0.328009223301919  0.7241392415617511  1.0000
  H   H36       1.0  0.555674836876456  0.6722357299774657  0.2759066929133951  1.0000
  H   H37       1.0  0.6565293619524156  0.2024326929272959  0.5737234796908126  1.0000
  H   H38       1.0  0.0829934892073894  0.7976088484270178  0.4262826618474094  1.0000
  H   H39       1.0  0.9061206660639416  0.322003932292958  0.6605799953555619  1.0000
  H   H40       1.0  0.2455549725915276  0.6779112795500026  0.33935688536868014  1.0000
  C   C1        1.0  0.022324665121836108  0.5909580345271763  0.8961364666371239  1.0000
  C   C2        1.0  0.1259961079311225  0.4089293419997162  0.1038989628924369  1.0000
  C   C3        1.0  0.1574268135110373  0.5298017039597838  0.9404568485729712  1.0000
  C   C4        1.0  0.21672559188365173  0.4700564097989428  0.05950745307360711  1.0000
  C   C5        1.0  0.8399522837218427  0.5336351265898216  0.8500616663723761  1.0000
  C   C6        1.0  0.9898119811150894  0.4662265557991674  0.15005688037306444  1.0000
  C   C7        1.0  0.12175644115094293  0.6235439111976362  0.8368821049090087  1.0000
  C   C8        1.0  0.2848094576311269  0.37629064960134434  0.1630394284127092  1.0000
  C   C9        1.0  0.9711254743734374  0.6758000778855688  0.9596899057067957  1.0000
  C   C10       1.0  0.0111475612371024  0.3241294084784485  0.04037876286889032  1.0000
  C   C11       1.0  0.08166478681283003  0.7224913225391703  0.7422806609197253  1.0000
  C   C12       1.0  0.3396835654796675  0.2773203990261237  0.257619666833385  1.0000
  C   C13       1.0  0.2559578302848281  0.6997413046034993  0.7250977165274506  1.0000
  C   C14       1.0  0.5311386849719214  0.30013536603259894  0.2747367908687508  1.0000
  C   C15       1.0  0.32335316116159163  0.7433449703523252  0.6720151710535519  1.0000
  C   C16       1.0  0.6517436974403952  0.2565802336553773  0.3278073253189859  1.0000
  C   C17       1.0  0.2206025342427154  0.8102510780017482  0.6366413448835431  1.0000
  C   C18       1.0  0.5845551401184608  0.1897340789943911  0.36329328521684096  1.0000
  C   C19       1.0  0.04589613877574551  0.8319868912162676  0.6538423097616786  1.0000
  C   C20       1.0  0.39268117464867913  0.1679861324369725  0.3462126581112059  1.0000
  C   C21       1.0  0.9758027139801726  0.7881512645002573  0.7058857104218035  1.0000
  C   C22       1.0  0.27042026647232126  0.2116997119979445  0.2941347313442861  1.0000
  C   C23       1.0  0.11695495979468974  0.7806921135215674  0.08980884636348216  1.0000
  C   C24       1.0  0.0269245768141175  0.2193273023251123  0.910260913868477  1.0000
  C   C25       1.0  0.27939695316243984  0.8087151395359414  0.1523559343928511  1.0000
  C   C26       1.0  0.12681557436614813  0.1912835782552023  0.8476985588342103  1.0000
  C   C27       1.0  0.2685056062618685  0.8641466734331544  0.23016439836825237  1.0000
  C   C28       1.0  0.038082554929658806  0.1359455424709211  0.7698647665510662  1.0000
  C   C29       1.0  0.09627021281254863  0.8929305314198999  0.24655290411958938  1.0000
  C   C30       1.0  0.8494367005144882  0.107248759062621  0.7534830122660949  1.0000
  C   C31       1.0  0.9358636035244743  0.8672371072421399  0.18284996742007564  1.0000
  C   C32       1.0  0.7526690808538349  0.1329964264204051  0.817203068801078  1.0000
  C   C33       1.0  0.9447024173225245  0.8114230161805837  0.10473300222018618  1.0000
  C   C34       1.0  0.8396810958006001  0.1886970350395529  0.8953409075613267  1.0000
  C   C35       1.0  0.07752792858349983  0.9461852008558226  0.3302906367192194  1.0000
  C   C36       1.0  0.7471468905158788  0.053962685680375  0.6697461486252934  1.0000
  C   C37       1.0  0.7314023413605426  0.3940924048123691  0.7406375341889913  1.0000
  C   C38       1.0  0.9906889395694308  0.6059105953350894  0.25936374457960915  1.0000
  C   C39       1.0  0.5544926502843452  0.3966054342445773  0.7586081284526999  1.0000
  C   C40       1.0  0.7958295508543003  0.6034575188913323  0.24136556521099808  1.0000
  C   C41       1.0  0.41693103436411866  0.3277208779765601  0.7104097670223908  1.0000
  C   C42       1.0  0.7066750934368359  0.6724277222856969  0.2895958132471108  1.0000
  C   C43       1.0  0.4523559086557257  0.2569663594499829  0.643816072950024  1.0000
  C   C44       1.0  0.8087661286925396  0.7431322799885649  0.3562047744104646  1.0000
  C   C45       1.0  0.629020751875224  0.2566773003985645  0.625889020238958  1.0000
  C   C46       1.0  0.0032999200058014986  0.7433642409557493  0.3741325253368757  1.0000
  C   C47       1.0  0.7683276227586618  0.3237632670133195  0.673882916095927  1.0000
  C   C48       1.0  0.0944848194125356  0.6762197488046624  0.32610404135210297  1.0000
  C   C49       1.0  0.3057234503177426  0.1830735874688827  0.594846780223456  1.0000
  C   C50       1.0  0.7111465657341469  0.8170942833967985  0.40516996250027404  1.0000
  C   C51       1.0  0.30003505958373483  0.8568174205960943  0.5827149607171762  1.0000
  C   C52       1.0  0.7180279948359856  0.1432533835263925  0.41720282955950694  1.0000
  O   O1        1.0  0.2204159234263869  0.9606210240014477  0.39298991386614546  1.0000
  O   O2        1.0  0.8274300123594786  0.0396132233871498  0.6070813192646939  1.0000
  O   O3        1.0  0.9217031277986081  0.9757434516099437  0.3414672865620787  1.0000
  O   O4        1.0  0.5802278586354817  0.024248128920668  0.6585549456355081  1.0000
  O   O5        1.0  0.4466743896500063  0.8277930369295277  0.5596983741987671  1.0000
  O   O6        1.0  0.8877097194528789  0.1721728494631876  0.439971859340801  1.0000
  O   O7        1.0  0.219375541387997  0.9289344421576189  0.5595029143544537  1.0000
  O   O8        1.0  0.660542744548849  0.0713133660259828  0.44067078252710706  1.0000
  O   O9        1.0  0.3408569663921527  0.1161696209976171  0.534417389450816  1.0000
  O   O10       1.0  0.8066527951310718  0.8839518576746245  0.4656376952088123  1.0000
  O   O11       1.0  0.14639832542044934  0.184468208176213  0.6116207859988874  1.0000
  O   O12       1.0  0.5350636967066364  0.8157646117602724  0.3883347875123206  1.0000
  O   O13       1.0  0.005673583081048195  0.6833762799369296  0.7942633703090607  1.0000
  O   O14       1.0  0.21161817026883512  0.3163241003641133  0.2056176644613856  1.0000
  O   O15       1.0  0.8762639797988642  0.4574462978965954  0.7852163961277512  1.0000
  O   O16       1.0  0.0909595197536106  0.5424953218103212  0.21480823215303252  1.0000
  O   O17       1.0  0.1373061841461265  0.7223271655470072  0.01594951246231351  1.0000
  O   O18       1.0  0.12114783538547161  0.2775766266791067  0.9841516126667855  1.0000
  O   O19       1.0  0.0778426068054969  0.499875170562369  0.9999324776888868  1.0000
