data_image0
_chemical_formula_structural       Ag6H20C20S4N6O24
_chemical_formula_sum              "Ag6 H20 C20 S4 N6 O24"
_cell_length_a       5.2200882220087435
_cell_length_b       11.925620919064942
_cell_length_c       14.228856776159539
_cell_angle_alpha    99.44735070282088
_cell_angle_beta     90.00011245804154
_cell_angle_gamma    90.00016277508733

_space_group_name_H-M_alt    "P 1"
_space_group_IT_number       1

loop_
  _space_group_symop_operation_xyz
  'x, y, z'

loop_
  _atom_site_type_symbol
  _atom_site_label
  _atom_site_symmetry_multiplicity
  _atom_site_fract_x
  _atom_site_fract_y
  _atom_site_fract_z
  _atom_site_occupancy
  Ag  Ag1       1.0  0.9154490131002647  0.994953968089931  0.4943123659066444  1.0000
  Ag  Ag2       1.0  0.08455259799807639  0.4949471679890325  0.9943083194523296  1.0000
  Ag  Ag3       1.0  0.24126591621573112  0.7631164411010475  0.41672776979872594  1.0000
  Ag  Ag4       1.0  0.7587164448340218  0.2631130994092103  0.9167253958402101  1.0000
  Ag  Ag5       1.0  0.8071616741350026  0.5821207607375956  0.34654486316755145  1.0000
  Ag  Ag6       1.0  0.19281523903048742  0.08211416007194572  0.8465451436722518  1.0000
  H   H1        1.0  0.3352459295563435  0.4820264939639999  0.3470170028682489  1.0000
  H   H2        1.0  0.6647395284815831  0.9820236474054841  0.8470189890084329  1.0000
  H   H3        1.0  0.288173917476108  0.5439645921299104  0.2562472759739123  1.0000
  H   H4        1.0  0.7118176024018864  0.043962952089103204  0.7562500042974492  1.0000
  H   H5        1.0  0.22004142823499248  0.8065027280567848  0.8383650411248241  1.0000
  H   H6        1.0  0.779965747618597  0.3064934542816716  0.338364653152162  1.0000
  H   H7        1.0  0.28620720704758185  0.7617576813043884  0.992904072643455  1.0000
  H   H8        1.0  0.7137908512503232  0.26175601521818254  0.4929081261076931  1.0000
  H   H9        1.0  0.48393432278501786  0.5825652978338881  0.706443761761399  1.0000
  H   H10       1.0  0.5160955312112705  0.08258282659220133  0.20644310242768432  1.0000
  H   H11       1.0  0.6425316036761259  0.5658754853607706  0.8673719310960237  1.0000
  H   H12       1.0  0.3575200116901058  0.06590136689469973  0.36737714280307177  1.0000
  H   H13       1.0  0.0825932509168865  0.8284915387967616  0.6843092071490631  1.0000
  H   H14       1.0  0.9173998977527302  0.32848157998903826  0.18430743234271327  1.0000
  H   H15       1.0  0.013819636161251501  0.9771228315219961  0.1448413018888887  1.0000
  H   H16       1.0  0.9861666912193171  0.47711051643857877  0.6448435732132225  1.0000
  H   H17       1.0  0.8825028766688375  0.0012280107573445955  0.9835419118107821  1.0000
  H   H18       1.0  0.11750289193369669  0.5012176238660473  0.48354523456757903  1.0000
  H   H19       1.0  0.39069366944511325  0.7383728714494354  0.14930481048770622  1.0000
  H   H20       1.0  0.6092929270362006  0.23836681710189112  0.6493047825899154  1.0000
  C   C1        1.0  0.7717114452180099  0.7073414535382694  0.6827799690518646  1.0000
  C   C2        1.0  0.2282751019548925  0.20734842581293125  0.18277983611339724  1.0000
  C   C3        1.0  0.6480352478098723  0.6327479255271983  0.7363220263911856  1.0000
  C   C4        1.0  0.3519970222197983  0.1327685987745824  0.236318832529264  1.0000
  C   C5        1.0  0.7354305111562524  0.6228418903386627  0.8255366163309219  1.0000
  C   C6        1.0  0.2645829794111094  0.12285062938375554  0.3255381446168286  1.0000
  C   C7        1.0  0.9507681952177407  0.6876634699126712  0.8657702491537478  1.0000
  C   C8        1.0  0.04923445580404719  0.1876727350664424  0.3657688661662348  1.0000
  C   C9        1.0  0.9774975571565107  0.7704005521979057  0.7217136168024753  1.0000
  C   C10       1.0  0.022487709961716  0.27039273562355964  0.22170650120605728  1.0000
  C   C11       1.0  0.7134817490696008  0.8544065236001545  0.1596848961319353  1.0000
  C   C12       1.0  0.2865114574715761  0.35438901609413165  0.6596852520394876  1.0000
  C   C13       1.0  0.8512822414281516  0.9293002638359841  0.11075342883864188  1.0000
  C   C14       1.0  0.14871507508131288  0.4292843459158249  0.6107595047031537  1.0000
  C   C15       1.0  0.7791204462159699  0.9425291052163517  0.020540976755697223  1.0000
  C   C16       1.0  0.22088608957891856  0.4425166285753405  0.5205433344900285  1.0000
  C   C17       1.0  0.5680208193353451  0.8802300825166256  0.9742874386388466  1.0000
  C   C18       1.0  0.4320009620392966  0.380225499703073  0.4742916003639833  1.0000
  C   C19       1.0  0.5084542463565498  0.7955965045112593  0.11535962494956216  1.0000
  C   C20       1.0  0.49154982126857055  0.29558094298852217  0.6153582822805035  1.0000
  S   S1        1.0  0.6826360385780105  0.7114510284427523  0.5636792808954497  1.0000
  S   S2        1.0  0.31735377245381347  0.21145122774291283  0.06367131754680601  1.0000
  S   S3        1.0  0.79182742155929  0.8420721528848462  0.27811189158452987  1.0000
  S   S4        1.0  0.2081605445290862  0.34205533587035575  0.7781080583170449  1.0000
  N   N1        1.0  0.06047492514436209  0.7597496233348908  0.8100145827460637  1.0000
  N   N2        1.0  0.939535613374538  0.25975078085970443  0.3100170666583679  1.0000
  N   N3        1.0  0.44293793496560596  0.8088952680071558  0.025954595130052462  1.0000
  N   N4        1.0  0.5570715251393918  0.308885725609045  0.5259526721555687  1.0000
  N   N5        1.0  0.4208814355386182  0.010979293876410202  0.6141749989410741  1.0000
  N   N6        1.0  0.5791206366514956  0.5109804719616378  0.11417243763214913  1.0000
  O   O1        1.0  0.847223508188499  0.79648731675114  0.5300103494130326  1.0000
  O   O2        1.0  0.15274182494007957  0.29648478315654364  0.030004717710973208  1.0000
  O   O3        1.0  0.730743886710087  0.594887871707357  0.5130183387398191  1.0000
  O   O4        1.0  0.2692582656562195  0.09488468933519566  0.013016228434182207  1.0000
  O   O5        1.0  0.4077844714469023  0.7412504972040002  0.5658170033200847  1.0000
  O   O6        1.0  0.5922151369997125  0.2412528456554526  0.0658158559347015  1.0000
  O   O7        1.0  0.0436342935453666  0.6839321638189731  0.9478353711102088  1.0000
  O   O8        1.0  0.9563917302979874  0.18393925721227342  0.4478358204484181  1.0000
  O   O9        1.0  0.7395970373663658  0.9545454513174864  0.3343360502642981  1.0000
  O   O10       1.0  0.26039965909983914  0.4545304223345142  0.8343338933632083  1.0000
  O   O11       1.0  0.0661901470868074  0.8109039675025334  0.27648506653515176  1.0000
  O   O12       1.0  0.9337899303066947  0.31089490924815516  0.776482093390875  1.0000
  O   O13       1.0  0.624443024327398  0.7515581958368359  0.3034383649041175  1.0000
  O   O14       1.0  0.3755520985626005  0.2515518022125819  0.803436002914232  1.0000
  O   O15       1.0  0.4922977669945752  0.8853323841699563  0.8895764215145192  1.0000
  O   O16       1.0  0.5077083006060974  0.38533292905084  0.3895756791571118  1.0000
  O   O17       1.0  0.3697249576354054  0.0013215844223495006  0.5260328914002415  1.0000
  O   O18       1.0  0.630270858783426  0.5013160489887484  0.02603091186992402  1.0000
  O   O19       1.0  0.6516899468621488  0.0354895922813796  0.640528382129837  1.0000
  O   O20       1.0  0.34830859722692514  0.5354921441957644  0.14052441224653486  1.0000
  O   O21       1.0  0.250631204414276  0.9972324775392784  0.6738401900756302  1.0000
  O   O22       1.0  0.749368818476313  0.49723503560069565  0.17383919197324363  1.0000
  O   O23       1.0  0.2471537265084081  0.5484528512821782  0.32531555061893874  1.0000
  O   O24       1.0  0.7528362547980761  0.04845208845403452  0.8253163152103369  1.0000
