data_image0
_chemical_formula_structural       K4H12C8N24O8
_chemical_formula_sum              "K4 H12 C8 N24 O8"
_cell_length_a       3.6895373027530587
_cell_length_b       8.722908450023432
_cell_length_c       19.887161438027206
_cell_angle_alpha    90.00014621075982
_cell_angle_beta     95.56579559814514
_cell_angle_gamma    89.99976548606887

_space_group_name_H-M_alt    "P 1"
_space_group_IT_number       1

loop_
  _space_group_symop_operation_xyz
  'x, y, z'

loop_
  _atom_site_type_symbol
  _atom_site_label
  _atom_site_symmetry_multiplicity
  _atom_site_fract_x
  _atom_site_fract_y
  _atom_site_fract_z
  _atom_site_occupancy
  K   K1        1.0  0.10494939073732472  0.16247404273028107  0.2747707118637023  1.0000
  K   K2        1.0  0.895046710795974  0.662478463678873  0.2252283338729696  1.0000
  K   K3        1.0  0.8950478442693423  0.8375236025514993  0.7252288069770143  1.0000
  K   K4        1.0  0.10494235471369245  0.33752491364266746  0.7747710469930379  1.0000
  H   H1        1.0  0.048190182834474606  0.8563947323799751  0.5192430327573871  1.0000
  H   H2        1.0  0.9518134582524452  0.3563946361677566  0.9807570691154052  1.0000
  H   H3        1.0  0.9518043615767553  0.14360520572017776  0.48075744633398165  1.0000
  H   H4        1.0  0.048194653085168696  0.6436053019169491  0.01924213057528589  1.0000
  H   H5        1.0  0.6678847582852897  0.749588147472771  0.5430437105540162  1.0000
  H   H6        1.0  0.3321144358008751  0.24958898260665305  0.9569567009128686  1.0000
  H   H7        1.0  0.33211252556880316  0.25041179062661456  0.45695731765086106  1.0000
  H   H8        1.0  0.6678882455089834  0.7504109554839431  0.04304290991389339  1.0000
  H   H9        1.0  0.0189559165751731  0.653149429920468  0.5040540008141291  1.0000
  H   H10       1.0  0.9810469045597328  0.1531505182351083  0.9959468680808211  1.0000
  H   H11       1.0  0.9810413835701866  0.3468493617737494  0.49594753051122337  1.0000
  H   H12       1.0  0.018958499907000704  0.8468494198532638  0.004052788738420098  1.0000
  C   C1        1.0  0.5736249432593185  0.6863336470935193  0.3887388738846693  1.0000
  C   C2        1.0  0.42637914072717825  0.1863357420910816  0.11126133875401925  1.0000
  C   C3        1.0  0.426364187415416  0.3136651446073556  0.6112625194632526  1.0000
  C   C4        1.0  0.5736317100427542  0.813666488806106  0.8887384100512672  1.0000
  C   C5        1.0  0.8656678272112616  0.7601187584909254  0.5055284215251132  1.0000
  C   C6        1.0  0.1343366999621338  0.2601235932405217  0.9944715888191945  1.0000
  C   C7        1.0  0.13432402662034804  0.23988003320772575  0.4944730178152879  1.0000
  C   C8        1.0  0.8656714113649289  0.7398786376574193  0.005527610872590601  1.0000
  N   N1        1.0  0.5602794284580668  0.4370405526090834  0.35175580130038486  1.0000
  N   N2        1.0  0.43971685289796625  0.9370407251783422  0.14824304833971513  1.0000
  N   N3        1.0  0.4397123927962808  0.5629593854932863  0.648244631798512  1.0000
  N   N4        1.0  0.5602830889743019  0.06295806650638978  0.8517560133729983  1.0000
  N   N5        1.0  0.4120074302831681  0.9152000202906406  0.35742761363914594  1.0000
  N   N6        1.0  0.5880000261440727  0.41520087242797377  0.14257391481222464  1.0000
  N   N7        1.0  0.5879980067555477  0.0847999178006447  0.6425730494221396  1.0000
  N   N8        1.0  0.4120054108893711  0.5848002120699289  0.857426748249608  1.0000
  N   N9        1.0  0.572884142960973  0.9299428482255503  0.4183541810572817  1.0000
  N   N10       1.0  0.4271204057557937  0.4299447691855249  0.08164580605524917  1.0000
  N   N11       1.0  0.42711855464015247  0.07005594345987727  0.5816459328899553  1.0000
  N   N12       1.0  0.5728849824144004  0.5700574617146401  0.918353347644057  1.0000
  N   N13       1.0  0.4049133600867947  0.7666359857448766  0.3367634422624091  1.0000
  N   N14       1.0  0.5950927242627628  0.26663579976555246  0.16323739583318533  1.0000
  N   N15       1.0  0.5950866306381785  0.23336395235083526  0.663237128813918  1.0000
  N   N16       1.0  0.4049126964899656  0.7333641383242764  0.836762764107078  1.0000
  N   N17       1.0  0.6638993121071408  0.5360763776798193  0.399543995507983  1.0000
  N   N18       1.0  0.3361061548341482  0.036076272731243406  0.10045607427809237  1.0000
  N   N19       1.0  0.3360898185623213  0.4639235604276662  0.600457397840479  1.0000
  N   N20       1.0  0.6639046633743461  0.9639236653497885  0.8995426682840486  1.0000
  N   N21       1.0  0.677937829283188  0.7884441413891069  0.4390183076257939  1.0000
  N   N22       1.0  0.3220707937909211  0.2884438304170017  0.06098310031654107  1.0000
  N   N23       1.0  0.32205673140875746  0.21155694311911327  0.5609826745871515  1.0000
  N   N24       1.0  0.6779400569842906  0.711557254073561  0.9390166484881984  1.0000
  O   O1        1.0  0.6553960583465113  0.29823817401160824  0.3625753307687843  1.0000
  O   O2        1.0  0.3445960216389564  0.7982384477279039  0.13742228868311904  1.0000
  O   O3        1.0  0.3445957629131158  0.7017606176841368  0.6374251023295725  1.0000
  O   O4        1.0  0.6553984250563191  0.2017614903635234  0.8625751716821168  1.0000
  O   O5        1.0  0.37257782594944905  0.4717422818330022  0.2964656696233447  1.0000
  O   O6        1.0  0.627412738582578  0.9717378671623389  0.20353463038408384  1.0000
  O   O7        1.0  0.627419425332654  0.5282576562634771  0.7035343523394813  1.0000
  O   O8        1.0  0.37257634325001016  0.028257485314313196  0.7964652535991373  1.0000
