data_image0
_chemical_formula_structural       Na4H20C24S4Cl8O16
_chemical_formula_sum              "Na4 H20 C24 S4 Cl8 O16"
_cell_length_a       5.448954369004099
_cell_length_b       10.770506818532965
_cell_length_c       17.254627042156578
_cell_angle_alpha    106.42530075726154
_cell_angle_beta     90.00004204891586
_cell_angle_gamma    89.99985987498813

_space_group_name_H-M_alt    "P 1"
_space_group_IT_number       1

loop_
  _space_group_symop_operation_xyz
  'x, y, z'

loop_
  _atom_site_type_symbol
  _atom_site_label
  _atom_site_symmetry_multiplicity
  _atom_site_fract_x
  _atom_site_fract_y
  _atom_site_fract_z
  _atom_site_occupancy
  Na  Na1       1.0  0.9012942193598048  0.7180355886909952  0.07995821432223948  1.0000
  Na  Na2       1.0  0.4012945209461378  0.7819645812433081  0.9200421826712456  1.0000
  Na  Na3       1.0  0.09870739654414959  0.28196559206098465  0.9200421714348366  1.0000
  Na  Na4       1.0  0.5987070949599627  0.21803563154737296  0.07995803380050147  1.0000
  H   H1        1.0  0.17574779680771968  0.7547799649242037  0.2596769995897005  1.0000
  H   H2        1.0  0.6757488928833766  0.7452214487001141  0.7403229833288376  1.0000
  H   H3        1.0  0.8242501486700604  0.24522025048158008  0.7403237968957794  1.0000
  H   H4        1.0  0.324249052593224  0.2547777856801687  0.25967474380254163  1.0000
  H   H5        1.0  0.6006459619230995  0.8052580215035333  0.47786533896913846  1.0000
  H   H6        1.0  0.1006494332485417  0.6947434848008883  0.5221346428351055  1.0000
  H   H7        1.0  0.39935381876703246  0.1947431618624194  0.5221356268016777  1.0000
  H   H8        1.0  0.8993576882996877  0.305256722760717  0.47786441360917553  1.0000
  H   H9        1.0  0.8550144104710923  0.6139406126729909  0.4075434385586191  1.0000
  H   H10       1.0  0.3550152871571512  0.8860586464125788  0.5924567884628755  1.0000
  H   H11       1.0  0.14498537022118538  0.3860596027316561  0.5924573579268753  1.0000
  H   H12       1.0  0.6449863287489421  0.11394156637810227  0.4075434280088785  1.0000
  H   H13       1.0  0.659082098713661  0.9239655107909643  0.06591954375368662  1.0000
  H   H14       1.0  0.1590834254572613  0.5760349580515297  0.9340808496460156  1.0000
  H   H15       1.0  0.340919517194564  0.07603373403841118  0.9340805034327457  1.0000
  H   H16       1.0  0.840918190447361  0.4239662253132933  0.06592011612481485  1.0000
  H   H17       1.0  0.4251640117831028  0.855774856563471  0.08537153852171996  1.0000
  H   H18       1.0  0.9251623277731226  0.6442252839148565  0.9146288588259137  1.0000
  H   H19       1.0  0.5748376041215195  0.14422632680135192  0.9146294272491104  1.0000
  H   H20       1.0  0.0748356177068032  0.35577396352962853  0.0853717683742374  1.0000
  C   C1        1.0  0.3219612838214019  0.7236165240263684  0.29290998639596916  1.0000
  C   C2        1.0  0.8219621527484832  0.776383743810669  0.7070904094204307  1.0000
  C   C3        1.0  0.6780366616557174  0.27638368876657177  0.7070902300757564  1.0000
  C   C4        1.0  0.17803395751495538  0.22361549579642304  0.29290847773845025  1.0000
  C   C5        1.0  0.3691243961199291  0.7892405686429526  0.3735593065138473  1.0000
  C   C6        1.0  0.8691272298908643  0.7107615742996459  0.626440848559234  1.0000
  C   C7        1.0  0.6308735493621284  0.21075771084021963  0.6264411514009822  1.0000
  C   C8        1.0  0.13087438601257156  0.2892386280396765  0.3735570478574956  1.0000
  C   C9        1.0  0.5614696945395748  0.7519367137151463  0.41546018093538345  1.0000
  C   C10       1.0  0.0614712180908512  0.7480629076273074  0.5845400417306833  1.0000
  C   C11       1.0  0.4385300861548344  0.24806253372819503  0.5845404462647891  1.0000
  C   C12       1.0  0.9385303978111137  0.25193826528615654  0.41545860398512957  1.0000
  C   C13       1.0  0.7057930060052087  0.6463131272925152  0.37604440023886093  1.0000
  C   C14       1.0  0.2057959468734651  0.85368534798144  0.623955655283268  1.0000
  C   C15       1.0  0.29420493947471016  0.35368612015196277  0.6239562269612975  1.0000
  C   C16       1.0  0.7942075042464581  0.14631486219526832  0.376043981174746  1.0000
  C   C17       1.0  0.6606798310997845  0.5795284945971629  0.2954065428358063  1.0000
  C   C18       1.0  0.16068263671059674  0.9204710043113807  0.7045936813022846  1.0000
  C   C19       1.0  0.33931811437800263  0.4204717208086136  0.7045942536496738  1.0000
  C   C20       1.0  0.8393171439796774  0.0795292032547508  0.29540537514193926  1.0000
  C   C21       1.0  0.4699421746564808  0.6190869521184936  0.25309033187294006  1.0000
  C   C22       1.0  0.969944467107581  0.8809131357104434  0.7469106461528767  1.0000
  C   C23       1.0  0.5300557708191675  0.380914231248596  0.7469106338978688  1.0000
  C   C24       1.0  0.0300571487965158  0.1190870692417221  0.25308783027760734  1.0000
  S   S1        1.0  0.4167283511559887  0.54518304859144  0.14739282629506079  1.0000
  S   S2        1.0  0.9167342024712894  0.9548180676409714  0.8526071601990423  1.0000
  S   S3        1.0  0.5832677591038402  0.4548181295511  0.8526069794482183  1.0000
  S   S4        1.0  0.08326190779708749  0.045179238656352504  0.1473919684029426  1.0000
  Cl  Cl1       1.0  0.19195802839071519  0.9227025021609664  0.42101096880364247  1.0000
  Cl  Cl2       1.0  0.6919595604403241  0.5772979261099138  0.5789894250838472  1.0000
  Cl  Cl3       1.0  0.8080417523015556  0.07729771324368778  0.5789898276818517  1.0000
  Cl  Cl4       1.0  0.3080438906803948  0.4227013108798089  0.42100888206132936  1.0000
  Cl  Cl5       1.0  0.8447814715959223  0.44879919249083833  0.2512418990325996  1.0000
  Cl  Cl6       1.0  0.34478432425243705  0.0512007594794923  0.7487581405685404  1.0000
  Cl  Cl7       1.0  0.15521647387905796  0.5512019882634079  0.748758486724455  1.0000
  Cl  Cl8       1.0  0.6552154564413115  0.9487984853510127  0.2512419066178707  1.0000
  O   O1        1.0  0.2098903107392118  0.614705696825105  0.12662805317597758  1.0000
  O   O2        1.0  0.7098947100415386  0.8852927760043913  0.873372582420714  1.0000
  O   O3        1.0  0.7901076347428457  0.3852925826580744  0.873372404738852  1.0000
  O   O4        1.0  0.29011424672330577  0.11470646359477848  0.1266263047382594  1.0000
  O   O5        1.0  0.3651646515899571  0.4072924078225383  0.13836319303463537  1.0000
  O   O6        1.0  0.8651667636739262  0.0927065562581717  0.8616378376111199  1.0000
  O   O7        1.0  0.6348351291044522  0.5927068396208098  0.8616374341655371  1.0000
  O   O8        1.0  0.13483301701834446  0.9072936591464751  0.1383629588743743  1.0000
  O   O9        1.0  0.6470752084123814  0.562789821116276  0.10703487274930269  1.0000
  O   O10       1.0  0.14707469897867037  0.9372087266221957  0.8929651819015872  1.0000
  O   O11       1.0  0.3529227370668764  0.437209423715366  0.8929651744371013  1.0000
  O   O12       1.0  0.8529250817144031  0.0627905155954736  0.10703428527107658  1.0000
  O   O13       1.0  0.5709167425627584  0.8403489288744196  0.04994848332518837  1.0000
  O   O14       1.0  0.0709158679976127  0.6596526141208868  0.9500514980379149  1.0000
  O   O15       1.0  0.42908487334052836  0.15965224926472388  0.9500513224181332  1.0000
  O   O16       1.0  0.929083912693997  0.34034759867092396  0.049948718433817894  1.0000
