data_image0
_chemical_formula_structural       Zn2H14C50I4N4Cl2O12
_chemical_formula_sum              "Zn2 H14 C50 I4 N4 Cl2 O12"
_cell_length_a       12.710147260559552
_cell_length_b       13.907058073984194
_cell_length_c       28.075173478420247
_cell_angle_alpha    89.86645149949123
_cell_angle_beta     92.40399680863695
_cell_angle_gamma    94.09927195242162

_space_group_name_H-M_alt    "P 1"
_space_group_IT_number       1

loop_
  _space_group_symop_operation_xyz
  'x, y, z'

loop_
  _atom_site_type_symbol
  _atom_site_label
  _atom_site_symmetry_multiplicity
  _atom_site_fract_x
  _atom_site_fract_y
  _atom_site_fract_z
  _atom_site_occupancy
  Zn  Zn1       1.0  0.6086566248243414  0.49306831979223625  0.5036819463933639  1.0000
  Zn  Zn2       1.0  0.39245281717383307  0.5066028775629619  0.496631884526849  1.0000
  H   H1        1.0  0.6555438186087342  0.5821550441099744  0.2598011170754191  1.0000
  H   H2        1.0  0.6134973793848174  0.43100613573779606  0.7500636771570584  1.0000
  H   H3        1.0  0.5239323689494596  0.7409132951149643  0.1234335273260996  1.0000
  H   H4        1.0  0.408435129033215  0.2603355712961458  0.8753748107199187  1.0000
  H   H5        1.0  0.3408739910994924  0.5612580783266238  0.6416929096367242  1.0000
  H   H6        1.0  0.3573907026520898  0.4287585900768248  0.34765708316314203  1.0000
  H   H7        1.0  0.3210724241199756  0.5667683971055197  0.7298892612477061  1.0000
  H   H8        1.0  0.3525454799773158  0.42257901162479067  0.25859627389561984  1.0000
  H   H9        1.0  0.43955129354767297  0.7392303936680804  0.8764458879996084  1.0000
  H   H10       1.0  0.5087938389374143  0.2618233839759938  0.1211251411426488  1.0000
  H   H11       1.0  0.44130932575436077  0.7397689861900715  0.9641661469488128  1.0000
  H   H12       1.0  0.49467490810713605  0.26123440975455026  0.03330762068058851  1.0000
  H   H13       1.0  0.6228449143696579  0.022175845565392607  0.503166424090665  1.0000
  H   H14       1.0  0.3812029387409836  0.977189945962394  0.4955624011154853  1.0000
  C   C1        1.0  0.5397814516124768  0.6854341882951047  0.5008887727430533  1.0000
  C   C2        1.0  0.46328479426082214  0.31395539591369453  0.4989059744862275  1.0000
  C   C3        1.0  0.5061931734491694  0.5025466070418361  0.4075716892470354  1.0000
  C   C4        1.0  0.49236924782660196  0.4985201898262872  0.5925041659554111  1.0000
  C   C5        1.0  0.5002042300998824  0.5912014842815195  0.1796876767853277  1.0000
  C   C6        1.0  0.4460991244243573  0.4091005985526053  0.8191056986894553  1.0000
  C   C7        1.0  0.5008485154412838  0.4113111225490798  0.1793890524180952  1.0000
  C   C8        1.0  0.45696929550287274  0.5894820607194478  0.8190642233915426  1.0000
  C   C9        1.0  0.4199267591464206  0.45792524734994083  0.2784151236464467  1.0000
  C   C10       1.0  0.38902068173470633  0.5361711028663052  0.71501453517034  1.0000
  C   C11       1.0  0.4230659861619158  0.46089953408918666  0.32792882833891923  1.0000
  C   C12       1.0  0.40052939845600116  0.5336842403346935  0.6660614249185386  1.0000
  C   C13       1.0  0.5936984384798905  0.5486402641094514  0.3289371694681549  1.0000
  C   C14       1.0  0.5658259490358688  0.45986811591714627  0.6769284792777628  1.0000
  C   C15       1.0  0.5912643063368392  0.5467872704254546  0.2791754640886097  1.0000
  C   C16       1.0  0.5544731667500855  0.46085331269481594  0.7262110104544846  1.0000
  C   C17       1.0  0.5045620632857463  0.5011591332180316  0.2542946437350508  1.0000
  C   C18       1.0  0.4665357294200304  0.4990664317997542  0.7449218471128843  1.0000
  C   C19       1.0  0.4873947012407739  0.5010353709159928  0.1012798422262335  1.0000
  C   C20       1.0  0.4542843333657628  0.49965156524843474  0.8972991120837007  1.0000
  C   C21       1.0  0.4967244557160129  0.588710761445121  0.1269040010355127  1.0000
  C   C22       1.0  0.4439427045245452  0.411800500339254  0.8718264016043592  1.0000
  C   C23       1.0  0.5095381579066751  0.6749566365221966  0.1025917657901019  1.0000
  C   C24       1.0  0.4247283657397459  0.3261920881890815  0.8961466313607644  1.0000
  C   C25       1.0  0.4930550976183383  0.413437499654556  0.1266501920553651  1.0000
  C   C26       1.0  0.45409546872065215  0.5872970117152221  0.8716717148443037  1.0000
  C   C27       1.0  0.5097282820097959  0.5052695860496074  0.3541285525911134  1.0000
  C   C28       1.0  0.48841700251872305  0.4962522053135671  0.6459400728747937  1.0000
  C   C29       1.0  0.4670573199520617  0.5893630425888999  0.9731030211668923  1.0000
  C   C30       1.0  0.4689401434576793  0.4118436056197936  0.025435937578663505  1.0000
  C   C31       1.0  0.4514408456641092  0.4085385026385424  0.9736351189525436  1.0000
  C   C32       1.0  0.48265668136933454  0.5928971568731781  0.025019681956578697  1.0000
  C   C33       1.0  0.46015043665003924  0.498681613604937  0.9483304887745377  1.0000
  C   C34       1.0  0.4769312026870979  0.502447017219012  0.0502863384644172  1.0000
  C   C35       1.0  0.4511860097313019  0.6723855723542017  0.9460967582078014  1.0000
  C   C36       1.0  0.48707173439654367  0.32855736017597087  0.051874412168011495  1.0000
  C   C37       1.0  0.44742239110284027  0.6726403325121808  0.8963983409574823  1.0000
  C   C38       1.0  0.4972233522878895  0.32821314330688284  0.101507487868723  1.0000
  C   C39       1.0  0.5086983051967308  0.6770300561560701  0.05262796400629101  1.0000
  C   C40       1.0  0.4229896656270498  0.3248222796574751  0.9460686726650778  1.0000
  C   C41       1.0  0.45254463680528534  0.21003962005840998  0.49803256521705214  1.0000
  C   C42       1.0  0.5507972647673113  0.7893404890944707  0.5008535033086972  1.0000
  C   C43       1.0  0.455683929572828  0.0217558419966437  0.4979605390445343  1.0000
  C   C44       1.0  0.5483306918583607  0.9776659473250717  0.5008207491426901  1.0000
  C   C45       1.0  0.5513476645158376  0.8771252711787837  0.5007569945896506  1.0000
  C   C46       1.0  0.45248199998138  0.1222811237996027  0.4978118993008778  1.0000
  C   C47       1.0  0.969730692849879  0.47161286021221116  0.5168628179558254  1.0000
  C   C48       1.0  0.0299814679335029  0.5245603779912854  0.48554860985415615  1.0000
  C   C49       1.0  0.1412898277175714  0.5252625533783473  0.4887508928215496  1.0000
  C   C50       1.0  0.8584995355892745  0.47169575365063576  0.5134558554041959  1.0000
  I   I1        1.0  0.7225122746490342  0.6296168948296027  0.3626951811313148  1.0000
  I   I2        1.0  0.7000396535038075  0.39452588351628043  0.6540691572920635  1.0000
  I   I3        1.0  0.5687178715521881  0.8144105742665316  0.0283348206567808  1.0000
  I   I4        1.0  0.35621737124216674  0.1904984081793515  0.9710400367155287  1.0000
  N   N1        1.0  0.5016798991097956  0.5011930986195807  0.2029198305781179  1.0000
  N   N2        1.0  0.4569294470012934  0.4992589835025639  0.7959060407680525  1.0000
  N   N3        1.0  0.7671885115843792  0.47212100647314503  0.5107435686716002  1.0000
  N   N4        1.0  0.232762796177461  0.5262155817828855  0.49109104475341786  1.0000
  Cl  Cl1       1.0  0.9759157045032791  0.5909750128950435  0.44109859909787025  1.0000
  Cl  Cl2       1.0  0.02279420356048689  0.4038419077447556  0.5610262629641483  1.0000
  O   O1        1.0  0.622966295743403  0.640411816820297  0.49715826671046415  1.0000
  O   O2        1.0  0.38084738545977354  0.359039375887555  0.4897829266429952  1.0000
  O   O3        1.0  0.4456080498766326  0.6485260945727305  0.5046647671115352  1.0000
  O   O4        1.0  0.5563637403591173  0.35085517238442776  0.5089076638178511  1.0000
  O   O5        1.0  0.5899773859252305  0.48302514397568064  0.43078329429935286  1.0000
  O   O6        1.0  0.4036653514286285  0.49060837977602034  0.5693761695380744  1.0000
  O   O7        1.0  0.41801374282734827  0.5179744150897746  0.4249151355506982  1.0000
  O   O8        1.0  0.5825882254947459  0.5096515148109688  0.5746591717888805  1.0000
  O   O9        1.0  0.5015092108059703  0.6668126063336999  0.20234236388279211  1.0000
  O   O10       1.0  0.43984028107168877  0.33330086067880427  0.7964309971633271  1.0000
  O   O11       1.0  0.461014247905119  0.6650587455465811  0.796238651924007  1.0000
  O   O12       1.0  0.5060548421505189  0.3361211502845761  0.20216060349967793  1.0000
