data_image0
_chemical_formula_structural       Na2Cd2H28C18N6O20
_chemical_formula_sum              "Na2 Cd2 H28 C18 N6 O20"
_cell_length_a       8.19182451504422
_cell_length_b       9.629191470461194
_cell_length_c       9.902033906897767
_cell_angle_alpha    95.12498186216976
_cell_angle_beta     92.40284269943311
_cell_angle_gamma    110.71961411805263

_space_group_name_H-M_alt    "P 1"
_space_group_IT_number       1

loop_
  _space_group_symop_operation_xyz
  'x, y, z'

loop_
  _atom_site_type_symbol
  _atom_site_label
  _atom_site_symmetry_multiplicity
  _atom_site_fract_x
  _atom_site_fract_y
  _atom_site_fract_z
  _atom_site_occupancy
  Na  Na1       1.0  0.022719200052797785  0.3089266075559252  0.6872034505609504  1.0000
  Na  Na2       1.0  0.9772816653403282  0.6910786606098043  0.3127953265450145  1.0000
  Cd  Cd1       1.0  0.49927429954791347  0.6768557793673297  0.2307301542982572  1.0000
  Cd  Cd2       1.0  0.5007270669336776  0.3231449599867702  0.7692712231836936  1.0000
  H   H1        1.0  0.0861383334708279  0.20572709430410901  0.0004215267966642972  1.0000
  H   H2        1.0  0.9138574538194534  0.7942748530271901  0.9995798311851658  1.0000
  H   H3        1.0  0.07318402205644499  0.15257166760280683  0.1687384012824182  1.0000
  H   H4        1.0  0.9268187571342281  0.8474268252265134  0.8312597617750086  1.0000
  H   H5        1.0  0.9146086530954706  0.32827107044847276  0.2303097608225215  1.0000
  H   H6        1.0  0.08538957348726947  0.6717308325223642  0.7696926628893762  1.0000
  H   H7        1.0  0.921886950514505  0.3754717651208778  0.06304961660260489  1.0000
  H   H8        1.0  0.0781202636540002  0.6245311277378676  0.9369531250165083  1.0000
  H   H9        1.0  0.5737031193254793  0.0056728730511608  0.6922087691665695  1.0000
  H   H10       1.0  0.42629556236061455  0.9943245331570552  0.3077922169392692  1.0000
  H   H11       1.0  0.4190440256383922  0.8319361256974814  0.7290500216414273  1.0000
  H   H12       1.0  0.5809553566541013  0.16806016125447337  0.2709488525044037  1.0000
  H   H13       1.0  0.7944505594140165  0.8841686320461405  0.6524007038496222  1.0000
  H   H14       1.0  0.20555079557129832  0.11583211532021659  0.3475996641368155  1.0000
  H   H15       1.0  0.647251818566751  0.7136183499246369  0.6990096737225073  1.0000
  H   H16       1.0  0.3527492794192426  0.28637902794762476  0.3009903591223874  1.0000
  H   H17       1.0  0.7108930172366286  0.5830288016069787  0.04616658559854158  1.0000
  H   H18       1.0  0.2891093068506763  0.4169741879849553  0.9538330150649372  1.0000
  H   H19       1.0  0.7121522091883535  0.1649391151701138  0.5072047456119222  1.0000
  H   H20       1.0  0.2878491228044027  0.8350616482207442  0.49279360338350386  1.0000
  H   H21       1.0  0.677246204078905  0.4728549260117278  0.1553194161188003  1.0000
  H   H22       1.0  0.3227561315046827  0.527148055567956  0.8446811940401845  1.0000
  H   H23       1.0  0.8408135569761582  0.12431009963668058  0.41157769745971967  1.0000
  H   H24       1.0  0.15918873262231154  0.8756929139920189  0.5884188747172345  1.0000
  H   H25       1.0  0.17648808179962563  0.6047296858175172  0.5457823444566472  1.0000
  H   H26       1.0  0.8235141381142338  0.3952677379786634  0.45420964054145685  1.0000
  H   H27       1.0  0.2697828106686514  0.4847618499014742  0.5455422524957214  1.0000
  H   H28       1.0  0.7302194437340431  0.515235549857948  0.45445276098890725  1.0000
  C   C1        1.0  0.7615522060098172  0.9733156786823683  0.14247002633803155  1.0000
  C   C2        1.0  0.23844697747169613  0.02668283662026741  0.8575320903495935  1.0000
  C   C3        1.0  0.5413119685584532  0.8306436323028307  0.9669602712902118  1.0000
  C   C4        1.0  0.4586812975515286  0.16934713966264067  0.03303589408139369  1.0000
  C   C5        1.0  0.7781287036142145  0.052396041841035405  0.9127130545106681  1.0000
  C   C6        1.0  0.221876959889876  0.9476091936895301  0.08728078758687015  1.0000
  C   C7        1.0  0.009226596481156011  0.19137492522084898  0.08908304627541948  1.0000
  C   C8        1.0  0.9907747585041587  0.8086258221455082  0.9109173217110181  1.0000
  C   C9        1.0  0.9918942529393889  0.3388103924678633  0.141413638556223  1.0000
  C   C10       1.0  0.008107649826456533  0.6611914319438911  0.8585918979940245  1.0000
  C   C11       1.0  0.16932289320840974  0.45980135319435794  0.17771353385659688  1.0000
  C   C12       1.0  0.8306775508632497  0.5402027497911845  0.822291179136144  1.0000
  C   C13       1.0  0.558371440294522  0.8997203143039204  0.7318043889812245  1.0000
  C   C14       1.0  0.4416250353989284  0.10027488387734  0.2681953173392841  1.0000
  C   C15       1.0  0.6547699828605786  0.8143188073447618  0.6515691724757886  1.0000
  C   C16       1.0  0.34522867583296346  0.18567861488796208  0.3484297946390384  1.0000
  C   C17       1.0  0.5883239523835115  0.7685743222777788  0.5040122539654276  1.0000
  C   C18       1.0  0.4116759317043942  0.23142307376858887  0.49598775076218976  1.0000
  N   N1        1.0  0.6118814568390718  0.8569648532719398  0.09782446270992295  1.0000
  N   N2        1.0  0.3881184042562822  0.14303255879893584  0.9021735230266756  1.0000
  N   N3        1.0  0.841534472712233  0.07120943892976331  0.0479242045951125  1.0000
  N   N4        1.0  0.1584651895721337  0.9287902014917861  0.9520770236832804  1.0000
  N   N5        1.0  0.6251789360898102  0.9310635884193205  0.8757277236299857  1.0000
  N   N6        1.0  0.3748189982978332  0.0689293311881443  0.12427280624803669  1.0000
  O   O1        1.0  0.8287694042514957  0.9927694447963236  0.2610801039577453  1.0000
  O   O2        1.0  0.1712253564553947  0.007230300370665098  0.7389169738695074  1.0000
  O   O3        1.0  0.40508260317343303  0.7224422813618004  0.9287272653042037  1.0000
  O   O4        1.0  0.5949182615127455  0.2775573488978935  0.07127298159596049  1.0000
  O   O5        1.0  0.8548776233144436  0.13688711318327046  0.8302880782047453  1.0000
  O   O6        1.0  0.14511356396889857  0.8631070005264833  0.16971644203790953  1.0000
  O   O7        1.0  0.30469086065077977  0.4415048716632056  0.1287282964929446  1.0000
  O   O8        1.0  0.6953081477192455  0.5585014938716244  0.8712776119332942  1.0000
  O   O9        1.0  0.18408157290204483  0.577038866171378  0.2538542491704233  1.0000
  O   O10       1.0  0.8159127671903262  0.42296535172145866  0.7461472947494058  1.0000
  O   O11       1.0  0.49067232446540027  0.8267281988716705  0.4466547261159377  1.0000
  O   O12       1.0  0.509328061417925  0.173270306269103  0.553346409193459  1.0000
  O   O13       1.0  0.6379134476388728  0.6716183947204755  0.43770526650325087  1.0000
  O   O14       1.0  0.3620898333472056  0.3283812072032575  0.5622940271359624  1.0000
  O   O15       1.0  0.7194000933405461  0.5810477342866063  0.14679130176413216  1.0000
  O   O16       1.0  0.2806036894409516  0.41895297673153925  0.8532091224568603  1.0000
  O   O17       1.0  0.8373961716870398  0.1937811315939371  0.4897037401479878  1.0000
  O   O18       1.0  0.1626048810207905  0.806221916233369  0.5102907849206773  1.0000
  O   O19       1.0  0.20022274368535162  0.5313422571488431  0.5982070921742917  1.0000
  O   O20       1.0  0.7997844015054839  0.46866068378342624  0.4017895924717791  1.0000
