data_image0
_chemical_formula_structural       Co4H64C64N16
_chemical_formula_sum              "Co4 H64 C64 N16"
_cell_length_a       7.125211111005362
_cell_length_b       18.5602353720117
_cell_length_c       18.560120119004925
_cell_angle_alpha    90.00005065191326
_cell_angle_beta     90.00006751073626
_cell_angle_gamma    90.00012048178476

_space_group_name_H-M_alt    "P 1"
_space_group_IT_number       1

loop_
  _space_group_symop_operation_xyz
  'x, y, z'

loop_
  _atom_site_type_symbol
  _atom_site_label
  _atom_site_symmetry_multiplicity
  _atom_site_fract_x
  _atom_site_fract_y
  _atom_site_fract_z
  _atom_site_occupancy
  Co  Co1       1.0  0.7500006340177948  0.25000070197130947  0.7499997394687343  1.0000
  Co  Co2       1.0  0.24999919672657714  0.7499998614377219  0.250000926367683  1.0000
  Co  Co3       1.0  0.7499984170273991  0.7499989893846929  0.25000050258214673  1.0000
  Co  Co4       1.0  0.2500028171806294  0.2499999576663399  0.7500007020435009  1.0000
  H   H1        1.0  0.9359925872974276  0.392412193999327  0.6759491391345379  1.0000
  H   H2        1.0  0.8110111966105013  0.47079529595034597  0.6484956589355877  1.0000
  H   H3        1.0  0.7997273736549675  0.43962546810941927  0.739331261570591  1.0000
  H   H4        1.0  0.22115913045771415  0.4841402197601496  0.5786069728588502  1.0000
  H   H5        1.0  0.9359878345872307  0.1075925955592822  0.8240504253630976  1.0000
  H   H6        1.0  0.8110089121996256  0.02920777450596291  0.8515043868577055  1.0000
  H   H7        1.0  0.7997179654417937  0.060378131854022916  0.7606687790305318  1.0000
  H   H8        1.0  0.2211625990208504  0.015860210648156705  0.9213938791709283  1.0000
  H   H9        1.0  0.43598988930786936  0.8240529409992092  0.3924106405761664  1.0000
  H   H10       1.0  0.31101273176395244  0.8515062398980008  0.4707948149501178  1.0000
  H   H11       1.0  0.2997243539423665  0.7606717053176056  0.43962417650324453  1.0000
  H   H12       1.0  0.7211509630112191  0.921404234848417  0.4841321383626679  1.0000
  H   H13       1.0  0.43599186838994813  0.6759485511346668  0.10759022014037363  1.0000
  H   H14       1.0  0.31101432673305857  0.6484956882807255  0.029205988274711107  1.0000
  H   H15       1.0  0.2997251279048216  0.7393296747948028  0.0603771603179126  1.0000
  H   H16       1.0  0.7211521419015201  0.5785980304966928  0.015868853533419307  1.0000
  H   H17       1.0  0.5640104507286595  0.6075895870707769  0.17594807436148593  1.0000
  H   H18       1.0  0.6889889516502026  0.5292059220748513  0.14849619869617925  1.0000
  H   H19       1.0  0.700277259074646  0.5603774465384603  0.23932914014464765  1.0000
  H   H20       1.0  0.2788535940674636  0.5158664521208113  0.07859838273161303  1.0000
  H   H21       1.0  0.564011439887601  0.8924098551595918  0.3240501512976692  1.0000
  H   H22       1.0  0.6889904451035066  0.9707936228983272  0.35150262324518894  1.0000
  H   H23       1.0  0.700279714324367  0.9396215689280253  0.2606680706206888  1.0000
  H   H24       1.0  0.2788539666698214  0.9841322169012088  0.421399711749615  1.0000
  H   H25       1.0  0.06401255427656591  0.1759475427260426  0.8924108039845753  1.0000
  H   H26       1.0  0.18899135178576648  0.14849431308869748  0.970794472779318  1.0000
  H   H27       1.0  0.20027682862597376  0.23932828133947479  0.9396249974446821  1.0000
  H   H28       1.0  0.7788403736891782  0.07860590032871072  0.9841409351315635  1.0000
  H   H29       1.0  0.06401252277776592  0.3240527584937212  0.6075899757539959  1.0000
  H   H30       1.0  0.18899684527458763  0.35150662966197643  0.5292058256637591  1.0000
  H   H31       1.0  0.20028052427979762  0.26067213190199107  0.5603758449788929  1.0000
  H   H32       1.0  0.778834974956887  0.42139337217613365  0.5158607122290064  1.0000
  H   H33       1.0  0.0640100503753516  0.607586753051571  0.3240504491225806  1.0000
  H   H34       1.0  0.18899144106373467  0.5292041898868193  0.3515039293217655  1.0000
  H   H35       1.0  0.20027666748889328  0.560374017729039  0.2606699430559374  1.0000
  H   H36       1.0  0.7788350864098561  0.515857649714981  0.4213931541854664  1.0000
  H   H37       1.0  0.0640077857611985  0.8924106617788895  0.17594916289431245  1.0000
  H   H38       1.0  0.18899091854620312  0.9707933276893356  0.14849627897895357  1.0000
  H   H39       1.0  0.20027625143492145  0.9396240479105559  0.23932973164684773  1.0000
  H   H40       1.0  0.7788386351892671  0.9841398139751761  0.07860678666557422  1.0000
  H   H41       1.0  0.5640141518378885  0.17594816119734702  0.607588947682224  1.0000
  H   H42       1.0  0.688991309382445  0.14849540108458106  0.5292042345188934  1.0000
  H   H43       1.0  0.7002796872062904  0.2393304744514921  0.5603754117556293  1.0000
  H   H44       1.0  0.2788516746694399  0.0785979449198635  0.515866911106265  1.0000
  H   H45       1.0  0.5640121727559874  0.3240520122760914  0.8924104456970099  1.0000
  H   H46       1.0  0.6889925213472596  0.3515048751311838  0.970794677563319  1.0000
  H   H47       1.0  0.7002789132404816  0.26067034982992254  0.9396240443088574  1.0000
  H   H48       1.0  0.27884488190314033  0.4214014553379215  0.9841301959330268  1.0000
  H   H49       1.0  0.4359893800095664  0.3924098987647541  0.824050436315986  1.0000
  H   H50       1.0  0.3110094756201961  0.4707930249740713  0.8515028507703521  1.0000
  H   H51       1.0  0.29972116819558187  0.43962203929626037  0.7606688317428836  1.0000
  H   H52       1.0  0.7211462366715794  0.48413303371496147  0.9214006667354796  1.0000
  H   H53       1.0  0.43598979432233176  0.10759070824953201  0.6759494369598331  1.0000
  H   H54       1.0  0.31100798216962033  0.0292069405089279  0.6484953486428254  1.0000
  H   H55       1.0  0.2997187129452286  0.060377378120655606  0.7393304400562288  1.0000
  H   H56       1.0  0.72114867101147  0.0158705016531044  0.5785987989299387  1.0000
  H   H57       1.0  0.9359872764681685  0.8240519431113995  0.10759201700983573  1.0000
  H   H58       1.0  0.811007075489336  0.8515051727474516  0.029206731845917502  1.0000
  H   H59       1.0  0.7997173882462932  0.7606701269228752  0.06037728475834572  1.0000
  H   H60       1.0  0.22116086052093215  0.921394124294622  0.015859730704939103  1.0000
  H   H61       1.0  0.9359873079637143  0.6759467273427617  0.3924106900819454  1.0000
  H   H62       1.0  0.8110071958699053  0.6484933949625146  0.4707948401733901  1.0000
  H   H63       1.0  0.7997207099280603  0.7393273539348327  0.4396242820677544  1.0000
  H   H64       1.0  0.2211606453778714  0.5786044972995725  0.4841394148156299  1.0000
  C   C1        1.0  0.8045916596642118  0.4226332036394922  0.682602635249417  1.0000
  C   C2        1.0  0.6357263421695126  0.37884165559453464  0.6642190753295767  1.0000
  C   C3        1.0  0.342815840457618  0.4903934076888774  0.5434439768686873  1.0000
  C   C4        1.0  0.8045867243766339  0.0773693227520837  0.8173974075899226  1.0000
  C   C5        1.0  0.6357231012815705  0.12116019319132933  0.8357825061975179  1.0000
  C   C6        1.0  0.3428193814842048  0.009604967585723  0.9565563923349247  1.0000
  C   C7        1.0  0.304587494627839  0.8174005062546996  0.42263185578617896  1.0000
  C   C8        1.0  0.13572511289521572  0.8357843438419934  0.37884062142089203  1.0000
  C   C9        1.0  0.842810620147411  0.9565633245036694  0.4903913008684101  1.0000
  C   C10       1.0  0.30458801483103326  0.6826014166415251  0.07736894448267151  1.0000
  C   C11       1.0  0.1357270698385804  0.6642169014496347  0.12115902358892335  1.0000
  C   C12       1.0  0.8428087841648735  0.5434385020669907  0.0096075918340333  1.0000
  C   C13       1.0  0.6954128019024425  0.5773680445240359  0.18260160419353616  1.0000
  C   C14       1.0  0.8642752569938851  0.6211601151090633  0.1642154667389875  1.0000
  C   C15       1.0  0.15718414675777848  0.5096078452544716  0.04343694160982641  1.0000
  C   C16       1.0  0.6954125300192118  0.9226309669430748  0.3173972207022829  1.0000
  C   C17       1.0  0.8642734016518575  0.8788401127481931  0.3357828970472526  1.0000
  C   C18       1.0  0.15718886951168545  0.9903928788935517  0.45656379085118465  1.0000
  C   C19       1.0  0.19541223321021314  0.18260162053226736  0.9226326243157744  1.0000
  C   C20       1.0  0.36427588628424706  0.1642177442511681  0.8788414513705123  1.0000
  C   C21       1.0  0.657180735423296  0.0434441222705928  0.9903951614664596  1.0000
  C   C22       1.0  0.19541488168585633  0.3173998662822299  0.5773682158702301  1.0000
  C   C23       1.0  0.3642773622654758  0.33578226502398684  0.621160544074222  1.0000
  C   C24       1.0  0.6571755068788223  0.4565539726470788  0.5096048135590865  1.0000
  C   C25       1.0  0.19541097801164406  0.5773662821981489  0.317398030587171  1.0000
  C   C26       1.0  0.3642720851078565  0.621158369028123  0.3357826680855141  1.0000
  C   C27       1.0  0.6571741659985338  0.5096023066382501  0.45655345622562765  1.0000
  C   C28       1.0  0.19541029943400198  0.9226317794418222  0.18260271945647596  1.0000
  C   C29       1.0  0.36427392252843316  0.8788403702165438  0.16421815963825284  1.0000
  C   C30       1.0  0.6571804492580854  0.9903945182510011  0.043444812290630415  1.0000
  C   C31       1.0  0.695416546520008  0.1826016735141565  0.5773671936830738  1.0000
  C   C32       1.0  0.8642775247839938  0.1642172971400129  0.6211584280477994  1.0000
  C   C33       1.0  0.15719061406669252  0.04343939405006841  0.509607209810824  1.0000
  C   C34       1.0  0.6954146228477146  0.31739914676865766  0.9226317213543923  1.0000
  C   C35       1.0  0.8642755678385472  0.33578366196006476  0.8788405646689058  1.0000
  C   C36       1.0  0.15718964310698172  0.4565609837682061  0.9903914576327398  1.0000
  C   C37       1.0  0.3045884323029783  0.42263144131207747  0.8173969064842626  1.0000
  C   C38       1.0  0.13572457374498012  0.37883990951250723  0.835782505149105  1.0000
  C   C39       1.0  0.842815683980625  0.490391101795268  0.9565626466466459  1.0000
  C   C40       1.0  0.3045887041892784  0.0773690576797819  0.6826023675549919  1.0000
  C   C41       1.0  0.13572642909026203  0.12115991187432233  0.6642172299993092  1.0000
  C   C42       1.0  0.8428151716355289  0.009608762089271698  0.5434357974074404  1.0000
  C   C43       1.0  0.8045833871327802  0.8173984040892392  0.07736911909866963  1.0000
  C   C44       1.0  0.6357225409914948  0.8357822803710064  0.12115921446534372  1.0000
  C   C45       1.0  0.3428204987868213  0.9565559023527398  0.009605504370043103  1.0000
  C   C46       1.0  0.8045849490570733  0.6826001583405272  0.4226324499659456  1.0000
  C   C47       1.0  0.6357224684718334  0.6642150656678966  0.37884119934000193  1.0000
  C   C48       1.0  0.34281449958103855  0.5434428192528244  0.4903931583253184  1.0000
  C   C49       1.0  0.49999978559646524  0.3900084600958706  0.6099941844718232  1.0000
  C   C50       1.0  0.4999970445412034  0.4458450118063697  0.5541562084748721  1.0000
  C   C51       1.0  0.5000022621423741  0.10999381590095678  0.8900084121992721  1.0000
  C   C52       1.0  0.5000007927907363  0.05415618661547231  0.9458447718259254  1.0000
  C   C53       1.0  1.741992079000006e-07  0.8900088208465321  0.3900081065630091  1.0000
  C   C54       1.0  4.0854443739999895e-07  0.945844344323504  0.4458434379969916  1.0000
  C   C55       1.0  3.2093485487000006e-06  0.6099906965101738  0.10999201479992146  1.0000
  C   C56       1.0  1.571533864800001e-06  0.5541546342461106  0.054156144575756626  1.0000
  C   C57       1.0  0.49999864167266866  0.6099894093809866  0.39000594257345983  1.0000
  C   C58       1.0  0.49999576885691976  0.5541523188816698  0.44584337977926947  1.0000
  C   C59       1.0  0.49999897207307964  0.8900072862956281  0.10999387000656212  1.0000
  C   C60       1.0  0.49999763448581563  0.945843838006944  0.05415643279954449  1.0000
  C   C61       1.0  2.6194087397000015e-06  0.10999456424023892  0.609990174107587  1.0000
  C   C62       1.0  5.191995974500001e-06  0.05415742440631991  0.5541564590423818  1.0000
  C   C63       1.0  0.9999980248599417  0.3900093281126829  0.8900075734573537  1.0000
  C   C64       1.0  0.9999982592029115  0.4458443128031532  0.945842366101481  1.0000
  N   N1        1.0  0.5837741038540545  0.32142481557298197  0.7046126343222812  1.0000
  N   N2        1.0  0.5837696463563519  0.1785780680762485  0.7953894620956137  1.0000
  N   N3        1.0  0.08377136932246292  0.7953898740445593  0.3214244761311136  1.0000
  N   N4        1.0  0.08377231323129314  0.7046102509644426  0.178576222557524  1.0000
  N   N5        1.0  0.9162290206504908  0.6785764520373689  0.20460963920430691  1.0000
  N   N6        1.0  0.9162281381735584  0.8214227409586244  0.2953903648502419  1.0000
  N   N7        1.0  0.4162280531536454  0.204612163314053  0.8214242881287819  1.0000
  N   N8        1.0  0.41622948517988334  0.29539004381526013  0.6785782700054953  1.0000
  N   N9        1.0  0.4162257268933943  0.6785762866227928  0.29538910909361255  1.0000
  N   N10       1.0  0.4162245705223528  0.8214230341172168  0.20461228131898684  1.0000
  N   N11       1.0  0.9162298648890971  0.2046106893650474  0.6785761897056306  1.0000
  N   N12       1.0  0.9162303244423032  0.2953886960866896  0.8214239044892084  1.0000
  N   N13       1.0  0.08377221355510041  0.32142249501294634  0.7953899490524848  1.0000
  N   N14       1.0  0.08377169256792173  0.17857674487785863  0.7046103009856994  1.0000
  N   N15       1.0  0.5837675671944994  0.7953894776664966  0.17857799407599376  1.0000
  N   N16       1.0  0.5837689420976633  0.7046094420216066  0.32142455098859574  1.0000
