data_image0
_chemical_formula_structural       Cu2H12C24S2N8Cl4O4
_chemical_formula_sum              "Cu2 H12 C24 S2 N8 Cl4 O4"
_cell_length_a       7.8167773701593015
_cell_length_b       8.055171060753551
_cell_length_c       14.7828037817774
_cell_angle_alpha    74.41137103113805
_cell_angle_beta     92.38395495057522
_cell_angle_gamma    64.5571888392106

_space_group_name_H-M_alt    "P 1"
_space_group_IT_number       1

loop_
  _space_group_symop_operation_xyz
  'x, y, z'

loop_
  _atom_site_type_symbol
  _atom_site_label
  _atom_site_symmetry_multiplicity
  _atom_site_fract_x
  _atom_site_fract_y
  _atom_site_fract_z
  _atom_site_occupancy
  Cu  Cu1       1.0  0.9999685758279429  0.5000224669039426  0.49999292854086264  1.0000
  Cu  Cu2       1.0  2.73773011442485e-05  0.49997492037953617  5.85338023741217e-06  1.0000
  H   H1        1.0  0.626838236678573  0.0973747287521647  0.8699477197805195  1.0000
  H   H2        1.0  0.3731584159552028  0.9026268526636869  0.13004970006984004  1.0000
  H   H3        1.0  0.6544539520772473  0.06720196730036321  0.738946836068628  1.0000
  H   H4        1.0  0.3455665040708381  0.9327789689916559  0.2610597328271568  1.0000
  H   H5        1.0  0.6399466573958604  0.10302340283488581  0.03625353607172602  1.0000
  H   H6        1.0  0.36012823003306965  0.8969028359265395  0.9637583306875825  1.0000
  H   H7        1.0  0.8305087486226056  0.25008603575590643  0.0945638070879085  1.0000
  H   H8        1.0  0.16956510640316214  0.7498456642508343  0.9054520456131174  1.0000
  H   H9        1.0  0.6574744828285116  0.08329504698046722  0.568670221392324  1.0000
  H   H10       1.0  0.34250780830169697  0.9167104165886074  0.43133193602595543  1.0000
  H   H11       1.0  0.8058408696262018  0.27172923702304536  0.4691747758639409  1.0000
  H   H12       1.0  0.19409263486976167  0.7283202681707194  0.5308107281421571  1.0000
  C   C1        1.0  0.9104086551450408  0.3187561568861808  0.8738882074655834  1.0000
  C   C2        1.0  0.08961049307252007  0.6812317635862114  0.12610115028314792  1.0000
  C   C3        1.0  0.8096186027927388  0.23737994203957408  0.8347647944968415  1.0000
  C   C4        1.0  0.19038307171783928  0.7626074840000642  0.16522986297132292  1.0000
  C   C5        1.0  0.007937615551412586  0.40934315776446795  0.8139714527315363  1.0000
  C   C6        1.0  0.9920735638874019  0.5906401121571038  0.18602183842688902  1.0000
  C   C7        1.0  0.8898299002536519  0.3391724672117462  0.673004085668204  1.0000
  C   C8        1.0  0.11014885395723435  0.6608518631614543  0.3269954703326974  1.0000
  C   C9        1.0  0.7099005348064579  0.1600470484243957  0.8951518160999827  1.0000
  C   C10       1.0  0.2901130309035054  0.8399400529254492  0.10484842645000472  1.0000
  C   C11       1.0  0.9913164777448527  0.4261287815797488  0.710916712001918  1.0000
  C   C12       1.0  0.008655637511829116  0.5738880001989913  0.2890871852618488  1.0000
  C   C13       1.0  0.7183045859177497  0.14931338101901304  0.6951594818119418  1.0000
  C   C14       1.0  0.28169655390297516  0.8506818739121512  0.3048462921019564  1.0000
  C   C15       1.0  0.8050644498884408  0.24097050287434735  0.7343758867093513  1.0000
  C   C16       1.0  0.19491206033973196  0.7590449498007031  0.2656268833476148  1.0000
  C   C17       1.0  0.7189206126802432  0.1602600146838853  0.9891468697823812  1.0000
  C   C18       1.0  0.28112355175019843  0.8397081304001971  0.010859655619675836  1.0000
  C   C19       1.0  0.8226837685255431  0.24331188710280569  0.021969440618065113  1.0000
  C   C20       1.0  0.17739059705802862  0.7566348362915534  0.9780376054866124  1.0000
  C   C21       1.0  0.7194132292078307  0.15740229374794978  0.600085602454655  1.0000
  C   C22       1.0  0.2805579707716745  0.8426161814969504  0.39991466999610037  1.0000
  C   C23       1.0  0.8025141922535112  0.2614213872868802  0.5439554192440355  1.0000
  C   C24       1.0  0.1974289594591239  0.7386189155189415  0.4560388838999501  1.0000
  S   S1        1.0  0.18061074541511585  0.5823523093386599  0.742182370540661  1.0000
  S   S2        1.0  0.8193144849502187  0.41768508249933234  0.25781078599602136  1.0000
  N   N1        1.0  0.07686046829712014  0.5188135997145694  0.6626173276411721  1.0000
  N   N2        1.0  0.9231262967463819  0.4812454757136991  0.33739993137255914  1.0000
  N   N3        1.0  0.10860493630769948  0.48605891534587903  0.8416722187033514  1.0000
  N   N4        1.0  0.8914483912490783  0.5139343973264587  0.15830525605652923  1.0000
  N   N5        1.0  0.9141166381998004  0.322649542324939  0.9649001755609987  1.0000
  N   N6        1.0  0.08593724843082387  0.6773105810841782  0.03509874113117924  1.0000
  N   N7        1.0  0.8845136560640863  0.35074070455389983  0.5798426281229255  1.0000
  N   N8        1.0  0.11543604048980428  0.649301531554336  0.42014538794126827  1.0000
  Cl  Cl1       1.0  0.7265539312617335  0.7805404642021329  0.47451579256479454  1.0000
  Cl  Cl2       1.0  0.2733877953943916  0.2195105905632175  0.5254689101868522  1.0000
  Cl  Cl3       1.0  0.7082518980480187  0.747447166419981  0.91103870341275  1.0000
  Cl  Cl4       1.0  0.2917894587524187  0.2524999830020889  0.08897944719561221  1.0000
  O   O1        1.0  0.09073390201225344  0.7896117225494381  0.7195647247605167  1.0000
  O   O2        1.0  0.9092465738980521  0.21038033718492943  0.2804636076032807  1.0000
  O   O3        1.0  0.38620753960593374  0.4787552054594713  0.7520894488950773  1.0000
  O   O4        1.0  0.6137641125873472  0.5213109935475941  0.24788741679989099  1.0000
