data_image0
_chemical_formula_structural       Mn3H32C22N2O14
_chemical_formula_sum              "Mn3 H32 C22 N2 O14"
_cell_length_a       8.082550810306504
_cell_length_b       8.969664930993341
_cell_length_c       9.8176671188006
_cell_angle_alpha    83.88640086507702
_cell_angle_beta     82.39158579641288
_cell_angle_gamma    77.3970860251014

_space_group_name_H-M_alt    "P 1"
_space_group_IT_number       1

loop_
  _space_group_symop_operation_xyz
  'x, y, z'

loop_
  _atom_site_type_symbol
  _atom_site_label
  _atom_site_symmetry_multiplicity
  _atom_site_fract_x
  _atom_site_fract_y
  _atom_site_fract_z
  _atom_site_occupancy
  Mn  Mn1       1.0  0.49999995015669185  0.9999991883757106  0.5000025334202716  1.0000
  Mn  Mn2       1.0  0.6770741741944448  0.6260601300682895  0.5687918034357721  1.0000
  Mn  Mn3       1.0  0.3229290872214108  0.37394129438643386  0.43120634193578405  1.0000
  H   H1        1.0  0.9090933756390669  0.6195676672664165  0.7314629353935657  1.0000
  H   H2        1.0  0.09090719378983886  0.3804291818193804  0.2685369936083575  1.0000
  H   H3        1.0  0.004533236364402202  0.46136278357957394  0.6582609755549882  1.0000
  H   H4        1.0  0.9954680542596394  0.5386363508452734  0.34173762168647664  1.0000
  H   H5        1.0  0.04414678658986297  0.7403155750104277  0.17977131263715754  1.0000
  H   H6        1.0  0.9558506906353941  0.2596892861528773  0.8202261029404381  1.0000
  H   H7        1.0  0.9688852002763255  0.9451984892669999  0.1653020483743147  1.0000
  H   H8        1.0  0.0311097777555887  0.054806362514682405  0.8346936074221533  1.0000
  H   H9        1.0  0.8687399449536741  0.8250601929300247  0.08605576262739581  1.0000
  H   H10       1.0  0.1312545749507947  0.17494122743856624  0.9139413128809151  1.0000
  H   H11       1.0  0.033108159030824404  0.7840604478516155  0.48330356594426144  1.0000
  H   H12       1.0  0.9668872907253102  0.21594790434208028  0.5167028846300494  1.0000
  H   H13       1.0  0.14526376873757846  0.9397085850935766  0.4414707783046552  1.0000
  H   H14       1.0  0.8547362178786172  0.06029633720054051  0.5585375579213405  1.0000
  H   H15       1.0  0.1035266582430907  0.8690396631571461  0.6141131038979708  1.0000
  H   H16       1.0  0.8964756257083196  0.130960656532018  0.3858923925275306  1.0000
  H   H17       1.0  0.7074107128175484  0.041305140902757415  0.9075933822825704  1.0000
  H   H18       1.0  0.29258631421173226  0.9586963290968316  0.09241257812585954  1.0000
  H   H19       1.0  0.5096656740359577  3.184562682889865e-05  0.8743830503552201  1.0000
  H   H20       1.0  0.49033353930548884  0.999966978323556  0.12562281155309304  1.0000
  H   H21       1.0  0.6113371535388054  0.11706630124363224  0.7521177213854101  1.0000
  H   H22       1.0  0.38865560196425253  0.8829374640813229  0.24788847707099376  1.0000
  H   H23       1.0  0.626896022530353  0.3548636465950069  0.781023429807881  1.0000
  H   H24       1.0  0.3731100657553128  0.6451309003564208  0.21897510528835076  1.0000
  H   H25       1.0  0.40258965328701635  0.27334988582906317  0.9573904783409115  1.0000
  H   H26       1.0  0.5974099239475805  0.7266457837423418  0.042603569351122354  1.0000
  H   H27       1.0  0.14525480107222682  0.4688987330797831  0.03264735980610567  1.0000
  H   H28       1.0  0.8547412859077923  0.5310957533455111  0.9673400646690451  1.0000
  H   H29       1.0  0.12144492102282801  0.7411621399855765  0.9265280279827688  1.0000
  H   H30       1.0  0.8785571531389846  0.2588335274676227  0.07346574374211196  1.0000
  H   H31       1.0  0.3587228721966439  0.8043379612948912  0.7572616399756242  1.0000
  H   H32       1.0  0.6412896613982539  0.1956611980975325  0.24274182265848754  1.0000
  C   C1        1.0  0.8073552136093055  0.8223544533928833  0.30545335601757256  1.0000
  C   C2        1.0  0.19264529007777037  0.17764813075388733  0.6945470131180469  1.0000
  C   C3        1.0  0.9315194494351501  0.8336266836680153  0.1769878256153702  1.0000
  C   C4        1.0  0.06847677819342826  0.16637817280447117  0.8230087100716617  1.0000
  C   C5        1.0  0.3015750754345205  0.7218457012987688  0.501381430864967  1.0000
  C   C6        1.0  0.6984209627996589  0.2781546064361536  0.4986217018559883  1.0000
  C   C7        1.0  0.13510927048575633  0.8354652361931445  0.5078060768301214  1.0000
  C   C8        1.0  0.8648899915361098  0.16453738351219022  0.4922005375339181  1.0000
  C   C9        1.0  0.7273870684357533  0.8766064136346972  0.7575318257808444  1.0000
  C   C10       1.0  0.2726104835958695  0.12339275846692034  0.2424732926561929  1.0000
  C   C11       1.0  0.6357070502887084  0.0182810530297459  0.8278613945157502  1.0000
  C   C12       1.0  0.36429122407111697  0.9817204101608329  0.17214341003496256  1.0000
  C   C13       1.0  0.5123153517480716  0.43653167949577926  0.8164079411514749  1.0000
  C   C14       1.0  0.4876882362111841  0.5634628523241147  0.18358781628948853  1.0000
  C   C15       1.0  0.38744031776012383  0.39167408759509215  0.9138928364688466  1.0000
  C   C16       1.0  0.6125620217355275  0.6083204452839014  0.08610305895569327  1.0000
  C   C17       1.0  0.2438783631438568  0.5011771034290861  0.9556314747828905  1.0000
  C   C18       1.0  0.7561189779651014  0.49881741068666247  0.044360901079393444  1.0000
  C   C19       1.0  0.23225887648885646  0.6520212283155615  0.8991275186768988  1.0000
  C   C20       1.0  0.7677466822622137  0.3479755935342014  0.10086778689415608  1.0000
  C   C21       1.0  0.3637714700153508  0.687405722514882  0.8032174182054701  1.0000
  C   C22       1.0  0.6362346194033889  0.3125888301864563  0.19678213476490206  1.0000
  N   N1        1.0  0.501246866564294  0.581294869994345  0.76056390954124  1.0000
  N   N2        1.0  0.49876270744368856  0.41870083710355044  0.23943717727530608  1.0000
  O   O1        1.0  0.695476833605035  0.9418798151181992  0.33334791354597115  1.0000
  O   O2        1.0  0.304523146212766  0.05812507267645371  0.6666543154351741  1.0000
  O   O3        1.0  0.8219158900719421  0.693709807687462  0.37782764769271177  1.0000
  O   O4        1.0  0.1780811256266759  0.30629160481302625  0.6221681339743055  1.0000
  O   O5        1.0  0.44116863575684556  0.7730106349354031  0.4899898098359328  1.0000
  O   O6        1.0  0.5588314075366583  0.22698850629846137  0.510009943263249  1.0000
  O   O7        1.0  0.30130626097027147  0.5808133854237101  0.5131634849395893  1.0000
  O   O8        1.0  0.6986870127367267  0.41918804750380206  0.48683576430057934  1.0000
  O   O9        1.0  0.6714876928691638  0.8539605407001575  0.6449156566222953  1.0000
  O   O10       1.0  0.32851478274277907  0.14604433922638554  0.35508527851755634  1.0000
  O   O11       1.0  0.8488181575552927  0.7866764624600578  0.8102698374065227  1.0000
  O   O12       1.0  0.15118011680452523  0.21332500073052074  0.189734967144183  1.0000
  O   O13       1.0  0.8934534860444147  0.5306274926645429  0.6846569454353002  1.0000
  O   O14       1.0  0.10654905191016444  0.46937163495130096  0.3153404959484404  1.0000
