data_image0
_chemical_formula_structural       K4H12C12N16O20
_chemical_formula_sum              "K4 H12 C12 N16 O20"
_cell_length_a       3.8230960600086186
_cell_length_b       13.239609518028898
_cell_length_c       15.266893664002202
_cell_angle_alpha    89.99997177656331
_cell_angle_beta     89.99994528644825
_cell_angle_gamma    89.99976257987335

_space_group_name_H-M_alt    "P 1"
_space_group_IT_number       1

loop_
  _space_group_symop_operation_xyz
  'x, y, z'

loop_
  _atom_site_type_symbol
  _atom_site_label
  _atom_site_symmetry_multiplicity
  _atom_site_fract_x
  _atom_site_fract_y
  _atom_site_fract_z
  _atom_site_occupancy
  K   K1        1.0  0.8298039289324706  0.9302578897058071  0.5918902463665459  1.0000
  K   K2        1.0  0.17019645964703767  0.06974135505908662  0.09189030151385678  1.0000
  K   K3        1.0  0.8298074727848574  0.569742867450941  0.09189011586410337  1.0000
  K   K4        1.0  0.17019030010814626  0.43025713262480275  0.5918904320164485  1.0000
  H   H1        1.0  0.26236386342781515  0.1221611300267966  0.6023588901063377  1.0000
  H   H2        1.0  0.7376338695380441  0.8778388641031752  0.10235780936042715  1.0000
  H   H3        1.0  0.26236821127333354  0.3778410181204989  0.10235862798490557  1.0000
  H   H4        1.0  0.737629521696704  0.6221582207000009  0.6023587264941168  1.0000
  H   H5        1.0  0.412959134486478  0.0909523896116795  0.6942302201754486  1.0000
  H   H6        1.0  0.58704086374393  0.9090475523343284  0.19423047212535485  1.0000
  H   H7        1.0  0.4129656495471964  0.40904877109625914  0.19423125474581573  1.0000
  H   H8        1.0  0.5870343486848955  0.5909504155399077  0.6942314025914341  1.0000
  H   H9        1.0  0.49376469759956637  0.5004862714412751  0.875350792434375  1.0000
  H   H10       1.0  0.5062346097994634  0.4995143229394187  0.37535058364349533  1.0000
  H   H11       1.0  0.49376206562427444  0.99951397093929  0.3753511333469105  1.0000
  H   H12       1.0  0.506237241773505  0.00048662344121909993  0.875350897743054  1.0000
  C   C1        1.0  0.4069104541431587  0.5784259341248655  0.8719257279253084  1.0000
  C   C2        1.0  0.5930993290439449  0.42157466219498463  0.37192553166385517  1.0000
  C   C3        1.0  0.40689847943919955  0.9215744139889493  0.3719254471225852  1.0000
  C   C4        1.0  0.5931008410302997  0.07842542702804418  0.871925157455898  1.0000
  C   C5        1.0  0.2990126566024146  0.7246448269548933  0.8209277779138872  1.0000
  C   C6        1.0  0.7009920897463007  0.27535428771546583  0.3209289283459498  1.0000
  C   C7        1.0  0.2990158614739188  0.7753549237334453  0.3209295246103068  1.0000
  C   C8        1.0  0.7009862691845544  0.22464494624720288  0.8209291466859625  1.0000
  C   C9        1.0  0.20724134041508793  0.7211198278692946  0.9106500363591435  1.0000
  C   C10       1.0  0.7927552166542214  0.2788822570818965  0.41064985332085496  1.0000
  C   C11       1.0  0.2072497259897973  0.7788807368213212  0.41065112653680547  1.0000
  C   C12       1.0  0.7927494467676867  0.22111983750917832  0.9106507281794902  1.0000
  N   N1        1.0  0.274920082475788  0.6278164224553322  0.942310057800732  1.0000
  N   N2        1.0  0.7250789695325822  0.37218337858367795  0.4423105060962129  1.0000
  N   N3        1.0  0.2749245115988544  0.872184043385907  0.4423104531076802  1.0000
  N   N4        1.0  0.7250745404095158  0.1278157576531029  0.9423101107892646  1.0000
  N   N5        1.0  0.4253062879316902  0.6331231767509777  0.797566120992492  1.0000
  N   N6        1.0  0.5746959318374041  0.36687670649961024  0.2975666075088625  1.0000
  N   N7        1.0  0.4253029462771212  0.8668764363029169  0.2975658635554978  1.0000
  N   N8        1.0  0.5746966578133983  0.13312344694960387  0.7975655549219806  1.0000
  N   N9        1.0  0.23481034361400088  0.8003057252680961  0.7566704279151608  1.0000
  N   N10       1.0  0.7651894164509161  0.1996949365215031  0.2566715953202916  1.0000
  N   N11       1.0  0.23480678869611898  0.6996933833279827  0.2566722069347803  1.0000
  N   N12       1.0  0.7651955870515509  0.30030652315021206  0.7566717813368056  1.0000
  N   N13       1.0  0.08214311350838704  0.7983419523581359  0.9678692713724073  1.0000
  N   N14       1.0  0.917858456704366  0.20165632354334653  0.467869746427219  1.0000
  N   N15       1.0  0.08214737741504763  0.7016572186960417  0.46787039454006407  1.0000
  N   N16       1.0  0.9178515771032782  0.2983425678252019  0.9678699332837508  1.0000
  O   O1        1.0  0.37878809979176264  0.7908733576682039  0.6835291421647084  1.0000
  O   O2        1.0  0.6212119392539536  0.20912659035582948  0.18352968495047856  1.0000
  O   O3        1.0  0.37877917798263655  0.7091241098176795  0.1835296071316321  1.0000
  O   O4        1.0  0.6212234767387205  0.29087659351407785  0.6835292199830858  1.0000
  O   O5        1.0  0.03233254320853262  0.8711576284786702  0.7751502932160648  1.0000
  O   O6        1.0  0.9676645306922756  0.1288430228164898  0.2751501324569076  1.0000
  O   O7        1.0  0.0323273907463104  0.6288424668717952  0.2751521025035187  1.0000
  O   O8        1.0  0.967672298833499  0.37115742911139893  0.7751522532418702  1.0000
  O   O9        1.0  0.16473262875194195  0.8875945392803146  0.9538788391024722  1.0000
  O   O10       1.0  0.8352663791375082  0.1124044998786147  0.4538787170193927  1.0000
  O   O11       1.0  0.16473555954033978  0.6124045410349622  0.4538800003989039  1.0000
  O   O12       1.0  0.8352608326576106  0.38759525343407114  0.9538801757714805  1.0000
  O   O13       1.0  0.8952374039367686  0.7710750673897805  0.031214329660244292  1.0000
  O   O14       1.0  0.10476060037910884  0.22892572245847018  0.5312147474642399  1.0000
  O   O15       1.0  0.8952393689192707  0.7289248907353924  0.5312152011831869  1.0000
  O   O16       1.0  0.10476125108853304  0.2710743884927282  0.031213875941304495  1.0000
  O   O17       1.0  0.33086367799381844  0.0630377343419042  0.6370430949906518  1.0000
  O   O18       1.0  0.6691365383600072  0.9369622400860251  0.1370426603759967  1.0000
  O   O19       1.0  0.33086979191504196  0.43696431225340854  0.13704346262367295  1.0000
  O   O20       1.0  0.6691304244362827  0.5630356621741583  0.6370436027671571  1.0000
