data_image0
_chemical_formula_structural       Li2Tb2H16C32O16
_chemical_formula_sum              "Li2 Tb2 H16 C32 O16"
_cell_length_a       6.724258323135348
_cell_length_b       9.809532386991593
_cell_length_c       14.042496304965848
_cell_angle_alpha    106.30193124419291
_cell_angle_beta     97.96854750182996
_cell_angle_gamma    106.71845313236273

_space_group_name_H-M_alt    "P 1"
_space_group_IT_number       1

loop_
  _space_group_symop_operation_xyz
  'x, y, z'

loop_
  _atom_site_type_symbol
  _atom_site_label
  _atom_site_symmetry_multiplicity
  _atom_site_fract_x
  _atom_site_fract_y
  _atom_site_fract_z
  _atom_site_occupancy
  Li  Li1       1.0  0.8408165166884417  0.0902209830314007  0.1811283358058446  1.0000
  Li  Li2       1.0  0.15918472181883928  0.9097763525755271  0.8188705028373278  1.0000
  Tb  Tb1       1.0  0.33307243551573856  0.0825704010007229  0.1654303947796762  1.0000
  Tb  Tb2       1.0  0.6669286492095947  0.9174326170332064  0.8345688394958728  1.0000
  H   H1        1.0  0.25688013113742153  0.4728128857468974  0.20632881838756845  1.0000
  H   H2        1.0  0.44985377954024125  0.7332708001833056  0.20618971096025268  1.0000
  H   H3        1.0  0.7431144069437963  0.5271890584783137  0.7936697819838301  1.0000
  H   H4        1.0  0.5501467309153938  0.26673108647931804  0.793808551575033  1.0000
  H   H5        1.0  0.08268388705155874  0.31059231082788596  0.8778193399062033  1.0000
  H   H6        1.0  0.294625425009592  0.5664475987603625  0.8777275873571142  1.0000
  H   H7        1.0  0.9173140042383209  0.6894073293351681  0.12217973590777836  1.0000
  H   H8        1.0  0.705364401079727  0.4335509798852327  0.1222679104048581  1.0000
  H   H9        1.0  0.6392008303515907  0.5221237769691385  0.4869794663443088  1.0000
  H   H10       1.0  0.3483867728177756  0.9655745115850609  0.4874917666691232  1.0000
  H   H11       1.0  0.36081480376522274  0.477872286570843  0.5130221879553147  1.0000
  H   H12       1.0  0.6516055340885387  0.0344229125886386  0.5125107854884376  1.0000
  H   H13       1.0  0.07520024370390394  0.32457797615212775  0.35475985546271727  1.0000
  H   H14       1.0  0.7796538295340554  0.029343277853982396  0.35444848440079824  1.0000
  H   H15       1.0  0.9248153964041705  0.6754180878818303  0.6452425114502915  1.0000
  H   H16       1.0  0.22033434564130525  0.9706519126053762  0.645552649500985  1.0000
  C   C1        1.0  0.2632026459684695  0.4952683721846682  0.13482997612347702  1.0000
  C   C2        1.0  0.37184191602002414  0.6392051510824716  0.13475790869560464  1.0000
  C   C3        1.0  0.7367960178524486  0.5047358052609071  0.8651693298903141  1.0000
  C   C4        1.0  0.6281546789397866  0.36079790925894883  0.8652403318836052  1.0000
  C   C5        1.0  0.034746920631590704  0.2230102450721461  0.039584119110053016  1.0000
  C   C6        1.0  0.5045329366755453  0.816006638605657  0.03929471320356011  1.0000
  C   C7        1.0  0.965255324615633  0.7769950366923482  0.9604184838727933  1.0000
  C   C8        1.0  0.4954535841351912  0.1839942480538852  0.9607060100229036  1.0000
  C   C9        1.0  0.1664512318074998  0.4032552021267009  0.9491367633952024  1.0000
  C   C10       1.0  0.2823927822242069  0.5452518734069471  0.9490926188417037  1.0000
  C   C11       1.0  0.833548710369712  0.5967455536585861  0.05086124001320514  1.0000
  C   C12       1.0  0.7176011755960658  0.45474893895297447  0.05090429717604652  1.0000
  C   C13       1.0  0.15776686171755466  0.3771689067730435  0.04179597043997773  1.0000
  C   C14       1.0  0.3839425921618301  0.6641084340089806  0.04167868121839294  1.0000
  C   C15       1.0  0.8422312098599037  0.6228341378192964  0.9582002259933945  1.0000
  C   C16       1.0  0.6160483764756107  0.3358924068852573  0.958318047410721  1.0000
  C   C17       1.0  0.8381095510240328  0.41301322758149445  0.41156832800756155  1.0000
  C   C18       1.0  0.07386741509726835  0.9984592810816222  0.41160945462938514  1.0000
  C   C19       1.0  0.1619025196402576  0.5869817331214904  0.5884321671631626  1.0000
  C   C20       1.0  0.9261269486876387  0.0015392592082789963  0.5883927377359938  1.0000
  C   C21       1.0  0.663095272253706  0.3148836651205542  0.3193670098890848  1.0000
  C   C22       1.0  0.15680190488082957  0.004224583374167401  0.3194096682975101  1.0000
  C   C23       1.0  0.3369187134897375  0.6851180951135876  0.6806349463486043  1.0000
  C   C24       1.0  0.8431965966262921  0.9957761911240435  0.6805946549370319  1.0000
  C   C25       1.0  0.7972770679417424  0.512685358661301  0.4934351677527929  1.0000
  C   C26       1.0  0.1965184384009006  0.9811766496207069  0.4936879631966491  1.0000
  C   C27       1.0  0.20273949847931771  0.48730956022816957  0.5065670337276558  1.0000
  C   C28       1.0  0.8034717996443064  0.018819657448837304  0.5063135235263374  1.0000
  C   C29       1.0  0.042387546412925345  0.4011603528102158  0.41834324380944576  1.0000
  C   C30       1.0  0.8760574698519434  0.016691681720921305  0.41817352467858626  1.0000
  C   C31       1.0  0.9576307248434263  0.5988379587112577  0.5816597350516446  1.0000
  C   C32       1.0  0.12393518310641151  0.9833034654430011  0.5818271776927659  1.0000
  O   O1        1.0  0.06870741766935143  0.18732116476988384  0.12020688418500211  1.0000
  O   O2        1.0  0.5520128077862907  0.9323338174173298  0.12005574529108999  1.0000
  O   O3        1.0  0.9312972245172448  0.8126829556070733  0.8797927966060614  1.0000
  O   O4        1.0  0.4479701196156185  0.0676659639353403  0.8799402557395483  1.0000
  O   O5        1.0  0.8991655390641426  0.1328638093634567  0.9580425645376565  1.0000
  O   O6        1.0  0.5574968060736296  0.8245573444298984  0.9575384159237857  1.0000
  O   O7        1.0  0.10082508951251168  0.8671393090345206  0.041956726491051255  1.0000
  O   O8        1.0  0.44249564517270557  0.17544348120922848  0.042456981172883004  1.0000
  O   O9        1.0  0.7038877250775711  0.21908147171262735  0.24764535081477132  1.0000
  O   O10       1.0  0.044074657973190795  0.027668547457388105  0.247455886456514  1.0000
  O   O11       1.0  0.2961217409440664  0.7809203283591303  0.7523520486596595  1.0000
  O   O12       1.0  0.9559219429778808  0.9723345133780086  0.752543066736081  1.0000
  O   O13       1.0  0.4742929155180348  0.3191359146587375  0.3110816507307633  1.0000
  O   O14       1.0  0.3376152492811428  0.9920792102008135  0.3112946247050843  1.0000
  O   O15       1.0  0.5257193833638993  0.6808624544253234  0.6889216659664328  1.0000
  O   O16       1.0  0.662387570235765  0.007927202934993704  0.6887089500180255  1.0000
