data_image0
_chemical_formula_structural       Co2H24C28N8Cl8O12
_chemical_formula_sum              "Co2 H24 C28 N8 Cl8 O12"
_cell_length_a       10.57429148490208
_cell_length_b       10.722092024146656
_cell_length_c       10.719845821333632
_cell_angle_alpha    67.74509813666373
_cell_angle_beta     67.03605603774287
_cell_angle_gamma    67.03151227413102

_space_group_name_H-M_alt    "P 1"
_space_group_IT_number       1

loop_
  _space_group_symop_operation_xyz
  'x, y, z'

loop_
  _atom_site_type_symbol
  _atom_site_label
  _atom_site_symmetry_multiplicity
  _atom_site_fract_x
  _atom_site_fract_y
  _atom_site_fract_z
  _atom_site_occupancy
  Co  Co1       1.0  0.5000009906989503  0.9999971834140525  1.3834991249198252e-06  1.0000
  Co  Co2       1.0  0.9999980918541382  1.8985967357924908e-06  0.9999983871450838  1.0000
  H   H1        1.0  0.3433752554455222  0.8933242116670856  0.9385038450694053  1.0000
  H   H2        1.0  0.15662143384502508  0.06149270249782289  0.1065550095487637  1.0000
  H   H3        1.0  0.656621357738416  0.1066786873808212  0.06149732573810941  1.0000
  H   H4        1.0  0.8433760984170036  0.9385038871762318  0.8934492138855532  1.0000
  H   H5        1.0  0.4822801338487111  0.9352056235022984  0.8049953729922378  1.0000
  H   H6        1.0  0.01773955510405759  0.1949714156643836  0.0647014715522545  1.0000
  H   H7        1.0  0.5177231780890706  0.06478897340183211  0.19500918884963164  1.0000
  H   H8        1.0  0.9822617884856086  0.8050294479965389  0.9352986083300934  1.0000
  H   H9        1.0  0.45019055388556223  0.1873981311092692  0.6980053166535356  1.0000
  H   H10       1.0  0.04981992583459056  0.30202409224616394  0.8126234090668376  1.0000
  H   H11       1.0  0.5498174338844206  0.8125943784361951  0.3019944643775999  1.0000
  H   H12       1.0  0.950177306236007  0.6979797964313549  0.1873715255447054  1.0000
  H   H13       1.0  0.2848530705725735  0.4670742045227101  0.6717643632813335  1.0000
  H   H14       1.0  0.21514903924985862  0.32827362749006983  0.53291059537721  1.0000
  H   H15       1.0  0.7151586429640205  0.532919383524785  0.3282307021377943  1.0000
  H   H16       1.0  0.7848518566123062  0.6717250526631772  0.4670858592733679  1.0000
  H   H17       1.0  0.21649070526363798  0.5049404128954719  0.9153279037697502  1.0000
  H   H18       1.0  0.28351756587255034  0.08475338129701979  0.4950152522862935  1.0000
  H   H19       1.0  0.7835169649707865  0.495056265133222  0.08466662873552626  1.0000
  H   H20       1.0  0.7164843346287383  0.9152421849672122  0.5049848270511318  1.0000
  H   H21       1.0  0.31997585368715414  0.2794573560912426  0.08635403897837078  1.0000
  H   H22       1.0  0.1800617800537906  0.9137582724214184  0.7205160679389307  1.0000
  H   H23       1.0  0.6800261050884087  0.7205413796719854  0.9136447674763134  1.0000
  H   H24       1.0  0.8199378408056716  0.0862415070211426  0.27948512892111677  1.0000
  C   C1        1.0  0.2756466584306025  0.020436235214056398  0.2940673899266386  1.0000
  C   C2        1.0  0.22434519453523893  0.7059040119903699  0.9795969352163353  1.0000
  C   C3        1.0  0.7243512806287952  0.9795624989889121  0.7059376913252745  1.0000
  C   C4        1.0  0.7756517708725498  0.29410097961475407  0.020401403523209044  1.0000
  C   C5        1.0  0.1314707320948898  0.010849384675800898  0.39888692594696806  1.0000
  C   C6        1.0  0.36852288639797587  0.6011039370534731  0.9891561691453391  1.0000
  C   C7        1.0  0.868527654692002  0.9891515330348425  0.6011217805367153  1.0000
  C   C8        1.0  0.6314724145538904  0.3989031398322922  0.010842013689156656  1.0000
  C   C9        1.0  0.11493943846232912  0.8793075876697574  0.48624859782939445  1.0000
  C   C10       1.0  0.38506021457948236  0.5137269141720253  0.12071789924112147  1.0000
  C   C11       1.0  0.8850569043580376  0.1206932967784553  0.5137609398744304  1.0000
  C   C12       1.0  0.6149367371849265  0.48627806444018523  0.8792795170270296  1.0000
  C   C13       1.0  0.9839568737144827  0.868445625311729  0.5871923016529266  1.0000
  C   C14       1.0  0.5160502142660232  0.4128008372459179  0.1315677967937177  1.0000
  C   C15       1.0  0.01604083961223778  0.1315542507976133  0.412818951141169  1.0000
  C   C16       1.0  0.48394847387196893  0.5872052385775746  0.868429424968134  1.0000
  C   C17       1.0  0.39958238651793454  0.24805236837926264  0.7744086635646568  1.0000
  C   C18       1.0  0.10045532686583405  0.22562762561952351  0.7519652662514319  1.0000
  C   C19       1.0  0.6004228428951986  0.7519390273237078  0.22559172758285928  1.0000
  C   C20       1.0  0.8995412044578329  0.7743751954708459  0.24803036972772913  1.0000
  C   C21       1.0  0.3179577326768451  0.3859928532135656  0.760059718202939  1.0000
  C   C22       1.0  0.18206242474453657  0.23998549646465514  0.6139983842958968  1.0000
  C   C23       1.0  0.682051294420553  0.614002803483352  0.23993560692121446  1.0000
  C   C24       1.0  0.8179381635246729  0.7600142476374359  0.38599870706851636  1.0000
  C   C25       1.0  0.3329659236682261  0.2902878910573605  0.9779701795721678  1.0000
  C   C26       1.0  0.1670673871507589  0.022116261772751503  0.7097008696635427  1.0000
  C   C27       1.0  0.667038079073869  0.7097108779682983  0.022027795662374453  1.0000
  C   C28       1.0  0.8329315639492874  0.977885593595815  0.29029791073860883  1.0000
  N   N1        1.0  0.4081754950220854  0.1893141598771848  0.9110298063479901  1.0000
  N   N2        1.0  0.09188063851482298  0.089029012511439  0.8107052354541366  1.0000
  N   N3        1.0  0.5918271335129006  0.8106824999600377  0.0889714165645826  1.0000
  N   N4        1.0  0.9081169420788626  0.9109738511959973  0.18929182985774404  1.0000
  N   N5        1.0  0.2761015966740245  0.4100360208101677  0.8896499234329767  1.0000
  N   N6        1.0  0.22392790701723442  0.11042399950915181  0.5899411148215208  1.0000
  N   N7        1.0  0.7239057796108241  0.5899617341602975  0.11034616825752849  1.0000
  N   N8        1.0  0.776072722182114  0.8895757835717006  0.410058743957059  1.0000
  Cl  Cl1       1.0  0.2584977103468943  0.7321240235235394  0.46844419689709577  1.0000
  Cl  Cl2       1.0  0.24149550538070486  0.5315043757640723  0.26792286681840943  1.0000
  Cl  Cl3       1.0  0.7414979044397754  0.2678757673516828  0.5315641972315743  1.0000
  Cl  Cl4       1.0  0.7585007319933862  0.4684995222680683  0.7320743283459806  1.0000
  Cl  Cl5       1.0  0.9633741991977443  0.7062559144586513  0.6938727368833001  1.0000
  Cl  Cl6       1.0  0.5366478779197834  0.3060926203603813  0.29377722239894405  1.0000
  Cl  Cl7       1.0  0.03662242392881148  0.293743880054862  0.30613431916390976  1.0000
  Cl  Cl8       1.0  0.4633467086417652  0.6939133759453142  0.7062207393317905  1.0000
  O   O1        1.0  0.29760235011221425  0.0075206785957604  0.17402044145821094  1.0000
  O   O2        1.0  0.20242866491797423  0.8259389092942014  0.9924647727492514  1.0000
  O   O3        1.0  0.7023941738099211  0.9924759074400028  0.8259851200575665  1.0000
  O   O4        1.0  0.7975652245973991  0.1740691369516654  0.0075289275808075205  1.0000
  O   O5        1.0  0.3625669829573681  0.038685132088310994  0.3359539618251333  1.0000
  O   O6        1.0  0.1373850349017544  0.664006930261614  0.9614325159502355  1.0000
  O   O7        1.0  0.6374355699591945  0.9613052277296884  0.6640525742671032  1.0000
  O   O8        1.0  0.8626108502484867  0.33599487521330224  0.03856751128211745  1.0000
  O   O9        1.0  0.43324033848973903  0.9202211524560366  0.9068654455376047  1.0000
  O   O10       1.0  0.06645445922536199  0.09302563813364631  0.08019571982674016  1.0000
  O   O11       1.0  0.5667589165024864  0.0797765214363793  0.0931376609190124  1.0000
  O   O12       1.0  0.9335488464705646  0.9069751808321841  0.9197979940071264  1.0000
