data_image0
_chemical_formula_structural       Zn2H38C56I6N2O14
_chemical_formula_sum              "Zn2 H38 C56 I6 N2 O14"
_cell_length_a       14.14420319918169
_cell_length_b       15.357938210099181
_cell_length_c       15.214705883548081
_cell_angle_alpha    81.57793618016115
_cell_angle_beta     88.61150756741593
_cell_angle_gamma    77.21997185992008

_space_group_name_H-M_alt    "P 1"
_space_group_IT_number       1

loop_
  _space_group_symop_operation_xyz
  'x, y, z'

loop_
  _atom_site_type_symbol
  _atom_site_label
  _atom_site_symmetry_multiplicity
  _atom_site_fract_x
  _atom_site_fract_y
  _atom_site_fract_z
  _atom_site_occupancy
  Zn  Zn1       1.0  0.4813453116474876  0.601567775470791  0.525034626322828  1.0000
  Zn  Zn2       1.0  0.5154886621077209  0.40470105030531295  0.4726190758663122  1.0000
  H   H1        1.0  0.5368192246978793  0.7264298629050073  0.9366303758819542  1.0000
  H   H2        1.0  0.4455512663288062  0.2791207876516993  0.057484687312736996  1.0000
  H   H3        1.0  0.5587114059831964  0.8870187393586804  0.3740938674554002  1.0000
  H   H4        1.0  0.4441691517335187  0.1184220797003519  0.6221932149176297  1.0000
  H   H5        1.0  0.4683712110512632  0.5301782575456072  0.7678406208506487  1.0000
  H   H6        1.0  0.5083314313712748  0.4757461299771252  0.22569149760754928  1.0000
  H   H7        1.0  0.5057893144344449  0.2501869691559265  0.7493804489640397  1.0000
  H   H8        1.0  0.49017845289080253  0.7526999947123513  0.24607558425501003  1.0000
  H   H9        1.0  0.5847657538338353  0.8996367759434634  0.23265142372678582  1.0000
  H   H10       1.0  0.6925805426583836  0.868764929772979  0.2993127144978942  1.0000
  H   H11       1.0  0.7828047373675844  0.9393938874048687  0.17351566946199168  1.0000
  H   H12       1.0  0.7297444589041008  0.8548521416175063  0.13873238962487733  1.0000
  H   H13       1.0  0.6746373248358492  0.9707468324695441  0.1075151634685483  1.0000
  H   H14       1.0  0.3096478520247389  0.13474192395952403  0.7011325128680496  1.0000
  H   H15       1.0  0.4182600905216844  0.103515554268462  0.7668342416966141  1.0000
  H   H16       1.0  0.33073961872007374  0.027492504384810004  0.8906828491478861  1.0000
  H   H17       1.0  0.27373137325491115  0.1434951612864097  0.8634166122193889  1.0000
  H   H18       1.0  0.2219424233220906  0.059485863473817284  0.8257361646653434  1.0000
  H   H19       1.0  0.2324006511165706  0.7016148668756088  0.5825731027852399  1.0000
  H   H20       1.0  0.21841408305682836  0.7570846992427318  0.6801003134765011  1.0000
  H   H21       1.0  0.24312727103693993  0.6062735218593218  0.7764981170108243  1.0000
  H   H22       1.0  0.14567211119485537  0.6186343861951257  0.7002133283474095  1.0000
  H   H23       1.0  0.26164911050801004  0.5513677865268888  0.679967752066311  1.0000
  H   H24       1.0  0.6928667203715052  0.42050751769055955  0.27195199489257493  1.0000
  H   H25       1.0  0.6757389421167517  0.3309363837411894  0.2165086436799015  1.0000
  H   H26       1.0  0.818319185416712  0.22704815468443937  0.3016689816179436  1.0000
  H   H27       1.0  0.8528002827930196  0.3244875421705943  0.24387516572834758  1.0000
  H   H28       1.0  0.8311702783392292  0.31701829114939534  0.3602606007072993  1.0000
  H   H29       1.0  0.5823553124005159  0.2569705962375792  0.17198090141566513  1.0000
  H   H30       1.0  0.5881473418006068  0.1402067721633671  0.16925427540052598  1.0000
  H   H31       1.0  0.7602082521922142  0.12130548995566673  0.11525523285982328  1.0000
  H   H32       1.0  0.6792623633131782  0.20336273452540607  0.041347730520882905  1.0000
  H   H33       1.0  0.753968920348278  0.23831463274643036  0.11582946597803809  1.0000
  H   H34       1.0  0.40423308957428356  0.8359896934839739  0.8328975435181576  1.0000
  H   H35       1.0  0.38853508114122814  0.7301509841856416  0.8067994505593957  1.0000
  H   H36       1.0  0.21493132219077898  0.7666401307957144  0.8550478330815068  1.0000
  H   H37       1.0  0.2942407120990964  0.7713286357849826  0.9426540148109196  1.0000
  H   H38       1.0  0.2295114646728748  0.8730483871790754  0.879511036298993  1.0000
  C   C1        1.0  0.5136961043411645  0.5829936608891727  0.341854887640892  1.0000
  C   C2        1.0  0.47858503915286843  0.4190567208243366  0.652387132933306  1.0000
  C   C3        1.0  0.4888364507599476  0.5633618901325903  0.09854886650825992  1.0000
  C   C4        1.0  0.4911075433033716  0.44305046176717167  0.8955734543124122  1.0000
  C   C5        1.0  0.494576956275452  0.6519617379215249  0.05692771940112351  1.0000
  C   C6        1.0  0.4879477320856154  0.3539336019444121  0.9374899583023222  1.0000
  C   C7        1.0  0.4795651419371509  0.49602207421880007  0.043621124872210315  1.0000
  C   C8        1.0  0.4989332084337477  0.510858950400312  0.950380341297368  1.0000
  C   C9        1.0  0.5278536979064868  0.5937508351291426  0.916121484614635  1.0000
  C   C10       1.0  0.4516916763842503  0.41259850751583127  0.0777906215892017  1.0000
  C   C11       1.0  0.5176360169628254  0.6634276498009442  0.9653289601302076  1.0000
  C   C12       1.0  0.463642634632329  0.34263932596129365  0.028807791829478912  1.0000
  C   C13       1.0  0.6144233546168819  0.17747646503563885  0.3336840060969948  1.0000
  C   C14       1.0  0.3781627432690089  0.8325231745509428  0.6577984597050062  1.0000
  C   C15       1.0  0.5952781342665859  0.2591601165374939  0.368551960950576  1.0000
  C   C16       1.0  0.39891877988812036  0.7493293546938133  0.6262231688079467  1.0000
  C   C17       1.0  0.4783096822834522  0.2131304581956428  0.4639926450010918  1.0000
  C   C18       1.0  0.5177413929502279  0.792410213670493  0.5318996628837525  1.0000
  C   C19       1.0  0.5118840240498628  0.12121015762398459  0.45249746738829794  1.0000
  C   C20       1.0  0.4843868372507032  0.8850045491015663  0.5413030658472734  1.0000
  C   C21       1.0  0.5734144005251949  0.10613551159033821  0.37684968700492766  1.0000
  C   C22       1.0  0.4217020802426462  0.9021537611323038  0.6157520434892305  1.0000
  C   C23       1.0  0.6799003179471369  0.47452520584761265  0.5314333154302133  1.0000
  C   C24       1.0  0.3145235576023424  0.5377665719080228  0.47323999147268125  1.0000
  C   C25       1.0  0.4874044879223121  0.04631707660429641  0.5104257418206615  1.0000
  C   C26       1.0  0.5100434697939492  0.9598199448054033  0.48387570187518486  1.0000
  C   C27       1.0  0.5525206969447752  0.9503677078062721  0.39941386845511323  1.0000
  C   C28       1.0  0.4471016131438574  0.05604485406476561  0.5958237990959103  1.0000
  C   C29       1.0  0.5875763895571778  0.018155386391129  0.348975698549097  1.0000
  C   C30       1.0  0.4116040324063023  0.9884941104764948  0.6460338360314778  1.0000
  C   C31       1.0  0.7815259127573029  0.4774592229519499  0.5302082832351687  1.0000
  C   C32       1.0  0.21250365396820572  0.5367400401442737  0.4803186730918299  1.0000
  C   C33       1.0  0.8647424760942711  0.488975479728012  0.523073305350799  1.0000
  C   C34       1.0  0.12878620892891487  0.5274812701810491  0.49132594656682466  1.0000
  C   C35       1.0  0.9552213846182128  0.5022429521933276  0.5137329530030781  1.0000
  C   C36       1.0  0.03798645370515889  0.5155346494299593  0.5031790915073984  1.0000
  C   C37       1.0  0.5023321276036157  0.6105971544455999  0.24322136862360108  1.0000
  C   C38       1.0  0.4850929564194074  0.393421175027605  0.7513217228337723  1.0000
  C   C39       1.0  0.4906001609495689  0.7203757989305899  0.11192055841753762  1.0000
  C   C40       1.0  0.49662735415986964  0.2844025599531435  0.8831823512249527  1.0000
  C   C41       1.0  0.49288862496172214  0.7010432554130972  0.20348850361403953  1.0000
  C   C42       1.0  0.49787873371024455  0.3027754282380144  0.7916202487269641  1.0000
  C   C43       1.0  0.4995134732617927  0.5441241667454478  0.19138572457058703  1.0000
  C   C44       1.0  0.4814087101884539  0.46161871117872993  0.8025809193886815  1.0000
  C   C45       1.0  0.6539912800470731  0.9180749846164887  0.2447363581144444  1.0000
  C   C46       1.0  0.7139510455605277  0.9213041781810103  0.16119607780795772  1.0000
  C   C47       1.0  0.34931185409568144  0.0846708381560362  0.7545959927579062  1.0000
  C   C48       1.0  0.29029518679466554  0.07823038814397879  0.8385612945409305  1.0000
  C   C49       1.0  0.2512340630182451  0.694889954559265  0.6532444215584902  1.0000
  C   C50       1.0  0.2242031559834032  0.612770332473616  0.7058578415359945  1.0000
  C   C51       1.0  0.7026531120858621  0.34693813430254045  0.2778352634927543  1.0000
  C   C52       1.0  0.8074837575954846  0.30039013829600236  0.2978068233130173  1.0000
  C   C53       1.0  0.631705601413863  0.18987149890715926  0.1766585450762932  1.0000
  C   C54       1.0  0.7111794077276485  0.1882096446207555  0.1084150338193766  1.0000
  C   C55       1.0  0.351093899074634  0.8000047261431009  0.8122468328002554  1.0000
  C   C56       1.0  0.26720280798514306  0.8030617055473641  0.8758662496901977  1.0000
  I   I1        1.0  0.4816733336447285  0.8560213394273148  0.05375788178625382  1.0000
  I   I2        1.0  0.5081165721544352  0.14862556856545686  0.9422026904999328  1.0000
  I   I3        1.0  0.6075129552698755  0.6135788408709004  0.7970626937645662  1.0000
  I   I4        1.0  0.37330130035066134  0.3903471463519708  0.1973152504372848  1.0000
  I   I5        1.0  0.6586259603030626  0.744157180665951  0.4835434392860805  1.0000
  I   I6        1.0  0.33779286075261433  0.2605984824369115  0.5134530460295963  1.0000
  N   N1        1.0  0.522579801084305  0.27752482870091194  0.4281384615048934  1.0000
  N   N2        1.0  0.4723244197120522  0.7285082416105197  0.5683738483752021  1.0000
  O   O1        1.0  0.5025603554162219  0.6442902148059063  0.39156882051191383  1.0000
  O   O2        1.0  0.49931713725456456  0.3561947033558965  0.6042545863650375  1.0000
  O   O3        1.0  0.5337018760942698  0.4985116788295585  0.36723648031040307  1.0000
  O   O4        1.0  0.45324104090824585  0.5027837373365713  0.6244801144602333  1.0000
  O   O5        1.0  0.6235997773815427  0.5438894841237953  0.5553209920095412  1.0000
  O   O6        1.0  0.36856293236181875  0.4652775271953971  0.45452367028896395  1.0000
  O   O7        1.0  0.6579383595184184  0.40586406069501624  0.5075794868865486  1.0000
  O   O8        1.0  0.3389725571991846  0.6093223412926962  0.4877093547696559  1.0000
  O   O9        1.0  0.6344544146369699  0.006905292369417301  0.27090247746332347  1.0000
  O   O10       1.0  0.36941632862235  0.9968002221188074  0.7263685591518723  1.0000
  O   O11       1.0  0.3572819729929719  0.6805065340620402  0.6583988246003044  1.0000
  O   O12       1.0  0.6381339215314696  0.3288789813167626  0.3503829609383686  1.0000
  O   O13       1.0  0.6773046742848692  0.1679591538042757  0.2640539824184955  1.0000
  O   O14       1.0  0.31324883529730835  0.8448652420799191  0.7252836356264111  1.0000
