data_image0
_chemical_formula_structural       Cd2H20C20N12Cl4O8
_chemical_formula_sum              "Cd2 H20 C20 N12 Cl4 O8"
_cell_length_a       3.7183899157370126
_cell_length_b       13.172826286088792
_cell_length_c       15.38951972230305
_cell_angle_alpha    90.00204605274557
_cell_angle_beta     90.00448944667195
_cell_angle_gamma    89.99970717352889

_space_group_name_H-M_alt    "P 1"
_space_group_IT_number       1

loop_
  _space_group_symop_operation_xyz
  'x, y, z'

loop_
  _atom_site_type_symbol
  _atom_site_label
  _atom_site_symmetry_multiplicity
  _atom_site_fract_x
  _atom_site_fract_y
  _atom_site_fract_z
  _atom_site_occupancy
  Cd  Cd1       1.0  0.9230648984520614  1.2572330426499981e-05  0.9999978934473293  1.0000
  Cd  Cd2       1.0  0.07693622660992362  0.5000120532064899  0.5000011279748762  1.0000
  H   H1        1.0  0.7615250073192215  0.22906803947618218  0.9958527175733921  1.0000
  H   H2        1.0  0.7614991826084035  0.7709522565857443  0.0041611550686156  1.0000
  H   H3        1.0  0.23849189626897535  0.7290648063903762  0.5041593006472596  1.0000
  H   H4        1.0  0.2385042787224876  0.27095081014405054  0.49582440663301247  1.0000
  H   H5        1.0  0.9196304079787511  0.34456533902130804  0.036010718850768314  1.0000
  H   H6        1.0  0.9196005370448007  0.655451040082731  0.9640170330526632  1.0000
  H   H7        1.0  0.08037822651860443  0.8445582211450002  0.46401373627683995  1.0000
  H   H8        1.0  0.08041119461547198  0.15544916582906146  0.5359645383599982  1.0000
  H   H9        1.0  0.007782719828007602  0.9923539039596464  0.20008925809686676  1.0000
  H   H10       1.0  0.007715325773290302  0.007645535933875201  0.7999130562951394  1.0000
  H   H11       1.0  0.9922120590164668  0.49234707710319736  0.2999129800455478  1.0000
  H   H12       1.0  0.9922376471578788  0.5076521981065342  0.7000796835521756  1.0000
  H   H13       1.0  0.43463764298498836  0.2699761840638004  0.30751483854545114  1.0000
  H   H14       1.0  0.43448524854007087  0.7300125289560101  0.6925146169422762  1.0000
  H   H15       1.0  0.5653899948219206  0.769967544911687  0.19250245205236644  1.0000
  H   H16       1.0  0.5655451293131365  0.23001588669132642  0.8074721670299712  1.0000
  H   H17       1.0  0.2579343248587733  0.3576901751782414  0.1700422068808862  1.0000
  H   H18       1.0  0.2578367044544194  0.6423078716804582  0.829986032714146  1.0000
  H   H19       1.0  0.7420881971891974  0.8576919870074637  0.3299765905314729  1.0000
  H   H20       1.0  0.7422095467272172  0.14230868062174554  0.6699979464617699  1.0000
  C   C1        1.0  0.0235278984561589  0.22168179566521934  0.11339644424219841  1.0000
  C   C2        1.0  0.023470343157640603  0.7783274247832991  0.88662239774731  1.0000
  C   C3        1.0  0.9764819781721387  0.7216805335107849  0.3866205646258862  1.0000
  C   C4        1.0  0.9765213205841337  0.27832793913257353  0.6133646700330646  1.0000
  C   C5        1.0  0.21746127031663323  0.1253328314001578  0.2644052251694973  1.0000
  C   C6        1.0  0.21735805209911527  0.8746586090356988  0.735607343540764  1.0000
  C   C7        1.0  0.7825130912684274  0.625327495358306  0.23560864721282834  1.0000
  C   C8        1.0  0.7826449212111231  0.3746653554553844  0.7643776602704548  1.0000
  C   C9        1.0  0.05839322504241551  0.07357235669712031  0.19548838116098474  1.0000
  C   C10       1.0  0.05832336137016371  0.9264298380342668  0.8045154900319178  1.0000
  C   C11       1.0  0.9415955290122751  0.5735672851813974  0.30451571895289936  1.0000
  C   C12       1.0  0.9416490830821334  0.4264322717071707  0.6954753881366997  1.0000
  C   C13       1.0  0.2989671810979787  0.2292855628238186  0.2553569900781127  1.0000
  C   C14       1.0  0.29885548914039367  0.7707008689306534  0.7446628868867367  1.0000
  C   C15       1.0  0.701029503989126  0.7292838296365219  0.24465568315955727  1.0000
  C   C16       1.0  0.7011601219556525  0.2707026426600764  0.7553239655291224  1.0000
  C   C17       1.0  0.20157696402926462  0.2774695271846285  0.1800816483405754  1.0000
  C   C18       1.0  0.2014920585997403  0.7225341475508601  0.8199384341162884  1.0000
  C   C19       1.0  0.7984347899837444  0.7774618738846188  0.319935842704723  1.0000
  C   C20       1.0  0.7985299989536402  0.22253544345033305  0.6800449018641076  1.0000
  N   N1        1.0  0.9704695775156794  0.1191875973215915  0.12095360459412062  1.0000
  N   N2        1.0  0.9704236462394462  0.8808133165248578  0.8790627111948413  1.0000
  N   N3        1.0  0.029534159450150806  0.6191853131779795  0.3790569717066036  1.0000
  N   N4        1.0  0.029549952590123496  0.3808185608494057  0.6209288388252292  1.0000
  N   N5        1.0  0.9045832528372346  0.2679286249793763  0.04168607513956601  1.0000
  N   N6        1.0  0.90454326313818  0.7320848016302508  0.9583336093661077  1.0000
  N   N7        1.0  0.095430869600861  0.767928661295734  0.45833163327013443  1.0000
  N   N8        1.0  0.09545222302795513  0.23208243738763204  0.5416534091254377  1.0000
  N   N9        1.0  0.30994653541110767  0.07176344997963471  0.3425347574276643  1.0000
  N   N10       1.0  0.30984531828541156  0.9282221620527481  0.657469721291541  1.0000
  N   N11       1.0  0.6900394680439349  0.5717505463267757  0.15746783736104672  1.0000
  N   N12       1.0  0.690154080390677  0.4282352276289672  0.8425233104890424  1.0000
  Cl  Cl1       1.0  0.4324416362843523  0.8948464370667396  0.07970690531620761  1.0000
  Cl  Cl2       1.0  0.4323810025391382  0.10517948675330763  0.9202932730767304  1.0000
  Cl  Cl3       1.0  0.5675659960968319  0.39484779700174505  0.420288167248188  1.0000
  Cl  Cl4       1.0  0.5676263518043001  0.605177374513744  0.5797105346801317  1.0000
  O   O1        1.0  0.4735227027432032  0.11896186965114451  0.4008110249204791  1.0000
  O   O2        1.0  0.473383853193596  0.8810091670572575  0.5992093795620407  1.0000
  O   O3        1.0  0.5265052302111428  0.6189601125862583  0.09919692684046313  1.0000
  O   O4        1.0  0.5266193348675189  0.38101746229422423  0.9007815433280301  1.0000
  O   O5        1.0  0.22545855071632556  0.9799671998671542  0.3486844866397689  1.0000
  O   O6        1.0  0.22538652312626084  0.020014327562428495  0.6513171786096594  1.0000
  O   O7        1.0  0.7744685785358955  0.4799608135015845  0.1513215436507735  1.0000
  O   O8        1.0  0.7745803131129706  0.520022972017479  0.8486776148481711  1.0000
