data_image0
_chemical_formula_structural       Zn2H36C50N4O16
_chemical_formula_sum              "Zn2 H36 C50 N4 O16"
_cell_length_a       12.626710705059292
_cell_length_b       13.828262956838241
_cell_length_c       23.723462132508086
_cell_angle_alpha    87.32373200941831
_cell_angle_beta     85.74355737942425
_cell_angle_gamma    86.19652128999532

_space_group_name_H-M_alt    "P 1"
_space_group_IT_number       1

loop_
  _space_group_symop_operation_xyz
  'x, y, z'

loop_
  _atom_site_type_symbol
  _atom_site_label
  _atom_site_symmetry_multiplicity
  _atom_site_fract_x
  _atom_site_fract_y
  _atom_site_fract_z
  _atom_site_occupancy
  Zn  Zn1       1.0  0.6091301953604075  0.5077353038948756  0.49508205931253  1.0000
  Zn  Zn2       1.0  0.3929001523246711  0.48898480772973585  0.5058458161588959  1.0000
  H   H1        1.0  0.49621736925026033  0.26676589048570776  0.0657816577403878  1.0000
  H   H2        1.0  0.37930255720599604  0.025680803362042988  0.5036615132512097  1.0000
  H   H3        1.0  0.9887482249792968  0.4138929877530586  0.5460629265389727  1.0000
  H   H4        1.0  0.0135109934474826  0.580426815791739  0.45379793108176614  1.0000
  H   H5        1.0  0.34990687390752845  0.25264010490199235  0.9260573524948866  1.0000
  H   H6        1.0  0.3522847494102805  0.19191059622494322  0.9944766369744612  1.0000
  H   H7        1.0  0.4631546261053643  0.0518747508938375  0.9494185616931502  1.0000
  H   H8        1.0  0.33633732543696493  0.07171617389640517  0.9211321638304781  1.0000
  H   H9        1.0  0.45212604757573166  0.11264591281194918  0.8818461747946316  1.0000
  H   H10       1.0  0.35204686785735373  0.7937403136178955  0.0740331328033221  1.0000
  H   H11       1.0  0.3812509398849002  0.8476343592623292  0.004823493276148796  1.0000
  H   H12       1.0  0.5138995741594315  0.7437688123836637  0.9348016369211649  1.0000
  H   H13       1.0  0.4944756366675521  0.9654931699094788  0.04817156863182249  1.0000
  H   H14       1.0  0.3599803690818462  0.9748478918664175  0.0770152994136808  1.0000
  H   H15       1.0  0.46000607170445557  0.9119962534242205  0.11643811160334391  1.0000
  H   H16       1.0  0.27041112536258527  0.3269767860708157  0.8314188132036691  1.0000
  H   H17       1.0  0.31946474437227584  0.3276587661467615  0.7592744480010579  1.0000
  H   H18       1.0  0.12033962181639171  0.4465402569021747  0.8056426481250156  1.0000
  H   H19       1.0  0.16533750995363763  0.4404981949822114  0.7335465321627126  1.0000
  H   H20       1.0  0.13907050010656263  0.25958368532830167  0.7377179517103869  1.0000
  H   H21       1.0  0.018300194536642812  0.3264291806002077  0.757937145728917  1.0000
  H   H22       1.0  0.09466993489228769  0.2657741632969106  0.8102221248031825  1.0000
  H   H23       1.0  0.34656419080367573  0.4548514690005091  0.6873467413049354  1.0000
  H   H24       1.0  0.1966333187039596  0.5546185214827303  0.16695879327750868  1.0000
  H   H25       1.0  0.29794041606391636  0.6310113179477099  0.18347426183023433  1.0000
  H   H26       1.0  0.11784195983265282  0.5605234525812363  0.2660567212372341  1.0000
  H   H27       1.0  0.2203993702809585  0.63233305591784  0.2842210400318024  1.0000
  H   H28       1.0  0.16101775107025426  0.766129033465006  0.2159621320198895  1.0000
  H   H29       1.0  0.05423607714611482  0.7373758947867086  0.2653853496302574  1.0000
  H   H30       1.0  0.058837578043231496  0.6953850264385223  0.1957048186809445  1.0000
  H   H31       1.0  0.32569533605751383  0.4863850941660812  0.3277642184493743  1.0000
  H   H32       1.0  0.6727987385546045  0.5275512736350548  0.6710749556720614  1.0000
  H   H33       1.0  0.6596218394806571  0.5342815177113351  0.3147480786804095  1.0000
  H   H34       1.0  0.6727558127129569  0.5322019253182759  0.7768847165703718  1.0000
  H   H35       1.0  0.6592886535217204  0.5389417765475598  0.2086816273369863  1.0000
  H   H36       1.0  0.6211064653024962  0.9713782563581714  0.4969836856812933  1.0000
  C   C1        1.0  0.5472751291718438  0.3119708148296707  0.4982554698068  1.0000
  C   C2        1.0  0.5869612778297935  0.5257440396348442  0.2940066150653706  1.0000
  C   C3        1.0  0.6019610024225132  0.5146584987091884  0.7568009589162656  1.0000
  C   C4        1.0  0.5865015176303388  0.5284845181254241  0.23535940558723212  1.0000
  C   C5        1.0  0.5105694254466471  0.49450669009493714  0.7907504733935652  1.0000
  C   C6        1.0  0.49249536928847704  0.5167263036035549  0.2098858267571657  1.0000
  C   C7        1.0  0.44382115965309055  0.7894671683167331  0.5028517249022855  1.0000
  C   C8        1.0  0.5584709231299173  0.2075295886744256  0.49805900980015844  1.0000
  C   C9        1.0  0.45221824902186125  0.9783319887328898  0.5017882324022978  1.0000
  C   C10       1.0  0.5482997432242485  0.0188697530578992  0.4988682087427208  1.0000
  C   C11       1.0  0.5563888729489365  0.11944309184537617  0.4983261425746122  1.0000
  C   C12       1.0  0.456088061828325  0.6850733384068873  0.5025851883316221  1.0000
  C   C13       1.0  0.4446557375428455  0.877662456523211  0.5025060852703831  1.0000
  C   C14       1.0  0.973660122283775  0.5288854768742083  0.4830490802390486  1.0000
  C   C15       1.0  0.02857537813351739  0.4654877589248299  0.5168382797742979  1.0000
  C   C16       1.0  0.5076477296384567  0.49094569461257004  0.6103318080237159  1.0000
  C   C17       1.0  0.49329314428693766  0.5064132180265017  0.3906773661682053  1.0000
  C   C18       1.0  0.14067516864896853  0.46410011205173146  0.5155850069501469  1.0000
  C   C19       1.0  0.8615234352617449  0.530790050388944  0.48451533601042474  1.0000
  C   C20       1.0  0.48476364328799093  0.60442642339315  0.11851939845983138  1.0000
  C   C21       1.0  0.49954556073025463  0.4078569461910888  0.8824164511325988  1.0000
  C   C22       1.0  0.49846028448296653  0.42229199205426227  0.1263638595501817  1.0000
  C   C23       1.0  0.4177519541893773  0.47185346759049906  0.766330975424097  1.0000
  C   C24       1.0  0.5119908521002473  0.5888159387919103  0.8742056049545539  1.0000
  C   C25       1.0  0.49579948209294156  0.4215077970144419  0.06409196579839718  1.0000
  C   C26       1.0  0.505694961010029  0.58981738895271  0.9367651412277028  1.0000
  C   C27       1.0  0.49649068854223805  0.5089386692765956  0.0304436151233531  1.0000
  C   C28       1.0  0.4995645145306753  0.5026322997135962  0.9704404116945256  1.0000
  C   C29       1.0  0.49490847379247077  0.6003343902869531  0.0559549392803191  1.0000
  C   C30       1.0  0.4973831917399138  0.4115391788486562  0.9449450588038532  1.0000
  C   C31       1.0  0.49540038020295907  0.3331786415866772  0.0391330915446986  1.0000
  C   C32       1.0  0.5070748100325349  0.67808419338548  0.9617419589358889  1.0000
  C   C33       1.0  0.49514394800250733  0.326690471022708  0.9800540646389209  1.0000
  C   C34       1.0  0.3972344757952655  0.5028619512338465  0.24289077043574278  1.0000
  C   C35       1.0  0.5015851253114505  0.6848686531285394  0.02096480275740479  1.0000
  C   C36       1.0  0.3953487676572608  0.1994236283566551  0.9523747303003915  1.0000
  C   C37       1.0  0.41326297322710565  0.10313496853058977  0.9244787040673899  1.0000
  C   C38       1.0  0.41092200943158735  0.8339175026265337  0.047293271968776196  1.0000
  C   C39       1.0  0.43311440829283043  0.9270604249094133  0.07381380830582882  1.0000
  C   C40       1.0  0.2731807974232511  0.3709766571296455  0.7914306270675128  1.0000
  C   C41       1.0  0.16129369176353953  0.3984187367271801  0.7741484034573531  1.0000
  C   C42       1.0  0.09986100475151011  0.3077198236912436  0.76966015112788  1.0000
  C   C43       1.0  0.24384750594727225  0.5759825676662585  0.2009629478500159  1.0000
  C   C44       1.0  0.17151199107331655  0.6165532122916414  0.24962201543342394  1.0000
  C   C45       1.0  0.4180064715555006  0.47007098750437837  0.7075393773591757  1.0000
  C   C46       1.0  0.10786415610953531  0.7088038258567264  0.2306431679039704  1.0000
  C   C47       1.0  0.39844828413841793  0.4992561962779546  0.3016794725101377  1.0000
  C   C48       1.0  0.5097641568913432  0.4902079091524385  0.6734739202608182  1.0000
  C   C49       1.0  0.4928333656270638  0.5105765260813014  0.3274112409963408  1.0000
  C   C50       1.0  0.6021779349205049  0.5120330431270047  0.6982569745886879  1.0000
  N   N1        1.0  0.4942464537510106  0.5146332238606703  0.1492013326764905  1.0000
  N   N2        1.0  0.5100493972836732  0.4971853291442229  0.8512622435314441  1.0000
  N   N3        1.0  0.7693624553218614  0.5323766197723643  0.4857983702775143  1.0000
  N   N4        1.0  0.23275146377281428  0.4634430340695486  0.5146830685148984  1.0000
  O   O1        1.0  0.6314100540807318  0.3585135582078891  0.4954798229894806  1.0000
  O   O2        1.0  0.4935804437231113  0.3332522881930089  0.8570426363845344  1.0000
  O   O3        1.0  0.5043887695994442  0.3481199550339439  0.15677859413644063  1.0000
  O   O4        1.0  0.5180546465357311  0.6629903428857916  0.8438009028633715  1.0000
  O   O5        1.0  0.4984740931165703  0.2358312522756733  0.9596697229833068  1.0000
  O   O6        1.0  0.5096828507262644  0.7738826526087049  0.0421013216248696  1.0000
  O   O7        1.0  0.3300802080207106  0.454953480427278  0.8018836609779214  1.0000
  O   O8        1.0  0.3055581864222248  0.4881164274745584  0.2172442065856117  1.0000
  O   O9        1.0  0.3723191034124369  0.6378095046346812  0.5073466125895791  1.0000
  O   O10       1.0  0.4512093610292993  0.347404575612046  0.5013321449747963  1.0000
  O   O11       1.0  0.5522596749526515  0.6503553022540062  0.49743197144227475  1.0000
  O   O12       1.0  0.5959539932827271  0.5001323212158438  0.5814119929555588  1.0000
  O   O13       1.0  0.40403844756977497  0.5002108210875064  0.4190893294112783  1.0000
  O   O14       1.0  0.4178021747572487  0.4829754269443569  0.5902961212441511  1.0000
  O   O15       1.0  0.5834352152285618  0.5095189190635239  0.4112322255241878  1.0000
  O   O16       1.0  0.4675421188737446  0.6796609718700566  0.1442809436778845  1.0000
