data_image0
_chemical_formula_structural       Cu2H24C32N4O8
_chemical_formula_sum              "Cu2 H24 C32 N4 O8"
_cell_length_a       4.864017745742478
_cell_length_b       10.636405208145941
_cell_length_c       15.225008393470224
_cell_angle_alpha    90.00054793389356
_cell_angle_beta     96.85394929101089
_cell_angle_gamma    89.9996890485342

_space_group_name_H-M_alt    "P 1"
_space_group_IT_number       1

loop_
  _space_group_symop_operation_xyz
  'x, y, z'

loop_
  _atom_site_type_symbol
  _atom_site_label
  _atom_site_symmetry_multiplicity
  _atom_site_fract_x
  _atom_site_fract_y
  _atom_site_fract_z
  _atom_site_occupancy
  Cu  Cu1       1.0  0.0016413566713068999  0.0244220576615604  0.9986014233533281  1.0000
  Cu  Cu2       1.0  0.0016540719056479009  0.9755736252874031  0.4986036136388634  1.0000
  H   H1        1.0  0.4639378447184229  0.41969391011201657  0.1449835618108537  1.0000
  H   H2        1.0  0.4639466793593456  0.5803023562311084  0.6449885739426904  1.0000
  H   H3        1.0  0.7516865819151874  0.33925165935296053  0.1094628714485495  1.0000
  H   H4        1.0  0.7517028673765509  0.6607490493152142  0.6094720032123745  1.0000
  H   H5        1.0  0.6349413890073379  0.2997936891083341  0.2122463166163016  1.0000
  H   H6        1.0  0.6349387104927615  0.7002105996798349  0.7122523255121889  1.0000
  H   H7        1.0  0.24454047414018024  0.792186298918715  0.10528979213765409  1.0000
  H   H8        1.0  0.24458186263912302  0.20780150290800486  0.6052936195952013  1.0000
  H   H9        1.0  0.10406260747051728  0.5635246520050003  0.1083300934197311  1.0000
  H   H10       1.0  0.10408723861903717  0.4364720002145858  0.6083387182307829  1.0000
  H   H11       1.0  0.6893889663018484  0.4901854738637183  0.0052812191728789926  1.0000
  H   H12       1.0  0.6894025920077951  0.5098054966704453  0.5052872659328642  1.0000
  H   H13       1.0  0.3024499874318139  0.5464121216271778  0.8861401229549697  1.0000
  H   H14       1.0  0.30250081587387007  0.45360007716307377  0.3861410095722277  1.0000
  H   H15       1.0  0.0641623569765812  0.7090728908848972  0.7864779611746897  1.0000
  H   H16       1.0  0.0641856158513079  0.29093758808276954  0.2864838829541298  1.0000
  H   H17       1.0  0.031097735620789994  0.9405737206890802  0.7344042381166885  1.0000
  H   H18       1.0  0.031081808685570398  0.05943048396051151  0.23440638839523587  1.0000
  H   H19       1.0  0.22488212413066586  0.1572027380814234  0.75285165649489  1.0000
  H   H20       1.0  0.22487340700462252  0.8428021811972712  0.2528481611596618  1.0000
  H   H21       1.0  0.6467909208671258  0.1965818774464907  0.8627716938902735  1.0000
  H   H22       1.0  0.6467763934300166  0.8034122267123182  0.36276638929102484  1.0000
  H   H23       1.0  0.1913066105976995  0.215105304832548  0.1328087392315211  1.0000
  H   H24       1.0  0.1913217950390091  0.7848980491077029  0.6328140582751727  1.0000
  C   C1        1.0  0.06520768917652478  0.7557359457735233  0.06307877217378177  1.0000
  C   C2        1.0  0.0652281214529609  0.24426300152875063  0.563076749651607  1.0000
  C   C3        1.0  0.9849057290831311  0.6287953099809442  0.0636974812196627  1.0000
  C   C4        1.0  0.9849144566370002  0.3712088948689711  0.5637030630633504  1.0000
  C   C5        1.0  0.7598428278520687  0.5876121090310704  0.006588383719012803  1.0000
  C   C6        1.0  0.75986352328502  0.4123881070658585  0.5065980037821518  1.0000
  C   C7        1.0  0.6134193138053945  0.6747619204219147  0.9485089427851461  1.0000
  C   C8        1.0  0.6134546809216062  0.3252287426400216  0.4485149214973346  1.0000
  C   C9        1.0  0.3760591336447233  0.6434081527998785  0.8869390937169112  1.0000
  C   C10       1.0  0.37609639557403085  0.3565925930920457  0.38693878944980037  1.0000
  C   C11       1.0  0.2447644221845522  0.7334035751936695  0.8329059948316908  1.0000
  C   C12       1.0  0.24477975543611313  0.2665976933484302  0.33290486857505636  1.0000
  C   C13       1.0  0.3386958097141104  0.8614617788608573  0.8353527081213908  1.0000
  C   C14       1.0  0.3387143768825851  0.13854775271449427  0.3353541402206162  1.0000
  C   C15       1.0  0.21196993199603748  0.9595426410140888  0.7823274933733657  1.0000
  C   C16       1.0  0.21197697641345303  0.0404617747574179  0.28232977965076594  1.0000
  C   C17       1.0  0.32117942848120157  0.07955635118379689  0.7916242176554673  1.0000
  C   C18       1.0  0.3211699683789604  0.9204441617269339  0.29162121113487416  1.0000
  C   C19       1.0  0.5552112089152105  0.1033145094736696  0.8528874082977322  1.0000
  C   C20       1.0  0.5552040468322019  0.896685326243862  0.35288433508988243  1.0000
  C   C21       1.0  0.5721009747452186  0.893830922667398  0.8955609419922366  1.0000
  C   C22       1.0  0.5721261258036634  0.1061741580810889  0.39555913730991676  1.0000
  C   C23       1.0  0.708756230748122  0.8004941588673306  0.9524602107354665  1.0000
  C   C24       1.0  0.7087867380022531  0.1995010236765538  0.4524572733025919  1.0000
  C   C25       1.0  0.2523510610609989  0.2697374611850307  0.003462295352079499  1.0000
  C   C26       1.0  0.25234390391024425  0.7302658462396039  0.503470953008687  1.0000
  C   C27       1.0  0.3745293694685543  0.2299735835005806  0.09780984431370847  1.0000
  C   C28       1.0  0.3745384469335562  0.770022256013313  0.5978167900571876  1.0000
  C   C29       1.0  0.5134968160493046  0.10122500579032588  0.09484582304084199  1.0000
  C   C30       1.0  0.5135088525423797  0.8987732701558355  0.59485111979545  1.0000
  C   C31       1.0  0.5676176497891987  0.3282408837570117  0.14384070579838948  1.0000
  C   C32       1.0  0.5676297754691858  0.6717635722229218  0.6438451468199986  1.0000
  N   N1        1.0  0.9294023083539642  0.839133924718567  0.009030227176573606  1.0000
  N   N2        1.0  0.9294235635294896  0.16086026487012356  0.5090263669439281  1.0000
  N   N3        1.0  0.6767925596070229  0.0121861729931183  0.9033473996426693  1.0000
  N   N4        1.0  0.6767928082186502  0.9878131150292687  0.4033452316826001  1.0000
  O   O1        1.0  0.07405063514338649  0.19437574405840508  0.960622212477453  1.0000
  O   O2        1.0  0.07404620396821572  0.805618298377681  0.4606298064428386  1.0000
  O   O3        1.0  0.3219590816495455  0.37126234652122037  0.9720864761597665  1.0000
  O   O4        1.0  0.3219646506736922  0.6287246596125512  0.4720919753874567  1.0000
  O   O5        1.0  0.7699563057513501  0.0910653945960718  0.11714585547983347  1.0000
  O   O6        1.0  0.7699702784220861  0.9089363145864766  0.6171532680780487  1.0000
  O   O7        1.0  0.36193692839919583  0.005782991191509301  0.06838039611998428  1.0000
  O   O8        1.0  0.36194813855177443  0.9942162359630018  0.5683816994388167  1.0000
