data_image0
_chemical_formula_structural       Zn4H24C36N28Cl4
_chemical_formula_sum              "Zn4 H24 C36 N28 Cl4"
_cell_length_a       9.505850285241618
_cell_length_b       10.591725501001253
_cell_length_c       11.203508984835585
_cell_angle_alpha    90.00005231944117
_cell_angle_beta     94.84950438444052
_cell_angle_gamma    89.99997643844705

_space_group_name_H-M_alt    "P 1"
_space_group_IT_number       1

loop_
  _space_group_symop_operation_xyz
  'x, y, z'

loop_
  _atom_site_type_symbol
  _atom_site_label
  _atom_site_symmetry_multiplicity
  _atom_site_fract_x
  _atom_site_fract_y
  _atom_site_fract_z
  _atom_site_occupancy
  Zn  Zn1       1.0  0.22374158749201464  0.08601069743230029  0.4192292558452665  1.0000
  Zn  Zn2       1.0  0.27625882982045624  0.586010505800715  0.5807700842007719  1.0000
  Zn  Zn3       1.0  0.7762588218731495  0.9139890782414285  0.580770452559591  1.0000
  Zn  Zn4       1.0  0.723740523791463  0.41398926987317713  0.4192295523493856  1.0000
  H   H1        1.0  0.0395913604892186  0.16140838043397576  0.6536522038915464  1.0000
  H   H2        1.0  0.4604111405494465  0.6614041173663027  0.3463473430763672  1.0000
  H   H3        1.0  0.9604079885413269  0.8385923393727097  0.3463465397613064  1.0000
  H   H4        1.0  0.5395892688157176  0.3385956583074261  0.6536523653284905  1.0000
  H   H5        1.0  0.43579903431464834  0.9876646034384607  0.6325875663435527  1.0000
  H   H6        1.0  0.06420123500410571  0.4876657489222041  0.3674121104537563  1.0000
  H   H7        1.0  0.5642003192972709  0.012335172235424399  0.36741207020660493  1.0000
  H   H8        1.0  0.9357981186074726  0.5123359150181415  0.6325875260971829  1.0000
  H   H9        1.0  0.2448895368688967  0.9600781801924182  0.9849635563084437  1.0000
  H   H10       1.0  0.2551107471959853  0.4600770262545453  0.015036990256867007  1.0000
  H   H11       1.0  0.7551098167428522  0.0399225396147003  0.015036080242111916  1.0000
  H   H12       1.0  0.7448896621691717  0.5399227494191835  0.9849627181479906  1.0000
  H   H13       1.0  0.15944719453427333  0.0087833290418047  0.18136714782696128  1.0000
  H   H14       1.0  0.34055219548048404  0.5087814544280462  0.8186320556154603  1.0000
  H   H15       1.0  0.8405532148307202  0.9912173907651507  0.8186325605782871  1.0000
  H   H16       1.0  0.6594482184658831  0.49121832124611586  0.18136854568709287  1.0000
  H   H17       1.0  0.958104588931491  0.34672332407015466  0.03355866862116133  1.0000
  H   H18       1.0  0.5418958418524867  0.8467226478170814  0.9664422446435598  1.0000
  H   H19       1.0  0.0418958295960863  0.6532764516044268  0.9664428255790941  1.0000
  H   H20       1.0  0.45810456751250694  0.15327807198987387  0.03355746376168871  1.0000
  H   H21       1.0  0.04610332719678211  0.29851549494023993  0.8365712667746127  1.0000
  H   H22       1.0  0.4538970209788075  0.7985138903482039  0.16343003723240915  1.0000
  H   H23       1.0  0.9538960309959991  0.7014861690005388  0.16342926267402905  1.0000
  H   H24       1.0  0.5461044487208043  0.20148588532579487  0.8365706359248508  1.0000
  C   C1        1.0  0.14218349122435112  0.11847580175151512  0.676131695442493  1.0000
  C   C2        1.0  0.3578179790422524  0.6184724995206778  0.3238695294714092  1.0000
  C   C3        1.0  0.8578169181406354  0.8815249180554404  0.3238680129627555  1.0000
  C   C4        1.0  0.6421824349041217  0.3815272761534772  0.6761310718311437  1.0000
  C   C5        1.0  0.34320454531933114  0.027840858633318505  0.6682813256166683  1.0000
  C   C6        1.0  0.15679483767303282  0.5278414156988092  0.3317178938047932  1.0000
  C   C7        1.0  0.6567937525393505  0.972158917040737  0.33171823907878223  1.0000
  C   C8        1.0  0.8432045159387158  0.4721593041083096  0.6682817427457552  1.0000
  C   C9        1.0  0.14908339368976437  0.12522834918593873  0.8998932730219595  1.0000
  C   C10       1.0  0.3509149022470339  0.6252295544628623  0.10010684909343583  1.0000
  C   C11       1.0  0.8509170202567803  0.8747704823549897  0.10010732828020251  1.0000
  C   C12       1.0  0.6490865674525779  0.37477022121113623  0.8998938240638242  1.0000
  C   C13       1.0  0.18239432217856694  0.044617350401459505  0.9967405714200057  1.0000
  C   C14       1.0  0.31760506379498576  0.5446165864974118  0.003260447861876507  1.0000
  C   C15       1.0  0.8176050314333524  0.9553824252724323  0.003259065130144708  1.0000
  C   C16       1.0  0.682395350151559  0.4553822450435164  0.9967401534402786  1.0000
  C   C17       1.0  0.13369685689593075  0.07311936859844789  0.10690455690696873  1.0000
  C   C18       1.0  0.36629829098144034  0.5731194444129599  0.8930953059551431  1.0000
  C   C19       1.0  0.8663024967159956  0.9268804070754438  0.8930950796431819  1.0000
  C   C20       1.0  0.6337021229649268  0.42688033126119507  0.10690529534740995  1.0000
  C   C21       1.0  0.0521907882834611  0.18161446074103077  0.12114591956387953  1.0000
  C   C22       1.0  0.4478064311247963  0.6816116599361736  0.878854177969821  1.0000
  C   C23       1.0  0.9478096210817031  0.818385314932698  0.878853788840978  1.0000
  C   C24       1.0  0.5521918667338853  0.31838811573788217  0.12114538672562963  1.0000
  C   C25       1.0  0.019641642259095704  0.26149942001802623  0.022407308362005607  1.0000
  C   C26       1.0  0.4803587103932402  0.7614967022354902  0.9775921788144973  1.0000
  C   C27       1.0  0.980358771687101  0.7385012997893625  0.9775932929409453  1.0000
  C   C28       1.0  0.5196385271308233  0.2385040175715217  0.022406421128948806  1.0000
  C   C29       1.0  0.06801578280994391  0.2339509761101013  0.9115527709248216  1.0000
  C   C30       1.0  0.4319856357455976  0.7339511956868279  0.08844676501072263  1.0000
  C   C31       1.0  0.9319835708018047  0.7660497436970173  0.0884468656257269  1.0000
  C   C32       1.0  0.5680147736195664  0.26604857998690074  0.9115529433941351  1.0000
  C   C33       1.0  0.9995057021481202  0.21421809176142398  0.23605676814361945  1.0000
  C   C34       1.0  0.5004937217053681  0.7142181798901035  0.763943962172988  1.0000
  C   C35       1.0  0.0004936514639766005  0.7857807397792342  0.7639428684061401  1.0000
  C   C36       1.0  0.499506687659789  0.2857815957836253  0.2360557462318696  1.0000
  N   N1        1.0  0.23072083625908138  0.0763428582293102  0.5983910314926748  1.0000
  N   N2        1.0  0.2692795937783999  0.5763406082041983  0.4016100862422789  1.0000
  N   N3        1.0  0.7692785173528379  0.9236569174445747  0.4016086050574757  1.0000
  N   N4        1.0  0.7307197644147294  0.4236591674701273  0.598390443205574  1.0000
  N   N5        1.0  0.32928753405736444  0.0374540816368807  0.7841575638945885  1.0000
  N   N6        1.0  0.17071184997431743  0.537453577641763  0.21584255648394907  1.0000
  N   N7        1.0  0.6707118195543843  0.9625466381702382  0.2158420726559599  1.0000
  N   N8        1.0  0.829287503637609  0.4625461980321289  0.7841570800662014  1.0000
  N   N9        1.0  0.20075840091040226  0.0955069714419494  0.7878275345553265  1.0000
  N   N10       1.0  0.2992430686565584  0.5955054716961499  0.2121718853066384  1.0000
  N   N11       1.0  0.7992409527013464  0.9044937483651693  0.21217210199522193  1.0000
  N   N12       1.0  0.7007573407087833  0.4044933598443519  0.7878278230978214  1.0000
  N   N13       1.0  0.048380343638719105  0.17278598065831116  0.34731598224285426  1.0000
  N   N14       1.0  0.4516200462818959  0.6727848486324604  0.6526843234537625  1.0000
  N   N15       1.0  0.9516200703074773  0.8272147391490702  0.6526846190600895  1.0000
  N   N16       1.0  0.5483793073300233  0.3272149270414316  0.3473153130963952  1.0000
  N   N17       1.0  0.9697573508695218  0.22784958469172525  0.4264905764826069  1.0000
  N   N18       1.0  0.5302420633799587  0.7278504222188289  0.5735092723653994  1.0000
  N   N19       1.0  0.030242002742575397  0.7721492468489399  0.5735090600671529  1.0000
  N   N20       1.0  0.46975834598519844  0.2721493534548927  0.42649043603945824  1.0000
  N   N21       1.0  0.8772980607200511  0.2995800940076805  0.3641246773955659  1.0000
  N   N22       1.0  0.6227013270997689  0.7995800129457676  0.6358752315916407  1.0000
  N   N23       1.0  0.1227012928918754  0.7004196816662117  0.6358749591545846  1.0000
  N   N24       1.0  0.37729802651215755  0.20041976272812426  0.3641244049585169  1.0000
  N   N25       1.0  0.891942702957529  0.29406440813543355  0.24628339716964837  1.0000
  N   N26       1.0  0.6080566868947488  0.7940635020348807  0.753716507192806  1.0000
  N   N27       1.0  0.10805770640763511  0.7059353675382952  0.7537163112352091  1.0000
  N   N28       1.0  0.391943722470586  0.2059353295056213  0.24628320121165367  1.0000
  Cl  Cl1       1.0  0.26343612705073133  0.8912515048421737  0.3551720418124163  1.0000
  Cl  Cl2       1.0  0.23656419153617494  0.3912519091887604  0.6448302328439512  1.0000
  Cl  Cl3       1.0  0.7365642823146104  0.108747326698321  0.6448276665920434  1.0000
  Cl  Cl4       1.0  0.7634372781636146  0.6087469223520044  0.3551704403129038  1.0000
