data_image0
_chemical_formula_structural       Zn4H56C48N8O20
_chemical_formula_sum              "Zn4 H56 C48 N8 O20"
_cell_length_a       7.800497082
_cell_length_b       10.011215758322862
_cell_length_c       16.0161
_cell_angle_alpha    90.52747667651491
_cell_angle_beta     90.0
_cell_angle_gamma    90.0

_space_group_name_H-M_alt    "P 1"
_space_group_IT_number       1

loop_
  _space_group_symop_operation_xyz
  'x, y, z'

loop_
  _atom_site_type_symbol
  _atom_site_label
  _atom_site_symmetry_multiplicity
  _atom_site_fract_x
  _atom_site_fract_y
  _atom_site_fract_z
  _atom_site_occupancy
  Zn  Zn1       1.0  0.9974300250625987  0.3059378467138103  0.7667850759988111  1.0000
  Zn  Zn2       1.0  0.49742983802323704  0.6940610030274925  0.7332139183873139  1.0000
  Zn  Zn3       1.0  0.0025703490161249  0.6940620019495043  0.23321517287902074  1.0000
  Zn  Zn4       1.0  0.5025692540859055  0.3059378467138103  0.2667850759988113  1.0000
  H   H1        1.0  0.626310086221757  0.2934233517498228  0.015380964766123396  1.0000
  H   H2        1.0  0.1263111811519835  0.7065794936795271  0.48461930135647435  1.0000
  H   H3        1.0  0.3736877239177971  0.7065784947575153  0.9846186712364967  1.0000
  H   H4        1.0  0.8736879109571589  0.2934233517498228  0.5153809647661233  1.0000
  H   H5        1.0  0.1029088263941986  0.4236418262876995  0.9959168914578456  1.0000
  H   H6        1.0  0.60291157737273  0.5763570234536033  0.5040821029282794  1.0000
  H   H7        1.0  0.8970877017757746  0.5763570234536033  0.0040814785565501995  1.0000
  H   H8        1.0  0.3970887967059937  0.42364082736568776  0.49591688570959036  1.0000
  H   H9        1.0  0.4146863931869618  0.3925064261015123  0.7753107786699117  1.0000
  H   H10       1.0  0.9146865802263235  0.607494421483814  0.724688851584446  1.0000
  H   H11       1.0  0.5853126989221806  0.6074964193278376  0.22468823870923418  1.0000
  H   H12       1.0  0.0853125118828189  0.3925084239455359  0.2753107901664293  1.0000
  H   H13       1.0  0.8288958936886388  0.0655043109246094  0.7633454548430691  1.0000
  H   H14       1.0  0.3288982705884465  0.9344955377387052  0.7366554184064851  1.0000
  H   H15       1.0  0.1711031984205036  0.9344945388166934  0.2366560370299595  1.0000
  H   H16       1.0  0.6711046674294467  0.0655033120025976  0.26334420035136225  1.0000
  H   H17       1.0  0.7900740087732814  0.9754443477689421  0.8565444054962084  1.0000
  H   H18       1.0  0.2900751037035008  0.0245535030503561  0.6434564562568352  1.0000
  H   H19       1.0  0.209925083335861  0.0245535030503561  0.1434570806285649  1.0000
  H   H20       1.0  0.7099265523448111  0.9754433488469303  0.3565431510044945  1.0000
  H   H21       1.0  0.8914431896969717  0.8951529943034657  0.7711821779688535  1.0000
  H   H22       1.0  0.3914442846271911  0.1048468543598489  0.7288186952807009  1.0000
  H   H23       1.0  0.1085559024121707  0.1048458554378371  0.22881868953244575  1.0000
  H   H24       1.0  0.6085573714211137  0.895151995381454  0.2711809234771465  1.0000
  H   H25       1.0  0.9544596865730881  0.8068832507296477  0.8953175609493087  1.0000
  H   H26       1.0  0.4544607815033075  0.1931165979336669  0.6046839366719681  1.0000
  H   H27       1.0  0.0455394055360543  0.1931155990116551  0.1046833065519905  1.0000
  H   H28       1.0  0.5455408745449972  0.806882251807636  0.3953169308293312  1.0000
  H   H29       1.0  0.0964515455990806  0.8168884535999651  0.9827172474845653  1.0000
  H   H30       1.0  0.5964517326384424  0.1831103961413376  0.5172842443884562  1.0000
  H   H31       1.0  0.9035488284796429  0.1831103961413376  0.017284244388456195  1.0000
  H   H32       1.0  0.4035499234098694  0.8168884535999651  0.4827166231128429  1.0000
  H   H33       1.0  0.1699250683727129  0.75343093387756  0.8847115845049627  1.0000
  H   H34       1.0  0.6699278193512441  0.2465679158637428  0.6152892829963363  1.0000
  H   H35       1.0  0.8300740237364297  0.2465679158637428  0.11528990736806577  1.0000
  H   H36       1.0  0.3300738366970678  0.75343093387756  0.3847115845049629  1.0000
  H   H37       1.0  0.3318788498714795  0.10629129558893172  0.9047381217004541  1.0000
  H   H38       1.0  0.8318816008500107  0.8937075541523783  0.5952627458008449  1.0000
  H   H39       1.0  0.6681202422376629  0.8937075541523783  0.0952621214291156  1.0000
  H   H40       1.0  0.16812390110705175  0.10629129558893172  0.4047381217004541  1.0000
  H   H41       1.0  0.4064805058791238  0.935983931536306  0.9018427721521505  1.0000
  H   H42       1.0  0.9064832568576549  0.0640149182049967  0.5981580953491488  1.0000
  H   H43       1.0  0.5935185862300187  0.0640149182049967  0.0981580953491488  1.0000
  H   H44       1.0  0.09352096312981932  0.935983931536306  0.4018427721521505  1.0000
  H   H45       1.0  0.300834674422866  0.9992376711683022  0.992522757770338  1.0000
  H   H46       1.0  0.8008348614622278  0.0007611785730006  0.5074774853592315  1.0000
  H   H47       1.0  0.6991656996558575  0.0007611785730006  0.007477485359231698  1.0000
  H   H48       1.0  0.1991667945860769  0.9992376711683022  0.49252275777033816  1.0000
  H   H49       1.0  0.0118159136566689  0.5084273298843129  0.8620562244511091  1.0000
  H   H50       1.0  0.5118161006960307  0.49157052093497816  0.6379427641867536  1.0000
  H   H51       1.0  0.9881831784524735  0.4915735177010134  0.13794215705979695  1.0000
  H   H52       1.0  0.48818427338269293  0.5084273298843129  0.3620562244511091  1.0000
  H   H53       1.0  0.1545401513939026  0.5334892842386765  0.7862762162069785  1.0000
  H   H54       1.0  0.6545403384332715  0.46650956550262634  0.7137227781791466  1.0000
  H   H55       1.0  0.8454589407152326  0.4665115633466499  0.2137227896756571  1.0000
  H   H56       1.0  0.3454600356454592  0.5334892842386765  0.28627621620697846  1.0000
  C   C1        1.0  0.540364281364397  0.3402927725440676  0.8914287962168572  1.0000
  C   C2        1.0  0.0403653762946163  0.6597100728852823  0.608570845534018  1.0000
  C   C3        1.0  0.4596335287751573  0.6597090739632705  0.1085702154140336  1.0000
  C   C4        1.0  0.9596337158145192  0.3402937714660794  0.3914288019651124  1.0000
  C   C5        1.0  0.5185913099480075  0.3247715223245251  0.9774534526247649  1.0000
  C   C6        1.0  0.0185911229086457  0.6752313231048248  0.5225461891261033  1.0000
  C   C7        1.0  0.48140778216113495  0.6752313231048248  0.022546189126103396  1.0000
  C   C8        1.0  0.9814079692004967  0.3247725212465369  0.47745283400129773  1.0000
  C   C9        1.0  0.36148209150756133  0.3537092940847231  0.0149948653779646  1.0000
  C   C10       1.0  0.8614835605165112  0.6462925524226151  0.48500539499637796  1.0000
  C   C11       1.0  0.638515718631993  0.6462915535006033  0.985004140504671  1.0000
  C   C12       1.0  0.1385155315926312  0.3537102930067348  0.5149948711262198  1.0000
  C   C13       1.0  0.2252151345654454  0.40067261354808187  0.966354954748972  1.0000
  C   C14       1.0  0.7252178855439768  0.5993292329592563  0.533644681253641  1.0000
  C   C15       1.0  0.7747801116349393  0.5993282340372446  0.0336446755053856  1.0000
  C   C16       1.0  0.274782488534747  0.40067361247009364  0.4663549604972274  1.0000
  C   C17       1.0  0.24703682082603257  0.4177312047438022  0.8806987830217068  1.0000
  C   C18       1.0  0.7470370078653943  0.5822696428415242  0.6193008472326511  1.0000
  C   C19       1.0  0.7529609893135287  0.5822706417635359  0.1192996042374546  1.0000
  C   C20       1.0  0.252960802274167  0.417732203665814  0.3806987887699691  1.0000
  C   C21       1.0  0.4035294118965211  0.3849785498204952  0.8428525772857112  1.0000
  C   C22       1.0  0.9035283169663018  0.615023296686843  0.657147683088631  1.0000
  C   C23       1.0  0.5964709621822024  0.615023296686843  0.15714705871690876  1.0000
  C   C24       1.0  0.0964694931732524  0.3849805476645187  0.3428525887822218  1.0000
  C   C25       1.0  0.7141467962156725  0.3145775231939822  0.8555779948206919  1.0000
  C   C26       1.0  0.2141466091763107  0.6854223254693395  0.6444216296854107  1.0000
  C   C27       1.0  0.2858522958934699  0.6854213265473277  0.1444209995654333  1.0000
  C   C28       1.0  0.7858524829328317  0.314578522115994  0.3555780005689471  1.0000
  C   C29       1.0  0.3433665793146191  0.3423815184707735  0.1079947833909856  1.0000
  C   C30       1.0  0.8433693302931502  0.65761932911456  0.3920054712351018  1.0000
  C   C31       1.0  0.656629948855354  0.6576183301925482  0.8920042167433946  1.0000
  C   C32       1.0  0.1566297618159922  0.3423825173927852  0.6079941647675112  1.0000
  C   C33       1.0  0.0529799570021794  0.0371569020733915  0.8367414369742148  1.0000
  C   C34       1.0  0.5529801440415413  0.9628429465899231  0.6632588119036171  1.0000
  C   C35       1.0  0.9470204170765442  0.9628409487458995  0.163259424778829  1.0000
  C   C36       1.0  0.4470215120067635  0.0371559031513797  0.3367408068542304  1.0000
  C   C37       1.0  0.88151048935935  0.9903572544832854  0.80535743945169  1.0000
  C   C38       1.0  0.3815128662591576  0.0096445920240527  0.694643445294382  1.0000
  C   C39       1.0  0.1184886027497924  0.0096415952580173  0.19464342804960919  1.0000
  C   C40       1.0  0.6184900717587354  0.9903562555612736  0.3053568093317054  1.0000
  C   C41       1.0  0.08565864367052713  0.8277207638960604  0.9148279578976001  1.0000
  C   C42       1.0  0.5856613946490513  0.1722780858452424  0.585172909603699  1.0000
  C   C43       1.0  0.9143391664690341  0.1722780858452424  0.08517290960369908  1.0000
  C   C44       1.0  0.4143415433688418  0.8277207638960604  0.41482733352587076  1.0000
  C   C45       1.0  0.3050908134420851  0.0040456341478432  0.9239960328560386  1.0000
  C   C46       1.0  0.8050922824510351  0.9959532155934596  0.5760048346452606  1.0000
  C   C47       1.0  0.6949095606366384  0.9959532155934596  0.0760048346452606  1.0000
  C   C48       1.0  0.19491065556685785  0.004046633069855  0.4239960386042938  1.0000
  N   N1        1.0  0.1098917147188061  0.4639183618039837  0.8288969581794133  1.0000
  N   N2        1.0  0.6098919017581679  0.5360804879373191  0.6711020362067045  1.0000
  N   N3        1.0  0.8901086593599246  0.5360814868593309  0.1711020419549669  1.0000
  N   N4        1.0  0.3901084723205628  0.4639183618039837  0.3288969581794134  1.0000
  N   N5        1.0  0.1397564781500407  0.961230686462855  0.8906544580133229  1.0000
  N   N6        1.0  0.6397592291285719  0.0387681632784478  0.6093464094879761  1.0000
  N   N7        1.0  0.8602426139591017  0.038767164356436  0.1093464037397212  1.0000
  N   N8        1.0  0.3602449908589023  0.961230686462855  0.3906544580133229  1.0000
  O   O1        1.0  0.7366774116562667  0.326228949539761  0.7750636275313809  1.0000
  O   O2        1.0  0.2366772246169049  0.6737699002015418  0.7249366155981887  1.0000
  O   O3        1.0  0.263322962422464  0.6737699002015418  0.22493599122646657  1.0000
  O   O4        1.0  0.7633218674922375  0.326228949539761  0.2750630031596586  1.0000
  O   O5        1.0  0.8360505659375121  0.2840924212374816  0.9027786473555324  1.0000
  O   O6        1.0  0.3360516608677315  0.7159084263478448  0.597221607270555  1.0000
  O   O7        1.0  0.1639472442020491  0.7159084263478448  0.0972203585271032  1.0000
  O   O8        1.0  0.6639474312414109  0.2840924212374816  0.4027792717272547  1.0000
  O   O9        1.0  0.2091302621937174  0.3811167173228256  0.1439498530313443  1.0000
  O   O10       1.0  0.7091304492330792  0.618883131340489  0.3560491471030288  1.0000
  O   O11       1.0  0.790868829915425  0.6188821324184772  0.8560491413547737  1.0000
  O   O12       1.0  0.2908699248456443  0.3811167173228256  0.6439498530313444  1.0000
  O   O13       1.0  0.4758414702269604  0.2921257520564779  0.14547695617613238  1.0000
  O   O14       1.0  0.9758429392359105  0.7078750955288484  0.3545226740782255  1.0000
  O   O15       1.0  0.5241563399125937  0.7078740966068366  0.8545220439582477  1.0000
  O   O16       1.0  0.0241574348428202  0.2921257520564779  0.6454769561761324  1.0000
  O   O17       1.0  0.11836553366971712  0.145909541499428  0.8115544737472149  1.0000
  O   O18       1.0  0.6183657207090789  0.854088309319863  0.6884457636340997  1.0000
  O   O19       1.0  0.8816348404090064  0.8540893082418748  0.18844639375408428  1.0000
  O   O20       1.0  0.3816359353392329  0.145909541499428  0.3115538493754854  1.0000
