data_image0
_chemical_formula_structural       Cu4H18C28S4N10
_chemical_formula_sum              "Cu4 H18 C28 S4 N10"
_cell_length_a       5.83503400787623
_cell_length_b       8.53599804616964
_cell_length_c       14.15270915481737
_cell_angle_alpha    90.0009880110942
_cell_angle_beta     90.00022156031159
_cell_angle_gamma    96.29920569187543

_space_group_name_H-M_alt    "P 1"
_space_group_IT_number       1

loop_
  _space_group_symop_operation_xyz
  'x, y, z'

loop_
  _atom_site_type_symbol
  _atom_site_label
  _atom_site_symmetry_multiplicity
  _atom_site_fract_x
  _atom_site_fract_y
  _atom_site_fract_z
  _atom_site_occupancy
  Cu  Cu1       1.0  0.30431679563187686  0.9185295926163662  0.1637174927675389  1.0000
  Cu  Cu2       1.0  0.6957058898706163  0.0814721389421678  0.6637132350415841  1.0000
  Cu  Cu3       1.0  0.9761205221374567  0.8926579500563108  0.406281284220789  1.0000
  Cu  Cu4       1.0  0.023880910134565194  0.10734074219699609  0.9062784689864002  1.0000
  H   H1        1.0  0.8462626073613252  0.8357457128388717  0.0739341258563542  1.0000
  H   H2        1.0  0.1537325697206455  0.1642488576536252  0.5739401668527861  1.0000
  H   H3        1.0  0.5196842026390841  0.6752702601959301  0.9976284809140809  1.0000
  H   H4        1.0  0.4803065683228668  0.32472274381436966  0.497633394619811  1.0000
  H   H5        1.0  0.48138677838488053  0.38270227961859865  0.004737802116736099  1.0000
  H   H6        1.0  0.5185994192432872  0.6172894799423716  0.5047417861111683  1.0000
  H   H7        1.0  0.7699648776410086  0.24250516117020746  0.0894565077971308  1.0000
  H   H8        1.0  0.2300418098120645  0.7574912051721299  0.5894591916324217  1.0000
  H   H9        1.0  0.5350218804895164  0.8048244281077501  0.29897748259350015  1.0000
  H   H10       1.0  0.4649775862608648  0.19518167726137392  0.7989781289557527  1.0000
  H   H11       1.0  0.038140191596767216  0.5595177597029634  0.41884574077469244  1.0000
  H   H12       1.0  0.9618548034585785  0.4404873489047533  0.9188420635948233  1.0000
  H   H13       1.0  0.8381206903528379  0.3017110173012085  0.36404475751138676  1.0000
  H   H14       1.0  0.16187422875290738  0.6982977496248637  0.8640400031500803  1.0000
  H   H15       1.0  0.4913399493825422  0.29918736057263823  0.2627158316695954  1.0000
  H   H16       1.0  0.5086570920258141  0.7008137317959682  0.7627144429089867  1.0000
  H   H17       1.0  0.1691360013381384  0.3110981959097928  0.2054691033926943  1.0000
  H   H18       1.0  0.8308658252537879  0.6889040903666981  0.7054721371750361  1.0000
  C   C1        1.0  0.9990297370933731  0.6292220930772814  0.1240387181380598  1.0000
  C   C2        1.0  0.0009653562969162797  0.370776879892496  0.6240425374083216  1.0000
  C   C3        1.0  0.8352081376676351  0.7077851432373308  0.0761326298130811  1.0000
  C   C4        1.0  0.16478979224107346  0.2922059763564491  0.5761387009076202  1.0000
  C   C5        1.0  0.6512926293924721  0.6164601202293769  0.0336087357623285  1.0000
  C   C6        1.0  0.3486974507157541  0.38353281198361344  0.5336152738004714  1.0000
  C   C7        1.0  0.6284995213691218  0.4504603413405235  0.0381444424184068  1.0000
  C   C8        1.0  0.3714947305033077  0.5495280543489186  0.5381470890446849  1.0000
  C   C9        1.0  0.7887546138245014  0.37028256199077697  0.0857876588312863  1.0000
  C   C10       1.0  0.21124101061305814  0.6297183859987783  0.5857909294035011  1.0000
  C   C11       1.0  0.9729261320476398  0.46243951582791715  0.1280239789053539  1.0000
  C   C12       1.0  0.027065746409512315  0.5375619821500595  0.6280281886833023  1.0000
  C   C13       1.0  0.2825663818683779  0.5595507922547114  0.2103937959350972  1.0000
  C   C14       1.0  0.7174306682538187  0.4404552384422685  0.7103950291638625  1.0000
  C   C15       1.0  0.4853762391576736  0.5544767644155327  0.2702414635197741  1.0000
  C   C16       1.0  0.5146206670750715  0.4455258142175609  0.7702438791546271  1.0000
  C   C17       1.0  0.6016187614507019  0.6921639427478254  0.309197556564456  1.0000
  C   C18       1.0  0.398376447843077  0.3078402279647108  0.8091993709515748  1.0000
  C   C19       1.0  0.8794605623181793  0.5540955543891285  0.37785638172432806  1.0000
  C   C20       1.0  0.12053469753447389  0.4459090601522391  0.8778555982675088  1.0000
  C   C21       1.0  0.7686099738444127  0.4113704913989694  0.3463045443894472  1.0000
  C   C22       1.0  0.23138152024218067  0.5886328409885309  0.8463043229262013  1.0000
  C   C23       1.0  0.5720843608811279  0.4108995492337187  0.29056494783399955  1.0000
  C   C24       1.0  0.4279101394083682  0.5891050410396163  0.7905663230262546  1.0000
  C   C25       1.0  0.7998831134789979  0.0341953064882574  0.2187770120021142  1.0000
  C   C26       1.0  0.20014060041219037  0.9658086703762765  0.7187711486824213  1.0000
  C   C27       1.0  0.5206797468369616  0.0278461740283475  0.9668844266159553  1.0000
  C   C28       1.0  0.4793215297166711  0.9721597071618007  0.4668867484952059  1.0000
  S   S1        1.0  0.0647260241895822  0.0557208910461924  0.2591226311653827  1.0000
  S   S2        1.0  0.9352938333880658  0.9442823798802279  0.7591160875819938  1.0000
  S   S3        1.0  0.2548096231523829  0.9633621620569672  0.9968143420202508  1.0000
  S   S4        1.0  0.7451932195336111  0.036652011501807615  0.4968103912507402  1.0000
  N   N1        1.0  0.1949482038384929  0.6867128522267479  0.1749558466569638  1.0000
  N   N2        1.0  0.8050587641677112  0.31329053937134443  0.6749589155030051  1.0000
  N   N3        1.0  0.15401673375647112  0.42341393162816143  0.1821430053701931  1.0000
  N   N4        1.0  0.8459824893868843  0.576586227632184  0.6821478028916346  1.0000
  N   N5        1.0  0.7974922827874308  0.6935092738744402  0.3598971269388258  1.0000
  N   N6        1.0  0.2025050873241625  0.3064922469978626  0.8598959350258326  1.0000
  N   N7        1.0  0.606106176698205  0.012965394173292597  0.19291010809200057  1.0000
  N   N8        1.0  0.39391598680986556  0.987031634988391  0.6929101471825233  1.0000
  N   N9        1.0  0.7132037299825384  0.07181077330621831  0.9461249685184612  1.0000
  N   N10       1.0  0.2867944458915019  0.928190728489632  0.4461276539218559  1.0000
