data_image0
_chemical_formula_structural       Cd2H16C20Br4N4
_chemical_formula_sum              "Cd2 H16 C20 Br4 N4"
_cell_length_a       3.901386375066149
_cell_length_b       11.828962864094022
_cell_length_c       12.423312037265267
_cell_angle_alpha    90.00034944767263
_cell_angle_beta     89.99935651419244
_cell_angle_gamma    90.00026429529761

_space_group_name_H-M_alt    "P 1"
_space_group_IT_number       1

loop_
  _space_group_symop_operation_xyz
  'x, y, z'

loop_
  _atom_site_type_symbol
  _atom_site_label
  _atom_site_symmetry_multiplicity
  _atom_site_fract_x
  _atom_site_fract_y
  _atom_site_fract_z
  _atom_site_occupancy
  Cd  Cd1       1.0  0.5000273086530171  0.24999600608214934  0.24999680514142142  1.0000
  Cd  Cd2       1.0  0.4999938482624913  0.750006794167767  0.7500001796119093  1.0000
  H   H1        1.0  0.6562192304211081  0.04198158822922691  0.09094736772018311  1.0000
  H   H2        1.0  0.3437763129797703  0.5419947037848729  0.5909400087178014  1.0000
  H   H3        1.0  0.6561953036660598  0.5419790290057735  0.9090325860298166  1.0000
  H   H4        1.0  0.6561967237513571  0.9580212418274175  0.5909616029390676  1.0000
  H   H5        1.0  0.34377885752949316  0.9580110674419658  0.9090584713650005  1.0000
  H   H6        1.0  0.6562063961754631  0.45801655025811533  0.40905456131088874  1.0000
  H   H7        1.0  0.3437822790803153  0.45801193582681077  0.0909547395041344  1.0000
  H   H8        1.0  0.34381418028890925  0.041988321505385805  0.4090442361729671  1.0000
  H   H9        1.0  0.6620517050473753  0.8314683632766988  0.083007311320749  1.0000
  H   H10       1.0  0.3379409831039696  0.3314876309124273  0.5830236472682913  1.0000
  H   H11       1.0  0.6620529611496622  0.33147286045385027  0.9169952228999634  1.0000
  H   H12       1.0  0.6620424411713303  0.1685327326436621  0.583009741931015  1.0000
  H   H13       1.0  0.33795919900303767  0.16852175622658905  0.9169896734135463  1.0000
  H   H14       1.0  0.6620647944514744  0.6685202416671957  0.41698702147760963  1.0000
  H   H15       1.0  0.33793487380530246  0.6685206406346184  0.08302349521846251  1.0000
  H   H16       1.0  0.3379658999223737  0.8314759852607098  0.4169824132314233  1.0000
  C   C1        1.0  0.5844022084366145  0.9914183415667991  0.1608985684971955  1.0000
  C   C2        1.0  0.4156260115980502  0.4914157329724917  0.6609081985385075  1.0000
  C   C3        1.0  0.5844012008927566  0.491433327143568  0.8391132052997747  1.0000
  C   C4        1.0  0.5843929977579876  0.008579770690772603  0.6608952455854934  1.0000
  C   C5        1.0  0.415616385345139  0.0085861494389405  0.839096001450443  1.0000
  C   C6        1.0  0.5843823291217304  0.5085811496239928  0.33909925041795924  1.0000
  C   C7        1.0  0.41560201345291153  0.5085703185184868  0.1608966584999862  1.0000
  C   C8        1.0  0.4156204696159591  0.9914196480130358  0.33909851941795216  1.0000
  C   C9        1.0  0.5864314011774782  0.8739887631764207  0.1572768083461398  1.0000
  C   C10       1.0  0.4135566615164096  0.37397516181600576  0.657269541678211  1.0000
  C   C11       1.0  0.5864148815966176  0.373997008956117  0.8427197913273545  1.0000
  C   C12       1.0  0.5864035275963745  0.12601440079011184  0.6572854328998262  1.0000
  C   C13       1.0  0.4135641236669656  0.1260241816896794  0.8427330554936604  1.0000
  C   C14       1.0  0.5864337370303476  0.6260090399820585  0.3427234183825192  1.0000
  C   C15       1.0  0.41358064354877655  0.6260184720086955  0.1572747786915656  1.0000
  C   C16       1.0  0.41357405469806  0.8739774095054715  0.3427268457246839  1.0000
  C   C17       1.0  0.50000865351317  0.8124984060369158  0.2500000395784951  1.0000
  C   C18       1.0  0.4999699101177485  0.3125035185072634  0.7499876469901992  1.0000
  C   C19       1.0  0.49997661848249925  0.18750016731205932  0.7500082143607328  1.0000
  C   C20       1.0  0.5000102358746121  0.6874925186203528  0.2499988736156737  1.0000
  Br  Br1       1.0  8.020845292800002e-06  0.2499985343647566  0.0887153897643458  1.0000
  Br  Br2       1.0  0.9999959951346897  0.7500023818650022  0.5887162446405796  1.0000
  Br  Br3       1.0  1.9540334434999973e-06  0.7499993711254334  0.9112857244081312  1.0000
  Br  Br4       1.0  4.594185298999992e-07  0.24999770461719353  0.4112580971516522  1.0000
  N   N1        1.0  0.5000206098107682  0.049573532226382604  0.2499889818802075  1.0000
  N   N2        1.0  0.5000102179653254  0.5495843203585126  0.750002015571056  1.0000
  N   N3        1.0  0.5000005471159527  0.9504250411024987  0.7500055880459373  1.0000
  N   N4        1.0  0.4999904331721013  0.4504134076180861  0.25000623833935987  1.0000
