data_image0
_chemical_formula_structural       Ag4H20C40N4O8F12
_chemical_formula_sum              "Ag4 H20 C40 N4 O8 F12"
_cell_length_a       4.507064351002953
_cell_length_b       11.357613297167836
_cell_length_c       19.266572177139224
_cell_angle_alpha    101.34551128534129
_cell_angle_beta     89.99999651960131
_cell_angle_gamma    89.99987272561572

_space_group_name_H-M_alt    "P 1"
_space_group_IT_number       1

loop_
  _space_group_symop_operation_xyz
  'x, y, z'

loop_
  _atom_site_type_symbol
  _atom_site_label
  _atom_site_symmetry_multiplicity
  _atom_site_fract_x
  _atom_site_fract_y
  _atom_site_fract_z
  _atom_site_occupancy
  Ag  Ag1       1.0  0.7624569794124341  0.5572090732585478  0.560867824499283  1.0000
  Ag  Ag2       1.0  0.262473262025587  0.4427950577007352  0.9391338482610224  1.0000
  Ag  Ag3       1.0  0.23753026282829381  0.44279414178044624  0.4391349512992946  1.0000
  Ag  Ag4       1.0  0.7375317301336536  0.557206351050688  0.0608650865258724  1.0000
  H   H1        1.0  0.29367482491527147  0.6583043976270134  0.6747644059886112  1.0000
  H   H2        1.0  0.7936796417271879  0.3416952114236196  0.8252357081003792  1.0000
  H   H3        1.0  0.7063190735505173  0.3416961204382929  0.3252370215177649  1.0000
  H   H4        1.0  0.20631869421461602  0.6583061987954011  0.17476374588975568  1.0000
  H   H5        1.0  0.6563006915807463  0.8051702190063426  0.7417358557826998  1.0000
  H   H6        1.0  0.15630509087821312  0.1948268232461673  0.7582639650957644  1.0000
  H   H7        1.0  0.3436932068875507  0.19482940104510504  0.25826546842829856  1.0000
  H   H8        1.0  0.8436932450661061  0.805173688959002  0.2417353855990001  1.0000
  H   H9        1.0  0.7986056765395732  0.988417839198114  0.6994364529095165  1.0000
  H   H10       1.0  0.29860664802856723  0.0115790712455137  0.8005633506950289  1.0000
  H   H11       1.0  0.20139487814874713  0.0115808799073562  0.3005637296000358  1.0000
  H   H12       1.0  0.7013916879157521  0.9884214409596552  0.19943599999972858  1.0000
  H   H13       1.0  0.5885470098695507  0.032188573468452795  0.5862755429618929  1.0000
  H   H14       1.0  0.08854706198656  0.9678085330076698  0.9137248053441595  1.0000
  H   H15       1.0  0.4114579823046327  0.9678074501288735  0.4137238104584283  1.0000
  H   H16       1.0  0.9114557114333408  0.0321928801383393  0.08627568705137628  1.0000
  H   H17       1.0  0.827740422368258  0.829132928688104  0.40592867135345045  1.0000
  H   H18       1.0  0.32774499849466565  0.1708692795408808  0.0940726005175065  1.0000
  H   H19       1.0  0.1722601323175539  0.170866688431218  0.5940716144514724  1.0000
  H   H20       1.0  0.6722599936617684  0.8291330330824779  0.9059285143761071  1.0000
  C   C1        1.0  0.3235872904028199  0.8698029364338923  0.5705591842191992  1.0000
  C   C2        1.0  0.8235866017099128  0.1301939508711953  0.9294406163529841  1.0000
  C   C3        1.0  0.6764154830297286  0.13019398517830894  0.4294402724966346  1.0000
  C   C4        1.0  0.17641173423685072  0.8698056647846358  0.0705591502492382  1.0000
  C   C5        1.0  0.2406267061180856  0.7645345360263462  0.5932606097629574  1.0000
  C   C6        1.0  0.7406276557253691  0.2354633217408022  0.9067377465664137  1.0000
  C   C7        1.0  0.7593716298312644  0.23546418015110496  0.40673853434105206  1.0000
  C   C8        1.0  0.25937068021902115  0.7645371889998459  0.09326108492551552  1.0000
  C   C9        1.0  0.3593448443446193  0.7385893213109186  0.6556107124786337  1.0000
  C   C10       1.0  0.8593567595713694  0.261409331824531  0.8443903287486663  1.0000
  C   C11       1.0  0.6406423979061701  0.2614103016726474  0.3443916501384479  1.0000
  C   C12       1.0  0.14064823258772213  0.7385920798559268  0.1556096444438992  1.0000
  C   C13       1.0  0.5585984733704521  0.8221927872291276  0.6930096766244203  1.0000
  C   C14       1.0  0.058602954634722  0.1778034431129356  0.8069884952100422  1.0000
  C   C15       1.0  0.4413976438422154  0.17780503240001616  0.3069898833871889  1.0000
  C   C16       1.0  0.9413976000512321  0.8221961710773443  0.1930107521892097  1.0000
  C   C17       1.0  0.6404541285642366  0.9264586630378417  0.6687988078737915  1.0000
  C   C18       1.0  0.14045696554224216  0.0735374988085127  0.8312019500386469  1.0000
  C   C19       1.0  0.35954420738733006  0.07353916098383452  0.3312023097461889  1.0000
  C   C20       1.0  0.8595413704044431  0.9264621183118397  0.1687983357664109  1.0000
  C   C21       1.0  0.5238859478926656  0.9526551568738739  0.6061013089714393  1.0000
  C   C22       1.0  0.0238844767714284  0.0473420080309594  0.8938985279809514  1.0000
  C   C23       1.0  0.4761168255398828  0.0473417647383343  0.39389814774439447  1.0000
  C   C24       1.0  0.9761138591727417  0.9526585071032444  0.1061018611194839  1.0000
  C   C25       1.0  0.9989296107272027  0.7700713491772573  0.49555863591808696  1.0000
  C   C26       1.0  0.49892944403016776  0.22992710550489193  0.0044411635856746986  1.0000
  C   C27       1.0  0.0010709439610466001  0.22992737139272626  0.5044420657943007  1.0000
  C   C28       1.0  0.5010711106557153  0.7700725101499089  0.9955586030164197  1.0000
  C   C29       1.0  0.8192916656463752  0.7553213329826676  0.4342685436944507  1.0000
  C   C30       1.0  0.3192958380676103  0.24467998212929123  0.0657315875010624  1.0000
  C   C31       1.0  0.18070667029513737  0.2446800830944369  0.565732987107026  1.0000
  C   C32       1.0  0.6807091540914102  0.7553214310156874  0.9342689048943381  1.0000
  C   C33       1.0  0.6469735702866617  0.6566255208387376  0.40679833847224955  1.0000
  C   C34       1.0  0.1469794043830106  0.34337415785496017  0.093201607049771  1.0000
  C   C35       1.0  0.3530225469157315  0.3433758952393973  0.5932031923293621  1.0000
  C   C36       1.0  0.8530255877786743  0.6566263543471181  0.9067977436445814  1.0000
  C   C37       1.0  0.4899711574673091  0.6582091625225317  0.3361395743080919  1.0000
  C   C38       1.0  0.9899737976106241  0.34179289251154193  0.16386063946444546  1.0000
  C   C39       1.0  0.5100338346992571  0.3417895565808777  0.6638606082011904  1.0000
  C   C40       1.0  0.010031194543437  0.6582103151966338  0.8361395403188749  1.0000
  N   N1        1.0  0.037829690056270196  0.7032443792311228  0.5445513639551649  1.0000
  N   N2        1.0  0.5378347228420779  0.29675456731845173  0.9554481586921354  1.0000
  N   N3        1.0  0.962164208414613  0.2967543413419449  0.4554493377576279  1.0000
  N   N4        1.0  0.4621636131046785  0.7032450483373794  0.044551607910086916  1.0000
  O   O1        1.0  0.17106894238283135  0.8734614276332522  0.5088879261290699  1.0000
  O   O2        1.0  0.6710660390456625  0.12653649749283602  0.9911114770496849  1.0000
  O   O3        1.0  0.8289338310497173  0.12653549397895603  0.4911115305867638  1.0000
  O   O4        1.0  0.3289322968985786  0.873464016176854  0.008888392847907801  1.0000
  O   O5        1.0  0.6186139167803618  0.558593375742021  0.4303622285896722  1.0000
  O   O6        1.0  0.1186147734965317  0.4414081237854007  0.0696374077630892  1.0000
  O   O7        1.0  0.38137776294126985  0.4414089383520264  0.5696394055075871  1.0000
  O   O8        1.0  0.8813835624504449  0.5585914874768677  0.9303608012306268  1.0000
  F   F1        1.0  0.4062711302665818  0.7708025079022464  0.3282022527217023  1.0000
  F   F2        1.0  0.9062699580693804  0.2292005226748799  0.1717980745066185  1.0000
  F   F3        1.0  0.5937382993785931  0.229196203876505  0.6717953337731329  1.0000
  F   F4        1.0  0.09373059660644151  0.7708026850353491  0.828202105276965  1.0000
  F   F5        1.0  0.2425841589994135  0.5886198788737077  0.32827302886570914  1.0000
  F   F6        1.0  0.7425886281305623  0.4113841998657507  0.1717269023244512  1.0000
  F   F7        1.0  0.7574186144232158  0.4113806318648798  0.671725802625943  1.0000
  F   F8        1.0  0.2574185827575945  0.5886208038691051  0.8282734840494824  1.0000
  F   F9        1.0  0.6697801258972476  0.6137530539635564  0.2798392919573942  1.0000
  F   F10       1.0  0.1697834688941384  0.3862483996343612  0.22016085738709276  1.0000
  F   F11       1.0  0.3302293037499311  0.3862447700529827  0.7201618256619182  1.0000
  F   F12       1.0  0.8302259607432774  0.6137530105795292  0.7798385966023743  1.0000
