data_image0
_chemical_formula_structural       Zn3H50C48N18O20
_chemical_formula_sum              "Zn3 H50 C48 N18 O20"
_cell_length_a       12.60302528018049
_cell_length_b       13.005925056765626
_cell_length_c       12.924524235130873
_cell_angle_alpha    78.71135494267679
_cell_angle_beta     62.49309115925881
_cell_angle_gamma    61.96289213095471

_space_group_name_H-M_alt    "P 1"
_space_group_IT_number       1

loop_
  _space_group_symop_operation_xyz
  'x, y, z'

loop_
  _atom_site_type_symbol
  _atom_site_label
  _atom_site_symmetry_multiplicity
  _atom_site_fract_x
  _atom_site_fract_y
  _atom_site_fract_z
  _atom_site_occupancy
  Zn  Zn1       1.0  0.6517683187761635  0.1381803718950252  0.4021437252088516  1.0000
  Zn  Zn2       1.0  0.3481855527651021  0.8618320080624144  0.5978658262178769  1.0000
  Zn  Zn3       1.0  3.969056058401442e-05  0.9999651680063835  0.9999738869384274  1.0000
  H   H1        1.0  0.08968129039792688  0.8375708215237337  0.8731923742491217  1.0000
  H   H2        1.0  0.9782855509421111  0.1802869866231731  0.5626555440663665  1.0000
  H   H3        1.0  0.8183033914789846  0.9381175786707555  0.6052607504809799  1.0000
  H   H4        1.0  0.6809223076734411  0.1137817375485497  0.7228447802841842  1.0000
  H   H5        1.0  0.7215645641553365  0.2337915912092114  0.675320615707804  1.0000
  H   H6        1.0  0.9579991901431345  0.9696439350380358  0.7757798671956381  1.0000
  H   H7        1.0  0.6187246536781572  0.9204954890542396  0.5834359885637211  1.0000
  H   H8        1.0  0.34014963979998214  0.9583699892473732  0.8639637013310518  1.0000
  H   H9        1.0  0.5113027241325911  0.8608377639068222  0.7888797832683849  1.0000
  H   H10       1.0  0.26660692271663333  0.0861584624144314  0.02387872366779927  1.0000
  H   H11       1.0  0.6830462057633399  0.8654416829657519  0.8312360934768888  1.0000
  H   H12       1.0  0.9007709150515667  0.7752713543998837  0.17023235921328705  1.0000
  H   H13       1.0  0.020811961391160608  0.7823421149922609  0.19860206266036326  1.0000
  H   H14       1.0  0.7750568258763623  0.7492731966537248  0.382054822560761  1.0000
  H   H15       1.0  0.884640302232988  0.7700313320584369  0.4171305438762333  1.0000
  H   H16       1.0  0.939248850305731  0.37587543078014807  0.20537573863012437  1.0000
  H   H17       1.0  0.04084299051690721  0.2573092486866599  0.2639580075797099  1.0000
  H   H18       1.0  0.8478771074227964  0.3222610536867876  0.46698279162580286  1.0000
  H   H19       1.0  0.7471842989776434  0.4266804358113346  0.4006704055850462  1.0000
  H   H20       1.0  0.2506724489947628  0.4583703097189015  0.4339828992942287  1.0000
  H   H21       1.0  0.2793722055993726  0.3150242152740859  0.4104843690977019  1.0000
  H   H22       1.0  0.39094476801570727  0.3458969678966852  0.19017764925522582  1.0000
  H   H23       1.0  0.38954987135523583  0.4713745716468408  0.2255462793516827  1.0000
  H   H24       1.0  0.4019239581765747  0.284239271621935  0.641057209019223  1.0000
  H   H25       1.0  0.2812652103983312  0.7619596857406351  0.9642322033411189  1.0000
  H   H26       1.0  0.9103532530981367  0.1623794122487254  0.12675438681137058  1.0000
  H   H27       1.0  0.021756795240911335  0.8197485482419892  0.43727113856712657  1.0000
  H   H28       1.0  0.18173092369315916  0.061921416643848204  0.3946603735102485  1.0000
  H   H29       1.0  0.31911807163425027  0.8862686075311571  0.27708134085989405  1.0000
  H   H30       1.0  0.27852616142904213  0.7662302211127922  0.3246549251306164  1.0000
  H   H31       1.0  0.042108472376277496  0.030344339598286797  0.2241003729200131  1.0000
  H   H32       1.0  0.3813225567868486  0.0794899874500459  0.41659767277362647  1.0000
  H   H33       1.0  0.6598596673048932  0.0416050001588459  0.13606302727283287  1.0000
  H   H34       1.0  0.48870699937146606  0.1391346303263674  0.21115115094136885  1.0000
  H   H35       1.0  0.7333974216819215  0.9138139358473295  0.9761531099219171  1.0000
  H   H36       1.0  0.31696221207210573  0.134533315176661  0.1687925854835727  1.0000
  H   H37       1.0  0.09925129503002238  0.2247296108470138  0.8297576959692564  1.0000
  H   H38       1.0  0.9791846228918503  0.21767293505571667  0.801420008516814  1.0000
  H   H39       1.0  0.22490085499985213  0.2507783189577922  0.6179380939152991  1.0000
  H   H40       1.0  0.11530267783324179  0.23002114982590877  0.5828835670471619  1.0000
  H   H41       1.0  0.06071479682493227  0.6242057405027521  0.7946239227205467  1.0000
  H   H42       1.0  0.9591611810634221  0.7427437956144871  0.7359871367984285  1.0000
  H   H43       1.0  0.15214577147685293  0.6777075926497318  0.5329895285406039  1.0000
  H   H44       1.0  0.2528048384987259  0.5732988365935581  0.59933987248111  1.0000
  H   H45       1.0  0.7492710495095101  0.5417083428955606  0.5660380473391696  1.0000
  H   H46       1.0  0.7205467094288455  0.6850434438514482  0.5896111191549024  1.0000
  H   H47       1.0  0.608947639617938  0.6541278426000119  0.809883656231058  1.0000
  H   H48       1.0  0.6104279713286189  0.5286204663042112  0.7744821890410662  1.0000
  H   H49       1.0  0.5980276313627896  0.7157418529633546  0.3589775163695919  1.0000
  H   H50       1.0  0.71878216229139  0.23789159475091282  0.035799201115857306  1.0000
  C   C1        1.0  0.9880860320628243  0.10086903028783918  0.5354347716504506  1.0000
  C   C2        1.0  0.88404975556292  0.0678330214028406  0.5951238654887233  1.0000
  C   C3        1.0  0.89727671067692  0.9662013713494559  0.5589029216131108  1.0000
  C   C4        1.0  0.7598996678029976  0.1412041484251745  0.696709426066356  1.0000
  C   C5        1.0  0.7563778536926761  0.18761511494337668  0.9581685142320566  1.0000
  C   C6        1.0  0.8800582242746912  0.04932180329817729  0.82687995008272  1.0000
  C   C7        1.0  0.43781671217212903  0.19123445203398862  0.6546635475112622  1.0000
  C   C8        1.0  0.5497143013126902  0.007009136451813401  0.6225067172285464  1.0000
  C   C9        1.0  0.44226839520872846  0.947923609791779  0.829161417438712  1.0000
  C   C10       1.0  0.4714869203879177  0.9716868371188807  0.9200328017303293  1.0000
  C   C11       1.0  0.3685050257266909  0.04755876327352129  0.014660132034521265  1.0000
  C   C12       1.0  0.6030262800583658  0.9244976646187338  0.9054047887434888  1.0000
  C   C13       1.0  0.8337512893720317  0.9331025603225457  0.25598032379701163  1.0000
  C   C14       1.0  0.9149505151076199  0.8020678580804271  0.23662739559653545  1.0000
  C   C15       1.0  0.8770438507862226  0.7376465683595869  0.35006807442315563  1.0000
  C   C16       1.0  0.9226769850965936  0.5404283225651126  0.30984108261634463  1.0000
  C   C17       1.0  0.07476219551640656  0.5695023131300869  0.3569360177534264  1.0000
  C   C18       1.0  0.11184891337889279  0.3705756160636468  0.3307686445277298  1.0000
  C   C19       1.0  0.9577250975413634  0.34424620284990937  0.28325467158253304  1.0000
  C   C20       1.0  0.833803173291109  0.3416978784676274  0.38623418557567385  1.0000
  C   C21       1.0  0.8003538629358433  0.25069899831269987  0.3685489349742993  1.0000
  C   C22       1.0  0.2667763026746429  0.4001887303308819  0.3719755678847107  1.0000
  C   C23       1.0  0.3895438952127606  0.38689214931814314  0.2581826409260016  1.0000
  C   C24       1.0  0.5185137732911967  0.3078742095913043  0.27124508531406377  1.0000
  C   C25       1.0  0.011966042348056902  0.8991578173950144  0.4644977574750299  1.0000
  C   C26       1.0  0.11600538404616154  0.9321877712297776  0.40481855563917435  1.0000
  C   C27       1.0  0.10277349766051459  0.0338202776326426  0.4410361535370555  1.0000
  C   C28       1.0  0.24016477723647267  0.8588088388201811  0.3032411763064857  1.0000
  C   C29       1.0  0.24367099305140294  0.8122726389169939  0.04183547805653371  1.0000
  C   C30       1.0  0.12003288754934269  0.950635310812757  0.17304663856642577  1.0000
  C   C31       1.0  0.562159994355895  0.8087466698808113  0.3453705816908722  1.0000
  C   C32       1.0  0.45030999660632887  0.9929754469118632  0.37752207645505115  1.0000
  C   C33       1.0  0.5577404547432395  0.0520505169245666  0.17086724164582995  1.0000
  C   C34       1.0  0.5285201417061315  0.0282872967008601  0.07999744319033657  1.0000
  C   C35       1.0  0.6314997507883787  0.9524127635621724  0.9853716816792826  1.0000
  C   C36       1.0  0.39698115476036117  0.07547211917407991  0.09462694263372382  1.0000
  C   C37       1.0  0.16625137361290857  0.0669105596595116  0.7439999120873964  1.0000
  C   C38       1.0  0.08504863739485558  0.19794534869124192  0.7633722160993627  1.0000
  C   C39       1.0  0.12291457206183047  0.2623928308110521  0.6499432105606715  1.0000
  C   C40       1.0  0.07726984581417183  0.4596077426820173  0.6902040079665568  1.0000
  C   C41       1.0  0.9251740021797302  0.4305407242885692  0.6431094021758456  1.0000
  C   C42       1.0  0.8881140365814489  0.6294638292905077  0.6692529509408515  1.0000
  C   C43       1.0  0.04226292336912956  0.6557983073849201  0.7167305024836637  1.0000
  C   C44       1.0  0.1662103145368549  0.6582951865224018  0.6137428711804346  1.0000
  C   C45       1.0  0.19969383900006218  0.7492843205804575  0.6313920915297899  1.0000
  C   C46       1.0  0.7331600260449987  0.5998595716494535  0.6280780094925335  1.0000
  C   C47       1.0  0.6103925700628352  0.6131177687141046  0.7418608637300039  1.0000
  C   C48       1.0  0.48141753075674415  0.6921025377819063  0.7287850574377901  1.0000
  N   N1        1.0  0.962270844413247  0.6111879298043874  0.33728474099689265  1.0000
  N   N2        1.0  0.1452986022392509  0.44886401466914794  0.3540308153745215  1.0000
  N   N3        1.0  0.0006491550339476468  0.4208158667613304  0.3077762645530484  1.0000
  N   N4        1.0  0.5378660180091188  0.1084640982853102  0.5693927173501124  1.0000
  N   N5        1.0  0.3872858661831842  0.1464072855756982  0.7567091831868566  1.0000
  N   N6        1.0  0.45990478009085234  0.029553628798964792  0.7342516938527127  1.0000
  N   N7        1.0  0.8641210447533112  0.081164190736132  0.9275051333366875  1.0000
  N   N8        1.0  0.7047633869901658  0.22279026835398946  0.8811692833358152  1.0000
  N   N9        1.0  0.7850615351590164  0.1346817234545199  0.7985368814536855  1.0000
  N   N10       1.0  0.037672442216369  0.3888515971434785  0.6627550702946863  1.0000
  N   N11       1.0  0.8546372037229376  0.5511799391077901  0.6460246555644884  1.0000
  N   N12       1.0  0.9993160273262375  0.5792227138886616  0.6922468117062123  1.0000
  N   N13       1.0  0.46213998822349844  0.8915248612070669  0.430640417104314  1.0000
  N   N14       1.0  0.6126928792229834  0.8535642250160648  0.24331900406477308  1.0000
  N   N15       1.0  0.5401031650599181  0.9704204893719393  0.2657750574600186  1.0000
  N   N16       1.0  0.13595944467333967  0.9187477216224734  0.07244551579186258  1.0000
  N   N17       1.0  0.295269446220729  0.7771262876895264  0.11884543857655665  1.0000
  N   N18       1.0  0.21499836854901844  0.8652773095675242  0.2014290521721804  1.0000
  O   O1        1.0  0.6897300773867343  0.2506472386069021  0.4458920733802572  1.0000
  O   O2        1.0  0.8787049050261614  0.1797144308688985  0.2831017858633871  1.0000
  O   O3        1.0  0.509523430650134  0.22936930651174944  0.3500170335669067  1.0000
  O   O4        1.0  0.6214860300537738  0.3200578052709062  0.20620407913811786  1.0000
  O   O5        1.0  0.8394333393575409  0.0019570424275414996  0.1721600983691118  1.0000
  O   O6        1.0  0.7574493678912122  0.9696368455443504  0.3627740542829017  1.0000
  O   O7        1.0  0.8242913679568603  0.5806417345062015  0.2902690279497903  1.0000
  O   O8        1.0  0.10914445878105282  0.6344625233776782  0.3778154156599456  1.0000
  O   O9        1.0  0.17786519742504228  0.2644135762479181  0.3303621737353026  1.0000
  O   O10       1.0  0.03387695224427763  0.8511401544196955  0.958006107600738  1.0000
  O   O11       1.0  0.31031742170842586  0.7493273232984093  0.554039215505611  1.0000
  O   O12       1.0  0.12135998595386624  0.820277579257983  0.7168342986286335  1.0000
  O   O13       1.0  0.49037782215463477  0.7706468324514829  0.650053612019299  1.0000
  O   O14       1.0  0.3784722109938273  0.6798586048822344  0.7937780726991902  1.0000
  O   O15       1.0  0.16060989290252076  0.9980447090046455  0.8278109466559087  1.0000
  O   O16       1.0  0.24251176510309594  0.030387572228285392  0.6371995754268625  1.0000
  O   O17       1.0  0.17564463255448706  0.4193874334412158  0.7097924484431388  1.0000
  O   O18       1.0  0.8907846876289939  0.3655874789183429  0.6222287051948143  1.0000
  O   O19       1.0  0.8221170025732009  0.7356283861418831  0.6696377719300913  1.0000
  O   O20       1.0  0.9661839576235707  0.1488039976285194  0.04194459048051163  1.0000
