data_image0
_chemical_formula_structural       Bi4H40C32S8Cl12
_chemical_formula_sum              "Bi4 H40 C32 S8 Cl12"
_cell_length_a       7.197686141005249
_cell_length_b       8.90218203850246
_cell_length_c       20.823628752095292
_cell_angle_alpha    98.04199274375628
_cell_angle_beta     90.0001283271865
_cell_angle_gamma    89.9999344944295

_space_group_name_H-M_alt    "P 1"
_space_group_IT_number       1

loop_
  _space_group_symop_operation_xyz
  'x, y, z'

loop_
  _atom_site_type_symbol
  _atom_site_label
  _atom_site_symmetry_multiplicity
  _atom_site_fract_x
  _atom_site_fract_y
  _atom_site_fract_z
  _atom_site_occupancy
  Bi  Bi1       1.0  0.7528572702268903  0.5274627126293934  0.556897762754609  1.0000
  Bi  Bi2       1.0  0.2528548117813756  0.47254700299527036  0.9431045979916207  1.0000
  Bi  Bi3       1.0  0.2471374734985474  0.47253543468465137  0.4431012182028056  1.0000
  Bi  Bi4       1.0  0.7471440999522085  0.5274534019133127  0.0568954832191224  1.0000
  H   H1        1.0  0.3430525814744598  0.5100559787079817  0.7458380039846304  1.0000
  H   H2        1.0  0.843054974099836  0.4899423559125678  0.7541613211748484  1.0000
  H   H3        1.0  0.6569435515868137  0.48994443186620623  0.2541615973461617  1.0000
  H   H4        1.0  0.15694671630094353  0.5100557970636003  0.2458371799061894  1.0000
  H   H5        1.0  0.46437619541703873  0.378938821577428  0.6877464550162173  1.0000
  H   H6        1.0  0.9643746160294739  0.6210605604789662  0.8122530295377786  1.0000
  H   H7        1.0  0.5356199376421387  0.6210627291240056  0.3122527366826233  1.0000
  H   H8        1.0  0.03562151703025051  0.3789398557598388  0.187746091914093  1.0000
  H   H9        1.0  0.2828621412427665  0.4919352980564182  0.6602670610751673  1.0000
  H   H10       1.0  0.7828636717772427  0.5080630854050481  0.8397317399769263  1.0000
  H   H11       1.0  0.71713260248103  0.5080662526455128  0.3397321306231618  1.0000
  H   H12       1.0  0.21713523995378384  0.49193619637014036  0.160267311228985  1.0000
  H   H13       1.0  0.2081548704005911  0.7411467835110982  0.7349842321985847  1.0000
  H   H14       1.0  0.7081562586629603  0.2588505077478018  0.7650154034691852  1.0000
  H   H15       1.0  0.7918454306714723  0.25885361006776714  0.2650168087705183  1.0000
  H   H16       1.0  0.291844042405998  0.7411498971602836  0.2349846777420694  1.0000
  H   H17       1.0  0.039639401076272  0.9774781390903513  0.7221080645852638  1.0000
  H   H18       1.0  0.5396384158242283  0.022521541974675992  0.777891587749835  1.0000
  H   H19       1.0  0.9603636786675553  0.022523383285530895  0.2778935265107592  1.0000
  H   H20       1.0  0.4603632745770057  0.9774788742621398  0.22210753370406883  1.0000
  H   H21       1.0  0.17985425159700696  0.16457654305494165  0.6574491720979125  1.0000
  H   H22       1.0  0.6798539648070657  0.8354207628406339  0.8425509226527765  1.0000
  H   H23       1.0  0.8201446601422404  0.8354249736578224  0.3425528988755033  1.0000
  H   H24       1.0  0.32014772559107024  0.16457966472540156  0.1574472390432788  1.0000
  H   H25       1.0  0.4914667698279516  0.11785809812376156  0.6089711217622806  1.0000
  H   H26       1.0  0.9914667320546684  0.8821412475055508  0.8910298223352983  1.0000
  H   H27       1.0  0.5085335312410136  0.8821423067843241  0.39102895944896693  1.0000
  H   H28       1.0  0.008533569010644702  0.11786030319438372  0.1089693693650702  1.0000
  H   H29       1.0  0.6487511688793361  0.9531276548203773  0.5157580454225368  1.0000
  H   H30       1.0  0.14875094528630936  0.04686965639229608  0.9842434661103071  1.0000
  H   H31       1.0  0.3512505215297494  0.04686933537011129  0.48424278480616323  1.0000
  H   H32       1.0  0.8512493557826561  0.9531307485157898  0.01575661510094762  1.0000
  H   H33       1.0  0.8944746127766836  0.9284018185585688  0.5202976780115448  1.0000
  H   H34       1.0  0.39447432620126227  0.0715964565183  0.9797036044477353  1.0000
  H   H35       1.0  0.10552568829911732  0.0715940315051853  0.47970356184859503  1.0000
  H   H36       1.0  0.6055259748640509  0.9284050941816342  0.020295587252633078  1.0000
  H   H37       1.0  0.789804186524485  0.0942854978176015  0.5647663566533154  1.0000
  H   H38       1.0  0.2898038656087181  0.9057117122145469  0.9352352585257221  1.0000
  H   H39       1.0  0.21019750388460076  0.9057114923728872  0.43523447357538453  1.0000
  H   H40       1.0  0.7101978247935252  0.09428983282028008  0.06476441305408541  1.0000
  C   C1        1.0  0.3943272460231668  0.4893598022626335  0.6959044283198708  1.0000
  C   C2        1.0  0.8943271538488489  0.5106373611156909  0.8040948642685207  1.0000
  C   C3        1.0  0.6056702763740277  0.5106394738484353  0.3040951027644638  1.0000
  C   C4        1.0  0.10567314722066361  0.48936190932977297  0.1959051466957575  1.0000
  C   C5        1.0  0.44359698080801735  0.7929615030917816  0.6776559456199891  1.0000
  C   C6        1.0  0.9435988094640207  0.20703675940616506  0.8223434534196415  1.0000
  C   C7        1.0  0.556401930929674  0.20704001928559276  0.3223456454744991  1.0000
  C   C8        1.0  0.05640149159974331  0.7929647969583796  0.1776552584017992  1.0000
  C   C9        1.0  0.2696578224308155  0.8225454981580355  0.7067551875810878  1.0000
  C   C10       1.0  0.7696553357074903  0.17745288911201126  0.793244083645881  1.0000
  C   C11       1.0  0.7303466466494017  0.17745715301536077  0.2932469536413436  1.0000
  C   C12       1.0  0.23034079735269591  0.822549790387434  0.2067556581788565  1.0000
  C   C13       1.0  0.17556497050942713  0.956122986917371  0.6998175181229342  1.0000
  C   C14       1.0  0.675562710595088  0.0438765909809717  0.8001827139691926  1.0000
  C   C15       1.0  0.8244394985686867  0.043880804383270786  0.3001842134675456  1.0000
  C   C16       1.0  0.32443759047323795  0.9561283461130116  0.1998181281088733  1.0000
  C   C17       1.0  0.2545630741794014  0.06115594423400238  0.6638952882332347  1.0000
  C   C18       1.0  0.7545626048549893  0.9388424425339111  0.8361049316606567  1.0000
  C   C19       1.0  0.7454400055638786  0.9388467126045087  0.3361063731097644  1.0000
  C   C20       1.0  0.24543908555354932  0.06115568211919958  0.1638959688150123  1.0000
  C   C21       1.0  0.4297234605965557  0.03438587070259298  0.636085860921071  1.0000
  C   C22       1.0  0.9297245234959919  0.9656101271575607  0.863913867308959  1.0000
  C   C23       1.0  0.5702754511380306  0.9656156630040087  0.363914770415569  1.0000
  C   C24       1.0  0.07027438823822509  0.034385745565131694  0.1360854530349727  1.0000
  C   C25       1.0  0.5262622504258871  0.901111815606711  0.6430179353136651  1.0000
  C   C26       1.0  0.026266692429814505  0.09888447732883779  0.8569810165740107  1.0000
  C   C27       1.0  0.47373527197231624  0.09888858930236918  0.3569821458965663  1.0000
  C   C28       1.0  0.9737391659775626  0.9011159389064785  0.1430181048814276  1.0000
  C   C29       1.0  0.7709391346314901  0.9734019954462169  0.5470826003464495  1.0000
  C   C30       1.0  0.2709345686138321  0.026594110650989895  0.9529174910851737  1.0000
  C   C31       1.0  0.22906255577658644  0.026593865946253497  0.45291767975634656  1.0000
  C   C32       1.0  0.72906573245303  0.9734074343843342  0.04708218049412238  1.0000
  S   S1        1.0  0.5709310949339966  0.6268140581889979  0.6851331289151616  1.0000
  S   S2        1.0  0.0709307234362271  0.373184454637709  0.8148674359242918  1.0000
  S   S3        1.0  0.42906781679702993  0.37318522358618367  0.3148659222907568  1.0000
  S   S4        1.0  0.929070966965014  0.6268159615991065  0.18513168552961903  1.0000
  S   S5        1.0  0.7543535384036703  0.8664479375056826  0.614255354859985  1.0000
  S   S6        1.0  0.2543525613484618  0.13354930928548467  0.8857452745117058  1.0000
  S   S7        1.0  0.24564676266902546  0.13354792388729206  0.3857449252423065  1.0000
  S   S8        1.0  0.7456477397189473  0.8664511012872179  0.11425432682062109  1.0000
  Cl  Cl1       1.0  0.8926900772060905  0.35213517092469704  0.6343056691916757  1.0000
  Cl  Cl2       1.0  0.3926882698493089  0.6478619709701829  0.8656955417087887  1.0000
  Cl  Cl3       1.0  0.107308834527494  0.6478652339838931  0.3656944120190673  1.0000
  Cl  Cl4       1.0  0.6073134205571266  0.3521372938101734  0.134304949134922  1.0000
  Cl  Cl5       1.0  0.8923977358273446  0.3402702781731506  0.4516628609703375  1.0000
  Cl  Cl6       1.0  0.39239942263859723  0.6597297761958884  0.0483365691729318  1.0000
  Cl  Cl7       1.0  0.10760673324637789  0.6597233369515222  0.5483353591238326  1.0000
  Cl  Cl8       1.0  0.6076064357713307  0.3402717631728364  0.9516635822873311  1.0000
  Cl  Cl9       1.0  0.45789310252955323  0.33472472716679386  0.5376281058171628  1.0000
  Cl  Cl10      1.0  0.9578896524849227  0.6652780855870616  0.9623696651975494  1.0000
  Cl  Cl11      1.0  0.5421071985353052  0.6652745602725003  0.4623704655103325  1.0000
  Cl  Cl12      1.0  0.04211064858458971  0.33472118485840235  0.0376303457667291  1.0000
