data_image0
_chemical_formula_structural       Zn4H39C44N17O2
_chemical_formula_sum              "Zn4 H39 C44 N17 O2"
_cell_length_a       14.439694841868643
_cell_length_b       15.017268379259058
_cell_length_c       15.34498041656992
_cell_angle_alpha    102.6013682933774
_cell_angle_beta     109.48260669406856
_cell_angle_gamma    114.43011967878392

_space_group_name_H-M_alt    "P 1"
_space_group_IT_number       1

loop_
  _space_group_symop_operation_xyz
  'x, y, z'

loop_
  _atom_site_type_symbol
  _atom_site_label
  _atom_site_symmetry_multiplicity
  _atom_site_fract_x
  _atom_site_fract_y
  _atom_site_fract_z
  _atom_site_occupancy
  Zn  Zn1       1.0  0.12823635628578967  0.6455672635064148  0.07853855953702986  1.0000
  Zn  Zn2       1.0  0.8425549274524828  0.37274401032921417  0.9894287409487037  1.0000
  Zn  Zn3       1.0  0.8504784639169501  0.5040527184137318  0.8418265321981904  1.0000
  Zn  Zn4       1.0  0.12104351194175678  0.4978881986693223  0.17652577095508085  1.0000
  H   H1        1.0  0.15319241225034833  0.876833181976302  0.14293326600309084  1.0000
  H   H2        1.0  0.7738974430814382  0.48868174839593354  0.1278565260476937  1.0000
  H   H3        1.0  0.5924122214768629  0.4720512977545325  0.7708375696793793  1.0000
  H   H4        1.0  0.3761339342481165  0.6676005363665353  0.4086081575425097  1.0000
  H   H5        1.0  0.5684471309622695  0.2827921681159396  0.947551077411454  1.0000
  H   H6        1.0  0.37777277272276427  0.8674094353379048  0.24353875350156054  1.0000
  H   H7        1.0  0.14563752911414707  0.702406790950711  0.31160621716694686  1.0000
  H   H8        1.0  0.7885381637055107  0.6675315646039268  0.9243008426118423  1.0000
  H   H9        1.0  0.1521202424402049  0.5400649408872696  0.8738846282243032  1.0000
  H   H10       1.0  0.8028749351706211  0.158142358750233  0.8481547926099964  1.0000
  H   H11       1.0  0.7543489972499203  0.5049112349076524  0.6016266642061153  1.0000
  H   H12       1.0  0.10089678064391452  0.3219332440304755  0.26823143467397154  1.0000
  H   H13       1.0  0.7597302658555305  0.1441914776467002  0.0070386577482963765  1.0000
  H   H14       1.0  0.1255421323499848  0.7292910514132986  0.7566240767402947  1.0000
  H   H15       1.0  0.16436820130763152  0.3349394192116648  0.03248725992511226  1.0000
  H   H16       1.0  0.8061476375629086  0.33018367698664974  0.655611768725791  1.0000
  H   H17       1.0  0.4954275555779547  0.8362697374371068  0.561705816454058  1.0000
  H   H18       1.0  0.42558769709511785  0.9080616582266003  0.5406152322504667  1.0000
  H   H19       1.0  0.5828306898741433  0.049228298339031196  0.6938244007903975  1.0000
  H   H20       1.0  0.6643912735713543  0.9876719353793676  0.6974655248100134  1.0000
  H   H21       1.0  0.6467541477046836  0.8622160792163598  0.5025833846229871  1.0000
  H   H22       1.0  0.803614062470196  0.03285872368804385  0.6261160503687577  1.0000
  H   H23       1.0  0.5443831291275175  0.014171300624788356  0.3794931023177881  1.0000
  H   H24       1.0  0.43459717109162455  0.9936892039679323  0.41421059882814837  1.0000
  H   H25       1.0  0.564949470197455  0.14104146148226715  0.5710360560508009  1.0000
  H   H26       1.0  0.6629981136932415  0.17531498166835743  0.5221428537917916  1.0000
  H   H27       1.0  0.6505819152268444  0.9166889996640039  0.4122146645284985  1.0000
  H   H28       1.0  0.7867143880313988  0.09177260608853288  0.5388722093688117  1.0000
  H   H29       1.0  0.1016324330742722  0.7604247358026798  0.6063564060590636  1.0000
  H   H30       1.0  0.8469855090243288  0.5753706301012543  0.47681983163045055  1.0000
  H   H31       1.0  0.11259678235710886  0.743355919590748  0.45394205889554223  1.0000
  H   H32       1.0  0.8472670420232475  0.5967666085618576  0.33227798732419694  1.0000
  H   H33       1.0  0.37037367865288934  0.2440741147516121  0.8942194637893692  1.0000
  H   H34       1.0  0.40963196431621907  0.42239335413819395  0.817524175726426  1.0000
  H   H35       1.0  0.2345377781183517  0.2682171969967515  0.9315314535693276  1.0000
  H   H36       1.0  0.2596112969809994  0.4276892844523204  0.8316252191179883  1.0000
  H   H37       1.0  0.754845971820444  0.9759318996821307  0.019485095407119766  1.0000
  H   H38       1.0  0.9974129205723374  0.10673374851013055  0.2059612943874711  1.0000
  H   H39       1.0  0.7721656818855679  0.8199724277157969  0.023659371162309924  1.0000
  C   C1        1.0  0.0673743835219227  0.8119179926025595  0.08342039601446757  1.0000
  C   C2        1.0  0.8673658716836529  0.5348411590816369  0.15891456328082398  1.0000
  C   C3        1.0  0.604638712101675  0.4283103875277378  0.8170617385575554  1.0000
  C   C4        1.0  0.36156182863532393  0.7023022341598164  0.3541038742110486  1.0000
  C   C5        1.0  0.5915073174045915  0.3305140805756108  0.9058248027617494  1.0000
  C   C6        1.0  0.3624676787444728  0.803901282378405  0.26994150878799417  1.0000
  C   C7        1.0  0.05670054890527608  0.6439871669563361  0.2532884283415696  1.0000
  C   C8        1.0  0.8804265070234366  0.7043495077391384  0.9734451551135308  1.0000
  C   C9        1.0  0.9635296883571981  0.8106784169543744  0.04739827649309072  1.0000
  C   C10       1.0  0.953498218147985  0.6139167764729976  0.25827606689950494  1.0000
  C   C11       1.0  0.5300648094967998  0.36949954946895525  0.8505895892487915  1.0000
  C   C12       1.0  0.4227588433840949  0.8088855462063335  0.36565077772456056  1.0000
  C   C13       1.0  0.15067863017294772  0.49782471955623464  0.9230624040420351  1.0000
  C   C14       1.0  0.8126113855657451  0.21556941319850134  0.8142000373666461  1.0000
  C   C15       1.0  0.8465204637568534  0.5577382344982665  0.6542430576544901  1.0000
  C   C16       1.0  0.019488967885607177  0.2945598483507581  0.20343436975747406  1.0000
  C   C17       1.0  0.8459463556622993  0.203421419647178  0.06984598385365359  1.0000
  C   C18       1.0  0.035886984319802334  0.6728953392264216  0.7344713385530355  1.0000
  C   C19       1.0  0.15541969261679608  0.39229782210598063  0.0034162555376439285  1.0000
  C   C20       1.0  0.8143233982070655  0.3027808363647821  0.7161099625687583  1.0000
  C   C21       1.0  0.1761038965973969  0.4169276676899546  0.9254868987287637  1.0000
  C   C22       1.0  0.7746341745575269  0.19830294894743633  0.711785061438576  1.0000
  C   C23       1.0  0.93615675844341  0.6251391788436677  0.6386735124667594  1.0000
  C   C24       1.0  0.9228662959509394  0.18948697081772542  0.1425709217178053  1.0000
  C   C25       1.0  0.5061681674282925  0.9100944614267663  0.5527943080105758  1.0000
  C   C26       1.0  0.6114026654648869  0.010418227167768692  0.64841984726516  1.0000
  C   C27       1.0  0.641762702405366  0.9263354677896845  0.4816293414518428  1.0000
  C   C28       1.0  0.5222273023142137  0.007640160603060137  0.4407978102558872  1.0000
  C   C29       1.0  0.5213724420617041  0.909850682534902  0.45795896162277916  1.0000
  C   C30       1.0  0.688398833472583  0.09266623363227931  0.6193515315396497  1.0000
  C   C31       1.0  0.7396845581744316  0.039374225134110874  0.5686371416386321  1.0000
  C   C32       1.0  0.6094710260662312  0.1113967939810081  0.5387054028704483  1.0000
  C   C33       1.0  0.01990288880035963  0.7028763389050853  0.5365882375451037  1.0000
  C   C34       1.0  0.9295359855162673  0.6340743542580256  0.5457171142533923  1.0000
  C   C35       1.0  0.024637840157602498  0.6987309445634865  0.4434858204472222  1.0000
  C   C36       1.0  0.936769218591003  0.6393509161818329  0.3463110349941659  1.0000
  C   C37       1.0  0.35369334026053434  0.3025798130271016  0.871968206172646  1.0000
  C   C38       1.0  0.4250911682805738  0.36437738609417647  0.8419717783586478  1.0000
  C   C39       1.0  0.2668673622052611  0.31418063674528457  0.8909378817554839  1.0000
  C   C40       1.0  0.2326032178133419  0.38376736645653164  0.8755091528704712  1.0000
  C   C41       1.0  0.8370671395204  0.9912612954461224  0.07483085459746501  1.0000
  C   C42       1.0  0.9198310433663796  0.09305946346001555  0.14537640306464542  1.0000
  C   C43       1.0  0.8504168348832124  0.8998124502166363  0.059031678106435795  1.0000
  C   C44       1.0  0.9487935499276433  0.9005006381567568  0.07413486168659478  1.0000
  N   N1        1.0  0.046472034173859825  0.7144409437985074  0.033890349842252455  1.0000
  N   N2        1.0  0.9157979966936338  0.5169142341068493  0.10147103249607169  1.0000
  N   N3        1.0  0.7013434731368451  0.42466365276193585  0.8496476822723836  1.0000
  N   N4        1.0  0.271639671876315  0.6395304369673979  0.2587244220242653  1.0000
  N   N5        1.0  0.6931240576843013  0.36397365455511027  0.9050748243443325  1.0000
  N   N6        1.0  0.27278874142341897  0.7033329226654886  0.20690393256811027  1.0000
  N   N7        1.0  0.033507841469102635  0.5834896100838236  0.15924687878307958  1.0000
  N   N8        1.0  0.9312143395405812  0.6478116295263945  0.9663928032711623  1.0000
  N   N9        1.0  0.12013052837271244  0.520154067697476  0.9950612773767914  1.0000
  N   N10       1.0  0.8674019215652679  0.32150442637011173  0.8739267309763576  1.0000
  N   N11       1.0  0.8913881172513243  0.5671113100179427  0.7506909653133036  1.0000
  N   N12       1.0  0.002082063467781841  0.36438203954865145  0.16873263761326734  1.0000
  N   N13       1.0  0.8935370460807023  0.30710534583594307  0.08526945817554579  1.0000
  N   N14       1.0  0.00942595311953908  0.6379016684171503  0.8006614302242594  1.0000
  N   N15       1.0  0.12337017770650503  0.45499471345419096  0.044508784073855154  1.0000
  N   N16       1.0  0.8682919120497135  0.37546516315883594  0.813045211112879  1.0000
  N   N17       1.0  0.059748491339533416  0.004866237362804817  0.11643699367703421  1.0000
  O   O1        1.0  0.1324148505639045  0.03740905239661172  0.20579648670142353  1.0000
  O   O2        1.0  0.07400856158529481  0.049621088703617  0.059392964435133394  1.0000
