data_image0
_chemical_formula_structural       Hg2H16C22I6N6O2
_chemical_formula_sum              "Hg2 H16 C22 I6 N6 O2"
_cell_length_a       6.717145986989169
_cell_length_b       7.624864239328549
_cell_length_c       17.804195144848226
_cell_angle_alpha    102.2315274735627
_cell_angle_beta     89.93668118004184
_cell_angle_gamma    116.1541490156054

_space_group_name_H-M_alt    "P 1"
_space_group_IT_number       1

loop_
  _space_group_symop_operation_xyz
  'x, y, z'

loop_
  _atom_site_type_symbol
  _atom_site_label
  _atom_site_symmetry_multiplicity
  _atom_site_fract_x
  _atom_site_fract_y
  _atom_site_fract_z
  _atom_site_occupancy
  Hg  Hg1       1.0  0.8423034464030154  0.6859250806719076  0.5541973130050837  1.0000
  Hg  Hg2       1.0  0.15768980088497392  0.31407951841085696  0.4458008461643105  1.0000
  H   H1        1.0  0.5190541559396351  0.03532802579459121  0.6861807762767713  1.0000
  H   H2        1.0  0.48094429252190457  0.9646750675197142  0.313817805964078  1.0000
  H   H3        1.0  0.6164472691614336  0.23169382165140462  0.5827149094589787  1.0000
  H   H4        1.0  0.38354743330991437  0.7683017708044277  0.41727961879749403  1.0000
  H   H5        1.0  0.8828887787437979  0.7668601083966209  0.7527861940463652  1.0000
  H   H6        1.0  0.11712306220120182  0.23314297753012886  0.24721406962316916  1.0000
  H   H7        1.0  0.5984344151133243  0.1956779832853429  0.002321914844657209  1.0000
  H   H8        1.0  0.4015773984827576  0.8043190919490828  0.9976772384139354  1.0000
  H   H9        1.0  0.7963098263063699  0.5900428474170525  0.23103055476460815  1.0000
  H   H10       1.0  0.20367964946894546  0.4099542187754466  0.7689702874976804  1.0000
  H   H11       1.0  0.9432391675895174  0.8853211767548429  0.17149014633648824  1.0000
  H   H12       1.0  0.05674735588248579  0.11468189732278938  0.8285123683911026  1.0000
  H   H13       1.0  0.9194948700143186  0.8396910047453761  0.02997449843820023  1.0000
  H   H14       1.0  0.08049684202021014  0.16030755955229384  0.9700276034438178  1.0000
  H   H15       1.0  0.6626764501820049  0.32461352405616856  0.8979050881339534  1.0000
  H   H16       1.0  0.3373115536954075  0.6753865514175247  0.10209546751477923  1.0000
  C   C1        1.0  0.6004623328832039  0.19922434374036874  0.7014598362535055  1.0000
  C   C2        1.0  0.3995346079742391  0.8007727494899586  0.29853539019959646  1.0000
  C   C3        1.0  0.6540696672522585  0.30725826769837994  0.6439478272243735  1.0000
  C   C4        1.0  0.34592508779005743  0.6927493434727695  0.35604948327709723  1.0000
  C   C5        1.0  0.8013044066026257  0.6031149656809592  0.7376585820750494  1.0000
  C   C6        1.0  0.1987111614911399  0.3968896210892083  0.26234237947549144  1.0000
  C   C7        1.0  0.7464720665555904  0.49353845342454883  0.7947357111084089  1.0000
  C   C8        1.0  0.253536007130478  0.506457104950556  0.20526611280781995  1.0000
  C   C9        1.0  0.8002749809077728  0.6022257213612293  0.8788164857530064  1.0000
  C   C10       1.0  0.19971450960543546  0.39777435151207646  0.12118463100319593  1.0000
  C   C11       1.0  0.7572125447262295  0.5142170407744119  0.0071155218646979145  1.0000
  C   C12       1.0  0.24278510974797737  0.4857785197874875  0.9928857428378  1.0000
  C   C13       1.0  0.6736955862364482  0.34642791368828807  0.039999944751606606  1.0000
  C   C14       1.0  0.32631099883716524  0.6535646566222865  0.9599976750245819  1.0000
  C   C15       1.0  0.6883104678249409  0.3750695049546949  0.11994972483467593  1.0000
  C   C16       1.0  0.31169092230553036  0.6249275671278911  0.8800499920563996  1.0000
  C   C17       1.0  0.7849502402983006  0.568196667655485  0.16843194149763724  1.0000
  C   C18       1.0  0.21504074961195846  0.43180341863334354  0.8315663678274208  1.0000
  C   C19       1.0  0.8672261020467146  0.7333059967173912  0.13483638814016533  1.0000
  C   C20       1.0  0.1327693392634473  0.2666940710930136  0.8651658501997519  1.0000
  C   C21       1.0  0.8547296710116046  0.7094772870903016  0.054884637421139415  1.0000
  C   C22       1.0  0.1452620790062156  0.29052730124626447  0.9451157677562992  1.0000
  I   I1        1.0  0.6815553378727657  0.3632724827127873  0.4314162127288271  1.0000
  I   I2        1.0  0.31844838560201805  0.6367411502415482  0.5685799605974183  1.0000
  I   I3        1.0  0.037772586369598606  0.07401075557184811  0.627177135492204  1.0000
  I   I4        1.0  0.9622251018341501  0.9259908236903132  0.3728235553519213  1.0000
  I   I5        1.0  0.5605259752595303  0.11954712912233842  0.1668260948634455  1.0000
  I   I6        1.0  0.43949549956771966  0.8804454445468793  0.8331709603333837  1.0000
  N   N1        1.0  0.645850134251667  0.2911201756969177  0.7761517320488595  1.0000
  N   N2        1.0  0.3541445765769565  0.7088784154317835  0.22384475497085535  1.0000
  N   N3        1.0  0.7539420215547992  0.5079635470858008  0.6625143105274633  1.0000
  N   N4        1.0  0.2460630998279641  0.49203801917443724  0.3374891858540608  1.0000
  N   N5        1.0  0.7363022392940834  0.47294317745129194  0.9264679625095413  1.0000
  N   N6        1.0  0.26369914020201435  0.5270538812847152  0.07353456149706263  1.0000
  O   O1        1.0  0.8924214409032345  0.7880235328195085  0.898552273421082  1.0000
  O   O2        1.0  0.1075940870803649  0.21197502724243827  0.10145094625715251  1.0000
