data_image0
_chemical_formula_structural       Na4H28C16O28
_chemical_formula_sum              "Na4 H28 C16 O28"
_cell_length_a       7.0724501300053815
_cell_length_b       9.064578937567937
_cell_length_c       10.993214007714384
_cell_angle_alpha    106.06641233725388
_cell_angle_beta     90.00005805558536
_cell_angle_gamma    89.99986071055996

_space_group_name_H-M_alt    "P 1"
_space_group_IT_number       1

loop_
  _space_group_symop_operation_xyz
  'x, y, z'

loop_
  _atom_site_type_symbol
  _atom_site_label
  _atom_site_symmetry_multiplicity
  _atom_site_fract_x
  _atom_site_fract_y
  _atom_site_fract_z
  _atom_site_occupancy
  Na  Na1       1.0  0.6143880107426796  0.2847467293599166  0.3085457238957475  1.0000
  Na  Na2       1.0  0.1143901578904121  0.21525268140322146  0.19145132178803692  1.0000
  Na  Na3       1.0  0.3856126081340037  0.7152536538483433  0.6914503929427414  1.0000
  Na  Na4       1.0  0.8856132888702671  0.7847442473975121  0.8085503708222463  1.0000
  H   H1        1.0  0.2908598015429575  0.328424628826916  0.9199796327262534  1.0000
  H   H2        1.0  0.790860479105035  0.1715743597246657  0.5800169805351559  1.0000
  H   H3        1.0  0.7091394033976073  0.6715734627277217  0.08001322987393432  1.0000
  H   H4        1.0  0.209135897964657  0.8284294484618117  0.4199917468420227  1.0000
  H   H5        1.0  0.6891686075888472  0.9662365972653861  0.22177274514157844  1.0000
  H   H6        1.0  0.18916155527045928  0.5337640601095757  0.27822806310515363  1.0000
  H   H7        1.0  0.3108362531059896  0.0337614825118635  0.7782273919835705  1.0000
  H   H8        1.0  0.8108362357300222  0.466239761319386  0.7217724804324064  1.0000
  H   H9        1.0  0.5376356582801591  0.9478227657384368  0.32581886452755543  1.0000
  H   H10       1.0  0.03763262918869971  0.5521781675649748  0.17418190642496978  1.0000
  H   H11       1.0  0.4623649605953304  0.05218105421641891  0.6741825883258771  1.0000
  H   H12       1.0  0.9623665757585654  0.44781762056251756  0.8258149764613594  1.0000
  H   H13       1.0  0.7852195116985069  0.3953777080758486  0.03252688314239553  1.0000
  H   H14       1.0  0.28521677478385493  0.10462139308968693  0.4674692952696375  1.0000
  H   H15       1.0  0.21477969324309495  0.6046180918238735  0.9674627252196761  1.0000
  H   H16       1.0  0.7147753604766576  0.8953812655943808  0.5325400782767888  1.0000
  H   H17       1.0  0.7872277933662344  0.10252263209493863  0.07931619240560653  1.0000
  H   H18       1.0  0.28722548856860186  0.39747646247018775  0.420681805131821  1.0000
  H   H19       1.0  0.21277565338491652  0.8974766060190548  0.9206778426564032  1.0000
  H   H20       1.0  0.7127751303176095  0.6025216114248055  0.5793219692549416  1.0000
  H   H21       1.0  0.7408326441418323  0.22913790709736054  0.8104400751413439  1.0000
  H   H22       1.0  0.2408289599536956  0.270861169611493  0.6895583444381119  1.0000
  H   H23       1.0  0.2591722165568057  0.7708532962436366  0.18955120858497318  1.0000
  H   H24       1.0  0.7591702449839844  0.7291472307114121  0.31045143552245963  1.0000
  H   H25       1.0  0.6101540881508214  0.013023429625533801  0.8208251053095881  1.0000
  H   H26       1.0  0.11015113081205637  0.48697588651172913  0.6791723727923228  1.0000
  H   H27       1.0  0.38985360042338607  0.9869689158615175  0.1791700788249743  1.0000
  H   H28       1.0  0.8898494880625591  0.5130290800063407  0.32083025252240577  1.0000
  C   C1        1.0  0.5109356511908486  0.29104499341107737  0.019699110663729924  1.0000
  C   C2        1.0  0.010939679944655696  0.20895459248690437  0.48030609339879515  1.0000
  C   C3        1.0  0.4890522422731251  0.7089473314925813  0.9803088038858551  1.0000
  C   C4        1.0  0.9890482134895959  0.7910526759983656  0.5196934209437603  1.0000
  C   C5        1.0  0.7272977433381341  0.27864550071921457  0.014340034405329008  1.0000
  C   C6        1.0  0.2272960861536716  0.22135485100897512  0.48565821152818966  1.0000
  C   C7        1.0  0.272704289481311  0.7213502918202936  0.9856541205347544  1.0000
  C   C8        1.0  0.7727017048517554  0.778648960119277  0.5143486972180968  1.0000
  C   C9        1.0  0.7968331721494974  0.1803291892555734  0.8843950420639717  1.0000
  C   C10       1.0  0.2968320495704901  0.31966748793642114  0.6156037743224376  1.0000
  C   C11       1.0  0.20317027461324236  0.8196631562353361  0.11560014207007198  1.0000
  C   C12       1.0  0.7031671553691011  0.6803374741683471  0.38440157893871446  1.0000
  C   C13       1.0  0.013403101060354998  0.18842418741627406  0.8808869568697448  1.0000
  C   C14       1.0  0.5134019906752485  0.31157185932108433  0.6191106172986738  1.0000
  C   C15       1.0  0.9866017596348086  0.811571602177594  0.11910901670175639  1.0000
  C   C16       1.0  0.4865986282014915  0.6884331027823977  0.3808947359626559  1.0000
  O   O1        1.0  0.4397021346307283  0.33187438112943113  0.9228726216889104  1.0000
  O   O2        1.0  0.9397014044737944  0.1681277804950199  0.5771248176421084  1.0000
  O   O3        1.0  0.5602984842438302  0.6681260064934167  0.07712076720297746  1.0000
  O   O4        1.0  0.060294972596771884  0.8318748811282434  0.4228827372737813  1.0000
  O   O5        1.0  0.5735864192744559  0.0121240063093708  0.2695357851501115  1.0000
  O   O6        1.0  0.0735821247771113  0.4878754728706769  0.2304648877530867  1.0000
  O   O7        1.0  0.4264156135423746  0.9878752259197868  0.7304618871738527  1.0000
  O   O8        1.0  0.9264156662279387  0.5121260495457278  0.7695369481240137  1.0000
  O   O9        1.0  0.4192730412603467  0.26521733375115997  0.10699750916778336  1.0000
  O   O10       1.0  0.91926411055919  0.23478727526282478  0.39299274344075746  1.0000
  O   O11       1.0  0.5807374751661171  0.734780781337655  0.8929808043852747  1.0000
  O   O12       1.0  0.08073650832620417  0.7652165240906115  0.6070214398301348  1.0000
  O   O13       1.0  0.7969922924118292  0.2153416850190198  0.11052012462513976  1.0000
  O   O14       1.0  0.2969917034128287  0.2846585397987482  0.3894781384614562  1.0000
  O   O15       1.0  0.20301115433633032  0.7846587040727828  0.889472354951565  1.0000
  O   O16       1.0  0.7030089154769213  0.7153395267386032  0.6105301825029701  1.0000
  O   O17       1.0  0.7366873373015891  0.026842490769055902  0.8656893374104727  1.0000
  O   O18       1.0  0.23668718114164014  0.4731554483932356  0.6343069993723633  1.0000
  O   O19       1.0  0.2633189373340413  0.9731498576623431  0.13430402809284928  1.0000
  O   O20       1.0  0.7633120237989812  0.526847222056631  0.3656950996506725  1.0000
  O   O21       1.0  0.10893876768317057  0.06770193789549242  0.8649220680377213  1.0000
  O   O22       1.0  0.6089358933177704  0.4322962280053846  0.63507787456593  1.0000
  O   O23       1.0  0.8910660930085113  0.9322984379512538  0.13507859537894984  1.0000
  O   O24       1.0  0.39106189768411775  0.5677075904805163  0.3649244876026928  1.0000
  O   O25       1.0  0.0828526684568729  0.3236333109901255  0.8966403144210918  1.0000
  O   O26       1.0  0.5828533673544313  0.1763637587885114  0.603356630670433  1.0000
  O   O27       1.0  0.9171465364789595  0.6763682246687568  0.10335333761638323  1.0000
  O   O28       1.0  0.4171472515267212  0.8236400493941075  0.39665209670727114  1.0000
