data_image0
_chemical_formula_structural       Zn4H32C48N8O20
_chemical_formula_sum              "Zn4 H32 C48 N8 O20"
_cell_length_a       5.747806057077418
_cell_length_b       12.541414147739998
_cell_length_c       16.805323574549725
_cell_angle_alpha    103.25439034830524
_cell_angle_beta     89.99936284063595
_cell_angle_gamma    90.00032085307059

_space_group_name_H-M_alt    "P 1"
_space_group_IT_number       1

loop_
  _space_group_symop_operation_xyz
  'x, y, z'

loop_
  _atom_site_type_symbol
  _atom_site_label
  _atom_site_symmetry_multiplicity
  _atom_site_fract_x
  _atom_site_fract_y
  _atom_site_fract_z
  _atom_site_occupancy
  Zn  Zn1       1.0  0.9689732409504827  0.4371476046077732  0.8862367575618393  1.0000
  Zn  Zn2       1.0  0.46896906949010025  0.5628464569572529  0.6137513562949124  1.0000
  Zn  Zn3       1.0  0.0310111860142044  0.5628514627999622  0.1137609446669074  1.0000
  Zn  Zn4       1.0  0.531018837257072  0.43714206479884155  0.3862325919333216  1.0000
  H   H1        1.0  0.961925226866235  0.09147292846819251  0.6915199311919054  1.0000
  H   H2        1.0  0.4619421475384654  0.9085249987040104  0.8084938776069848  1.0000
  H   H3        1.0  0.038093995622105595  0.9085128771504359  0.30849329285636173  1.0000
  H   H4        1.0  0.5381066517139673  0.09147811284503858  0.19151048564526013  1.0000
  H   H5        1.0  0.2736024824013156  0.23207668266910284  0.6936233235560181  1.0000
  H   H6        1.0  0.7736150924625206  0.7679176996412949  0.8063815577450981  1.0000
  H   H7        1.0  0.7264184802118903  0.7679231884151038  0.3063763049946857  1.0000
  H   H8        1.0  0.2263849926314875  0.23208708640458303  0.1936189343502051  1.0000
  H   H9        1.0  0.9183684900424819  0.011592034408728602  0.8147800720820229  1.0000
  H   H10       1.0  0.418359548673429  0.9884007839607069  0.6852460742232793  1.0000
  H   H11       1.0  0.08166639044716109  0.9884100665439778  0.1852461309133276  1.0000
  H   H12       1.0  0.5816318373383922  0.011599040534704803  0.3147589017436516  1.0000
  H   H13       1.0  0.9327314528885607  0.07481000882352623  0.0277613089398088  1.0000
  H   H14       1.0  0.4327564381252598  0.9251882332745255  0.4722454171950758  1.0000
  H   H15       1.0  0.06729472915520057  0.9252095221888368  0.9722417736572523  1.0000
  H   H16       1.0  0.5672488662018083  0.0748001177715167  0.5277581380387062  1.0000
  H   H17       1.0  0.8774290401324475  0.23324329155465762  0.1475853183822693  1.0000
  H   H18       1.0  0.37741489509284765  0.7667647306555309  0.3524173578961438  1.0000
  H   H19       1.0  0.12256582528795688  0.76676381229192  0.8524316475941944  1.0000
  H   H20       1.0  0.6225712717030516  0.23323599060130107  0.6475788497104489  1.0000
  H   H21       1.0  0.5603593629854015  0.3681140253047346  0.1419953485584955  1.0000
  H   H22       1.0  0.060319125041665686  0.6319066350968187  0.3579975027234568  1.0000
  H   H23       1.0  0.43964246154021674  0.6318815895655377  0.858021979152582  1.0000
  H   H24       1.0  0.9396548635320272  0.36810651845937775  0.641984227415989  1.0000
  H   H25       1.0  0.284877663449663  0.4157098464797644  0.7731319261663856  1.0000
  H   H26       1.0  0.7848806861427844  0.5842887713340589  0.7268599756813074  1.0000
  H   H27       1.0  0.7151328603579898  0.58429164222774  0.22687036684756381  1.0000
  H   H28       1.0  0.21512287870272215  0.41570627270310473  0.27312868878980373  1.0000
  H   H29       1.0  0.12050093105620617  0.5166400410600218  0.7624587832194578  1.0000
  H   H30       1.0  0.6204954560055924  0.4833591354616545  0.7375289985339748  1.0000
  H   H31       1.0  0.879506113246876  0.483359850705476  0.23753846874208762  1.0000
  H   H32       1.0  0.3794959302690869  0.5166359033908139  0.2624602601077228  1.0000
  C   C1        1.0  0.5796548176078531  0.308690624057988  0.8165012363427735  1.0000
  C   C2        1.0  0.07967562665212567  0.6913010584514441  0.6834907190336708  1.0000
  C   C3        1.0  0.4203261297853586  0.691301905559314  0.1834935320823732  1.0000
  C   C4        1.0  0.9203331574832134  0.308696396519295  0.3165037245586504  1.0000
  C   C5        1.0  0.36396016574686735  0.16997767647923473  0.8778377928713682  1.0000
  C   C6        1.0  0.8639280841576278  0.830019349893462  0.622164874733869  1.0000
  C   C7        1.0  0.636081674242483  0.8300352132899532  0.12217423894297501  1.0000
  C   C8        1.0  0.1360528632775626  0.16997238125443195  0.37782737316248216  1.0000
  C   C9        1.0  0.40181436519831937  0.22067778784409597  0.8123578027053994  1.0000
  C   C10       1.0  0.9018262667156093  0.7793242282329234  0.6876450215393319  1.0000
  C   C11       1.0  0.5981874595201332  0.7793203724663659  0.18764985617048785  1.0000
  C   C12       1.0  0.0981755583205697  0.22067817275335952  0.31234672066206315  1.0000
  C   C13       1.0  0.5054789792823585  0.195797596682695  0.9546690641448237  1.0000
  C   C14       1.0  0.005452233701134899  0.8042135577662679  0.5453325076324306  1.0000
  C   C15       1.0  0.4945524219353459  0.8042218360376625  0.04534530734135702  1.0000
  C   C16       1.0  0.9945304535443285  0.19577572623983028  0.4546581201996318  1.0000
  C   C17       1.0  0.07829333441254248  0.11571559115540005  0.7437008795199063  1.0000
  C   C18       1.0  0.5782969335691063  0.8842775771331972  0.7563085981934137  1.0000
  C   C19       1.0  0.9217241484333342  0.8842784681785574  0.2563066538905474  1.0000
  C   C20       1.0  0.4217135902385465  0.11572391157430671  0.24369369482054276  1.0000
  C   C21       1.0  0.2531743928008722  0.1926183050240056  0.7446451307073261  1.0000
  C   C22       1.0  0.753168455624255  0.8073711144305165  0.7553601362078836  1.0000
  C   C23       1.0  0.7468448298912873  0.8073700512083308  0.2553578303532761  1.0000
  C   C24       1.0  0.24684032845006237  0.19263285763339158  0.2446396178030881  1.0000
  C   C25       1.0  0.056099007258268295  0.07013749266010193  0.8116147991659304  1.0000
  C   C26       1.0  0.5560830121763303  0.9298531825393751  0.6883937187188067  1.0000
  C   C27       1.0  0.943934133722898  0.9298647428024227  0.18839595586783994  1.0000
  C   C28       1.0  0.443910113746682  0.0701450605393603  0.3116044337305368  1.0000
  C   C29       1.0  0.7978125072504412  0.1357177577910065  0.026991421973491504  1.0000
  C   C30       1.0  0.29780545711060563  0.8642819576365923  0.4730064871333894  1.0000
  C   C31       1.0  0.2021927970814588  0.8642861418404879  0.9730166501772076  1.0000
  C   C32       1.0  0.7021824493367531  0.13570969591494733  0.5269946730396313  1.0000
  C   C33       1.0  0.7676106843549844  0.22376679291045315  0.0938526996020315  1.0000
  C   C34       1.0  0.26760162325658843  0.7762386167222247  0.4061445243651249  1.0000
  C   C35       1.0  0.23238592089872157  0.776233783497517  0.9061601442581306  1.0000
  C   C36       1.0  0.7323880230978972  0.22375881753687565  0.5938522958655456  1.0000
  C   C37       1.0  0.5938979400099383  0.2995686404193024  0.09041131175404621  1.0000
  C   C38       1.0  0.0938722341286535  0.7004463370892965  0.409581620566179  1.0000
  C   C39       1.0  0.4061021448802364  0.7004335950128748  0.909599443328915  1.0000
  C   C40       1.0  0.9061191521749236  0.29955607940794954  0.5904083391933526  1.0000
  C   C41       1.0  0.4603786768483998  0.28774564009621884  0.019163815125409708  1.0000
  C   C42       1.0  0.9603668200724227  0.712272447169866  0.48083083487463807  1.0000
  C   C43       1.0  0.539614448983464  0.712273833977122  0.9808458031979866  1.0000
  C   C44       1.0  0.03961064790709659  0.28772425586434747  0.5191557408632761  1.0000
  C   C45       1.0  0.2807489469414861  0.37269564934698013  0.015568296834921131  1.0000
  C   C46       1.0  0.7807203358285973  0.6273163997827924  0.4844229095829178  1.0000
  C   C47       1.0  0.7192389595474891  0.6273312075398607  0.9844414284616008  1.0000
  C   C48       1.0  0.21924147408461175  0.3726688866835773  0.515555709788714  1.0000
  N   N1        1.0  0.19557202904462656  0.09602178238190365  0.8772845099890317  1.0000
  N   N2        1.0  0.6955407657089906  0.9039781338408306  0.6227281467097612  1.0000
  N   N3        1.0  0.8044576324467626  0.9039985005414265  0.12272644050385396  1.0000
  N   N4        1.0  0.30442626330320616  0.09600783728239289  0.37726606453719574  1.0000
  N   N5        1.0  0.6669487719005289  0.12044231164569652  0.9593046689273876  1.0000
  N   N6        1.0  0.16693001124117046  0.8795584850100224  0.5406951455017719  1.0000
  N   N7        1.0  0.33306697119400747  0.8795558590245778  0.04070180162285914  1.0000
  N   N8        1.0  0.8330561555508422  0.12043159746868781  0.4592980028539131  1.0000
  O   O1        1.0  0.751187211185723  0.3127800162463715  0.8655580421885247  1.0000
  O   O2        1.0  0.25120282500441243  0.6872275556868176  0.6344349488606866  1.0000
  O   O3        1.0  0.24878851686943187  0.6872354447698894  0.1344413501266643  1.0000
  O   O4        1.0  0.7488024795544346  0.3127658138103868  0.3655575868372694  1.0000
  O   O5        1.0  0.12312726425206928  0.44737473366011943  0.7821503270020287  1.0000
  O   O6        1.0  0.623133740217277  0.5526252513380429  0.7178393732938417  1.0000
  O   O7        1.0  0.8768919584638865  0.5526324529850798  0.21785713249870756  1.0000
  O   O8        1.0  0.3768854829475288  0.4473633273554825  0.2821380392106434  1.0000
  O   O9        1.0  0.5480805149845054  0.3754822489978125  0.7707220416532793  1.0000
  O   O10       1.0  0.048100616871010984  0.6245134403090803  0.7292742922004436  1.0000
  O   O11       1.0  0.45191957009755157  0.6245176220672235  0.22927758692849662  1.0000
  O   O12       1.0  0.9518994682600377  0.3754839991331167  0.2707219338622266  1.0000
  O   O13       1.0  0.23150788639171782  0.39231892523399403  0.9463067243416532  1.0000
  O   O14       1.0  0.7314845087625413  0.6076869928944505  0.5536836608845803  1.0000
  O   O15       1.0  0.7684765405237924  0.6077005746989388  0.05369992323234383  1.0000
  O   O16       1.0  0.2684755613294953  0.39229173508901755  0.4462944012907358  1.0000
  O   O17       1.0  0.1935268635375493  0.42262182841198387  0.08390086264045493  1.0000
  O   O18       1.0  0.693491508705577  0.577384321232657  0.4160901900850007  1.0000
  O   O19       1.0  0.8064714813734921  0.5773811382322975  0.9161201369559748  1.0000
  O   O20       1.0  0.3064633422092982  0.42261577742555545  0.5838832958554933  1.0000
