data_image0
_chemical_formula_structural       Zn16H40C96S16N8O68
_chemical_formula_sum              "Zn16 H40 C96 S16 N8 O68"
_cell_length_a       19.65928150052294
_cell_length_b       19.76472694539764
_cell_length_c       33.37117078304936
_cell_angle_alpha    78.80367575202546
_cell_angle_beta     79.1188029601068
_cell_angle_gamma    63.904346562992544

_space_group_name_H-M_alt    "P 1"
_space_group_IT_number       1

loop_
  _space_group_symop_operation_xyz
  'x, y, z'

loop_
  _atom_site_type_symbol
  _atom_site_label
  _atom_site_symmetry_multiplicity
  _atom_site_fract_x
  _atom_site_fract_y
  _atom_site_fract_z
  _atom_site_occupancy
  Zn  Zn1       1.0  0.0548421911182615  0.4009730066060441  0.4776759654205592  1.0000
  Zn  Zn2       1.0  0.9859795084143598  0.48358523689778105  0.5606594417081753  1.0000
  Zn  Zn3       1.0  0.0587884816565563  0.5605595354769546  0.4826682494272135  1.0000
  Zn  Zn4       1.0  0.9010256749347504  0.5537105881408166  0.4798380661411699  1.0000
  Zn  Zn5       1.0  0.6947313890444136  0.34891934751394854  0.27235213040544437  1.0000
  Zn  Zn6       1.0  0.6901073739008865  0.18843860795404757  0.26581491475639746  1.0000
  Zn  Zn7       1.0  0.7676768297656338  0.2665975652098069  0.1902537606326078  1.0000
  Zn  Zn8       1.0  0.8469904128131915  0.19549827119212887  0.27206137612476067  1.0000
  Zn  Zn9       1.0  0.2649404183039934  0.7653865722577816  0.6894063326968763  1.0000
  Zn  Zn10      1.0  0.34967044579294543  0.6977724512726123  0.7715965558831003  1.0000
  Zn  Zn11      1.0  0.1936353274285025  0.8484254235456774  0.7709508551660847  1.0000
  Zn  Zn12      1.0  0.19204097980573917  0.6886614233262732  0.7674121966932718  1.0000
  Zn  Zn13      1.0  0.5590858105583578  0.062085875663953426  0.9841775080673045  1.0000
  Zn  Zn14      1.0  0.40182705510868993  0.05287944527237439  0.9766002336221857  1.0000
  Zn  Zn15      1.0  0.5568340688902326  0.9018702999906976  0.9788543188564349  1.0000
  Zn  Zn16      1.0  0.4809445838121462  0.9845770460579287  0.0596295859134344  1.0000
  H   H1        1.0  0.7504675230807364  0.4502474181269278  0.3477431138958806  1.0000
  H   H2        1.0  0.0006994354456679995  0.3033228913454876  0.40000680871273897  1.0000
  H   H3        1.0  0.19867326276189348  0.7021880681714945  0.6020554972163269  1.0000
  H   H4        1.0  0.04687442652716099  0.5519766985583487  0.6481074636713587  1.0000
  H   H5        1.0  0.6497726381702335  0.1467360937208682  0.0493314484891556  1.0000
  H   H6        1.0  0.6051258470461319  0.09816493663943508  0.20062477829632286  1.0000
  H   H7        1.0  0.30280151702113045  0.9970424686449062  0.9023069424301512  1.0000
  H   H8        1.0  0.44647642045484287  0.7490744134649173  0.8496985024259944  1.0000
  H   H9        1.0  0.7921437106023532  0.5398902232866972  0.4188780596541265  1.0000
  H   H10       1.0  0.7245009232625179  0.5434977321474008  0.39071818193212227  1.0000
  H   H11       1.0  0.9542426170849154  0.20849154897733496  0.3339278627459379  1.0000
  H   H12       1.0  0.017260868022496798  0.20081519114458488  0.3664870249730257  1.0000
  H   H13       1.0  0.14790528012107979  0.6431289928671332  0.5202548248912322  1.0000
  H   H14       1.0  0.2007116025666207  0.6850005190413525  0.5331815822720857  1.0000
  H   H15       1.0  0.10706712277282548  0.6016806205786834  0.7299635068132346  1.0000
  H   H16       1.0  0.06372223257853449  0.55013726618931  0.7170982617346483  1.0000
  H   H17       1.0  0.726527503212523  0.23238509943203653  0.1047923441658583  1.0000
  H   H18       1.0  0.7086262424996121  0.22494126646950696  0.057241988283784934  1.0000
  H   H19       1.0  0.5173150944452941  0.023394885237600162  0.14516973983398884  1.0000
  H   H20       1.0  0.5260662278531852  0.03995739183880427  0.1928105665231783  1.0000
  H   H21       1.0  0.2094464961000284  0.9588702142193241  0.8314063218941004  1.0000
  H   H22       1.0  0.20786627427051488  0.025224047277617973  0.8593411667801973  1.0000
  H   H23       1.0  0.5445547687808058  0.7925613473429111  0.9156837236169012  1.0000
  H   H24       1.0  0.5511054480917394  0.7307498137970255  0.8831359071466379  1.0000
  H   H25       1.0  0.32744574729432674  0.540099457544727  0.39676449822158594  1.0000
  H   H26       1.0  0.42284080425313414  0.20905281891485564  0.35289215614399444  1.0000
  H   H27       1.0  0.7545503392907378  0.5408351323372355  0.6852606561704705  1.0000
  H   H28       1.0  0.4963289371981077  0.7092264800621347  0.5656549076912255  1.0000
  H   H29       1.0  0.04081572659565319  0.2533631879273343  0.683441140775436  1.0000
  H   H30       1.0  0.2094862391730601  0.9955036257675471  0.5657034000121329  1.0000
  H   H31       1.0  0.7428207208816032  0.81657980036379  0.38718301585848997  1.0000
  H   H32       1.0  0.0046916891926542985  0.9319906428101559  0.362781836044988  1.0000
  H   H33       1.0  0.7090342296082496  0.4971273639971728  0.06621900759920854  1.0000
  H   H34       1.0  0.5408346572880163  0.7542712599833835  0.18442223309794764  1.0000
  H   H35       1.0  0.1495208439816764  0.07636428215835166  0.2191765324570554  1.0000
  H   H36       1.0  0.0992735817701274  0.17438011043384447  0.030172483791375285  1.0000
  H   H37       1.0  0.5086304639849217  0.431490644558707  0.8629549382362286  1.0000
  H   H38       1.0  0.24413613671781317  0.3194978250675433  0.8873214777467453  1.0000
  H   H39       1.0  0.921512211104904  0.710243539444974  0.8530239443006592  1.0000
  H   H40       1.0  0.8285298996603315  0.041008565592314035  0.8970698089764468  1.0000
  C   C1        1.0  0.062345348304262395  0.3164493553406728  0.561401244232428  1.0000
  C   C2        1.0  0.0706685383802466  0.5721036685191122  0.5681760451253125  1.0000
  C   C3        1.0  0.1835741090358027  0.4401793817742146  0.4384562593901649  1.0000
  C   C4        1.0  0.9354683344860034  0.6835444113779444  0.43893305048940334  1.0000
  C   C5        1.0  0.9285563533786673  0.43216112670015144  0.43026883341435956  1.0000
  C   C6        1.0  0.8177993836639387  0.5597383975560961  0.5631154972609379  1.0000
  C   C7        1.0  0.5662866552040811  0.30937699242789307  0.3110551500099845  1.0000
  C   C8        1.0  0.6832729578343262  0.1797438114118038  0.17897590907600144  1.0000
  C   C9        1.0  0.6890966747912585  0.43332435260312246  0.18830571567697524  1.0000
  C   C10       1.0  0.9347279229807127  0.1880733415116822  0.1897709954969287  1.0000
  C   C11       1.0  0.820823112007254  0.3193636698974132  0.31943117977703395  1.0000
  C   C12       1.0  0.8115744702380708  0.0661879368520814  0.31175715867859566  1.0000
  C   C13       1.0  0.432683766226944  0.6903654054831065  0.6877602263275903  1.0000
  C   C14       1.0  0.3165896831603021  0.8229532377607993  0.8195675766124779  1.0000
  C   C15       1.0  0.187613447590131  0.932940962949402  0.6878012282733436  1.0000
  C   C16       1.0  0.06617867879486988  0.8092229542965083  0.8112743062166958  1.0000
  C   C17       1.0  0.17862802093973326  0.6783580275333493  0.6819667619969393  1.0000
  C   C18       1.0  0.3157904795271307  0.5665634829076891  0.8113461149290089  1.0000
  C   C19       1.0  0.43717605045322466  0.18362415578845773  0.9383477161070675  1.0000
  C   C20       1.0  0.4346899557141626  0.9254942681603281  0.9302921279892545  1.0000
  C   C21       1.0  0.6841546001458666  0.9416263918565803  0.9392039673743043  1.0000
  C   C22       1.0  0.5603584081916112  0.8174374896884017  0.06228455197755521  1.0000
  C   C23       1.0  0.5678093559449806  0.06894570739928693  0.07098725407509218  1.0000
  C   C24       1.0  0.3142481757716666  0.06192744745798244  0.05949391983549649  1.0000
  C   C25       1.0  0.8993999701174786  0.4064137719840556  0.4010578649821782  1.0000
  C   C26       1.0  0.8514838740791149  0.34689187790316817  0.3469795005067908  1.0000
  C   C27       1.0  0.8270288751650908  0.4508333938524131  0.386050628728178  1.0000
  C   C28       1.0  0.9247246959972555  0.3032876143732042  0.3611377552944787  1.0000
  C   C29       1.0  0.8055517314502153  0.4185588910304858  0.35957338209889406  1.0000
  C   C30       1.0  0.945615357428082  0.3350355731046119  0.3881810300975275  1.0000
  C   C31       1.0  0.09786188369808708  0.6022336906881092  0.5961482221621353  1.0000
  C   C32       1.0  0.1482020974987108  0.6514230673937715  0.6540216911516126  1.0000
  C   C33       1.0  0.1407660418931584  0.6465380079174209  0.5817510598546463  1.0000
  C   C34       1.0  0.10346373888786081  0.6089366003261529  0.6684216897218818  1.0000
  C   C35       1.0  0.1650811328684512  0.6689878678536231  0.6116568068639482  1.0000
  C   C36       1.0  0.0804317644834143  0.5852068935645959  0.6385039215157989  1.0000
  C   C37       1.0  0.3050147460082258  0.4541646311821451  0.40062980974649065  1.0000
  C   C38       1.0  0.44515663583183607  0.2950338699642926  0.349242817348248  1.0000
  C   C39       1.0  0.2583099622584015  0.4156663105648518  0.4139003206525019  1.0000
  C   C40       1.0  0.4917993964026763  0.3335763480896998  0.33591393053468727  1.0000
  C   C41       1.0  0.37703401889157817  0.3392009413851722  0.37288265468450993  1.0000
  C   C42       1.0  0.37317716785442195  0.40994933893820457  0.37704401928028375  1.0000
  C   C43       1.0  0.7261395691910337  0.5756858905154726  0.630783064951082  1.0000
  C   C44       1.0  0.524454472343656  0.6737907407223318  0.6201697127322562  1.0000
  C   C45       1.0  0.7435777067608241  0.5842684117254322  0.5881222392566414  1.0000
  C   C46       1.0  0.5070322307861233  0.6652606863777134  0.662840093189729  1.0000
  C   C47       1.0  0.604515622737317  0.6409724397172027  0.6085776749043817  1.0000
  C   C48       1.0  0.6460641927648183  0.6084296137645425  0.6423881880731203  1.0000
  C   C49       1.0  0.07709380086845388  0.22507048250177059  0.6292158407859888  1.0000
  C   C50       1.0  0.1738475662272378  0.024038484117333763  0.6198902752219412  1.0000
  C   C51       1.0  0.08661845751441888  0.242256997675085  0.5865119829447565  1.0000
  C   C52       1.0  0.1641381730451457  0.006944685957947184  0.6625793823816295  1.0000
  C   C53       1.0  0.1420257567953627  0.10376151429686323  0.6077958846220355  1.0000
  C   C54       1.0  0.10908617817247548  0.145354184156119  0.6412615885369563  1.0000
  C   C55       1.0  0.841482657653053  0.8009600153822588  0.3972716140701778  1.0000
  C   C56       1.0  0.9053450944600596  0.9485852322494851  0.3533532886846658  1.0000
  C   C57       1.0  0.9100645776663825  0.7578909116510675  0.41408064352241775  1.0000
  C   C58       1.0  0.8367488690079838  0.99169986653964  0.3365512691837509  1.0000
  C   C59       1.0  0.9070224352041265  0.8788134403190067  0.3753524118537897  1.0000
  C   C60       1.0  0.8400988225450732  0.8704023686574017  0.37495757021124376  1.0000
  C   C61       1.0  0.6564639368670342  0.15093355832389213  0.15010738127507753  1.0000
  C   C62       1.0  0.5978070053540634  0.09456351114597783  0.09984934389290602  1.0000
  C   C63       1.0  0.6711291214182324  0.16528119147161385  0.10639287380676168  1.0000
  C   C64       1.0  0.5845972291459915  0.07875905225255049  0.14355477150943594  1.0000
  C   C65       1.0  0.6404324610827886  0.136539499610194  0.0827946732218479  1.0000
  C   C66       1.0  0.6144238219092769  0.10838791005604526  0.16716022609260517  1.0000
  C   C67       1.0  0.673657484003968  0.525022616166616  0.12054524440976169  1.0000
  C   C68       1.0  0.5752676375593068  0.7259127598176602  0.13013705984302254  1.0000
  C   C69       1.0  0.6642732953533467  0.5076016111741661  0.16323069238486454  1.0000
  C   C70       1.0  0.5847801097230771  0.7433106337640895  0.08745131913414639  1.0000
  C   C71       1.0  0.6079026563962415  0.6461598493041406  0.14212392764600418  1.0000
  C   C72       1.0  0.641229899438656  0.6047782473435742  0.10858468508264002  1.0000
  C   C73       1.0  0.08198195865598729  0.12409899746976549  0.17772240459943592  1.0000
  C   C74       1.0  0.16691342144319776  0.1267238680511156  0.0715814977820557  1.0000
  C   C75       1.0  0.0092590523302079  0.16314728526261035  0.16508398579531303  1.0000
  C   C76       1.0  0.23964504073966  0.08766501724979747  0.08415960440903089  1.0000
  C   C77       1.0  0.10949727908460008  0.1401611445068411  0.10583146687062589  1.0000
  C   C78       1.0  0.13944271287699908  0.11109951221463632  0.14350280562609896  1.0000
  C   C79       1.0  0.3435317917348542  0.8506325986808321  0.8489074484567213  1.0000
  C   C80       1.0  0.4059631843692131  0.8957249239045524  0.9028608240897781  1.0000
  C   C81       1.0  0.29998513543461763  0.922317201727246  0.864048714391721  1.0000
  C   C82       1.0  0.44856583024866126  0.8231114102487636  0.8886724694174505  1.0000
  C   C83       1.0  0.33370169554866885  0.9424382937115394  0.8904382948030689  1.0000
  C   C84       1.0  0.4154985369102845  0.8035985247056557  0.8616611572455356  1.0000
  C   C85       1.0  0.40950388828345297  0.44835179998920444  0.8529432262076071  1.0000
  C   C86       1.0  0.34387609877377656  0.30184911550450266  0.8966835404595558  1.0000
  C   C87       1.0  0.34117961743574904  0.4919308229727123  0.835983914217593  1.0000
  C   C88       1.0  0.4122421304322259  0.2582021644687628  0.9136065670914986  1.0000
  C   C89       1.0  0.3431109579702393  0.3712096668666121  0.8745501571593906  1.0000
  C   C90       1.0  0.4103077376156108  0.3789675024230519  0.8751058947164482  1.0000
  C   C91       1.0  0.9446986564755874  0.7956619556091976  0.849499834485947  1.0000
  C   C92       1.0  0.8052171610399198  0.9556985185277821  0.9005039902853867  1.0000
  C   C93       1.0  0.9915964596319428  0.8338855712746064  0.8359582271710765  1.0000
  C   C94       1.0  0.7583312331233713  0.9174932149891787  0.9140776442562812  1.0000
  C   C95       1.0  0.8731377780664501  0.9110993407931929  0.8768517520910848  1.0000
  C   C96       1.0  0.8766415526256707  0.8403603568578359  0.8729923143582639  1.0000
  S   S1        1.0  0.2977705596118554  0.3258722132862885  0.3975978758690673  1.0000
  S   S2        1.0  0.45242470042622773  0.4233175002620584  0.35230279555529626  1.0000
  S   S3        1.0  0.6623896708697785  0.6319624010454274  0.5623819978008413  1.0000
  S   S4        1.0  0.5881741699682904  0.6174607568276685  0.6885823689748279  1.0000
  S   S5        1.0  0.13440849882270808  0.16125427986985835  0.5613508613092008  1.0000
  S   S6        1.0  0.11658187053572532  0.08797521101892156  0.6877270194820398  1.0000
  S   S7        1.0  0.9723878028999167  0.8022212024567992  0.40265382825110396  1.0000
  S   S8        1.0  0.7747643012133594  0.9470228643619264  0.3476227088843444  1.0000
  S   S9        1.0  0.6158748379468406  0.588436933369543  0.18850548560340744  1.0000
  S   S10       1.0  0.6334042832030917  0.6624488616841119  0.06219628111875859  1.0000
  S   S11       1.0  0.0112777569916958  0.18378210957065721  0.1116556770763921  1.0000
  S   S12       1.0  0.23768682979806496  0.06756330405544732  0.1376201061451994  1.0000
  S   S13       1.0  0.2783739774134091  0.4481399550076971  0.8470747797026166  1.0000
  S   S14       1.0  0.47504021563094045  0.3019913103935891  0.9025727508359013  1.0000
  S   S15       1.0  0.9524484976212192  0.9240074669559915  0.8518410591448602  1.0000
  S   S16       1.0  0.7972504446871581  0.8275318818386239  0.897981960058772  1.0000
  N   N1        1.0  0.7798597720673327  0.5233103391832685  0.39522969558016996  1.0000
  N   N2        1.0  0.9753690093787881  0.2341813196703126  0.3486376964343521  1.0000
  N   N3        1.0  0.15680861091317408  0.6694710921854821  0.5407017677245848  1.0000
  N   N4        1.0  0.0805350722049667  0.5929969355513904  0.7094299246119036  1.0000
  N   N5        1.0  0.7152681556822101  0.2031358993211328  0.08701349194297592  1.0000
  N   N6        1.0  0.5468445342322354  0.03460024751393581  0.16291135932338108  1.0000
  N   N7        1.0  0.2270705075583734  0.9702753057172725  0.8549832777137282  1.0000
  N   N8        1.0  0.5180863198325766  0.771839962396676  0.9012166647762639  1.0000
  O   O1        1.0  0.0008225002863965996  0.4986619064756967  0.5001187281372453  1.0000
  O   O2        1.0  0.0777360650790655  0.31542118151654813  0.5222933596208819  1.0000
  O   O3        1.0  0.0340233955319462  0.5319126476273295  0.5845449127513832  1.0000
  O   O4        1.0  0.15581807725367008  0.5058226115095791  0.450163478747534  1.0000
  O   O5        1.0  0.02848983131113409  0.3747289085217815  0.5804579842890122  1.0000
  O   O6        1.0  0.15301048076270968  0.392790658922415  0.4458428664892508  1.0000
  O   O7        1.0  0.08575405411134798  0.5877623958195526  0.5291252887302135  1.0000
  O   O8        1.0  0.0029924308766880003  0.6568365880741067  0.44940218308381935  1.0000
  O   O9        1.0  0.8851691313748588  0.49669440635775436  0.44322460870048985  1.0000
  O   O10       1.0  0.8891728716690962  0.6521002254446202  0.44799670754590437  1.0000
  O   O11       1.0  0.9948462200967683  0.3887463713661177  0.4410747356238644  1.0000
  O   O12       1.0  0.8771196363477854  0.5268692013062971  0.5818416664093108  1.0000
  O   O13       1.0  0.8156552236472548  0.5742107078115238  0.524004262178721  1.0000
  O   O14       1.0  0.7484926772855331  0.25079345344756365  0.2503327609008537  1.0000
  O   O15       1.0  0.5965179412500631  0.3570798864100269  0.3037927876954996  1.0000
  O   O16       1.0  0.6672254827388358  0.1631209796817218  0.21753292135352345  1.0000
  O   O17       1.0  0.7242947156259162  0.3750534080267299  0.16923761715252536  1.0000
  O   O18       1.0  0.5940096545511152  0.24405117855270927  0.2990134689231354  1.0000
  O   O19       1.0  0.6728893299383926  0.43411636391742525  0.22737919089962594  1.0000
  O   O20       1.0  0.7208852068083401  0.2200178969838832  0.16359137608662883  1.0000
  O   O21       1.0  0.8768266966059812  0.22424501342486264  0.1695199333169413  1.0000
  O   O22       1.0  0.862705094577329  0.2531280204031034  0.3082277620472667  1.0000
  O   O23       1.0  0.9336118856811666  0.17196347952643248  0.22871830885378588  1.0000
  O   O24       1.0  0.7545809819467166  0.3626665063126778  0.30849461435186504  1.0000
  O   O25       1.0  0.7458801928986601  0.09169161803043817  0.29917140931936365  1.0000
  O   O26       1.0  0.8567100007680819  0.09886144694932135  0.30493894831398183  1.0000
  O   O27       1.0  0.2503350408775731  0.7502250821516087  0.7499504029437745  1.0000
  O   O28       1.0  0.37375661246210257  0.7239005574161795  0.6687001790258763  1.0000
  O   O29       1.0  0.3609690562802044  0.7583403010544599  0.8076614459383933  1.0000
  O   O30       1.0  0.172068985633679  0.9345418670545126  0.7268876825477264  1.0000
  O   O31       1.0  0.4343217199969516  0.675864750384953  0.7268759500509817  1.0000
  O   O32       1.0  0.22077295101423286  0.8742489822937499  0.6690823538252105  1.0000
  O   O33       1.0  0.2504172822761532  0.8655404063372459  0.8076629893078575  1.0000
  O   O34       1.0  0.09543612968442258  0.8577832033474024  0.8026921487339537  1.0000
  O   O35       1.0  0.1647262872543038  0.6615616750896505  0.7210176501385348  1.0000
  O   O36       1.0  0.0953100233872988  0.7426779176837711  0.8006171324909985  1.0000
  O   O37       1.0  0.217299043664255  0.7165719820815682  0.6655903336847757  1.0000
  O   O38       1.0  0.3607438815204204  0.5994643744941185  0.8036714985270594  1.0000
  O   O39       1.0  0.24922326111679635  0.5919215767480493  0.7997682070399108  1.0000
  O   O40       1.0  0.5000407132337159  0.0003832134356043939  0.9995474798403948  1.0000
  O   O41       1.0  0.5031481203688344  0.15812017820541505  0.9506426056923798  1.0000
  O   O42       1.0  0.39153270318216465  0.9915601470331339  0.9406672504064703  1.0000
  O   O43       1.0  0.6543390978202268  0.8935204118715063  0.9467339155894408  1.0000
  O   O44       1.0  0.3919732841736163  0.15105512779815192  0.9453447801832342  1.0000
  O   O45       1.0  0.6560939627211511  0.0069420106309364855  0.951265449983481  1.0000
  O   O46       1.0  0.501230900685769  0.8835433044929527  0.9418885714961294  1.0000
  O   O47       1.0  0.5790399087148472  0.8162149555421576  0.023314702805890875  1.0000
  O   O48       1.0  0.5276349796608102  0.031188309817188942  0.0863638770153585  1.0000
  O   O49       1.0  0.523062231170023  0.8760249967411081  0.08092439599958821  1.0000
  O   O50       1.0  0.5832845646051297  0.08617182941749485  0.03243621963552099  1.0000
  O   O51       1.0  0.31568588867526864  0.07443853838510965  0.020481217096872194  1.0000
  O   O52       1.0  0.3719189619069283  0.028483896199361435  0.08007050349400659  1.0000
  O   O53       1.0  0.28663628587389667  0.5247984789260299  0.40944234215326963  1.0000
  O   O54       1.0  0.46368562460003193  0.22441676425642493  0.3404126796699742  1.0000
  O   O55       1.0  0.7797827820459416  0.5402426336774436  0.6571527839733876  1.0000
  O   O56       1.0  0.4709272278042106  0.7092022073517156  0.5937135937314438  1.0000
  O   O57       1.0  0.04149292587498369  0.2785279956738264  0.6552912471960753  1.0000
  O   O58       1.0  0.2093948278662339  0.9704836395522419  0.5939019018321972  1.0000
  O   O59       1.0  0.7843086282289133  0.7782383889773996  0.40207507233400025  1.0000
  O   O60       1.0  0.9624208180752518  0.9714114872998535  0.348841123021522  1.0000
  O   O61       1.0  0.7093788010493753  0.47174248818246406  0.09435263897467651  1.0000
  O   O62       1.0  0.5393008414503271  0.7793273721386809  0.15620212399608852  1.0000
  O   O63       1.0  0.094730293117081  0.10193823133495529  0.21771568445767295  1.0000
  O   O64       1.0  0.1540746195603049  0.14862608943082023  0.031600553402498115  1.0000
  O   O65       1.0  0.4670408727359714  0.47051193811321207  0.8483829548046344  1.0000
  O   O66       1.0  0.2862803801491082  0.2797770963480061  0.9012233717305023  1.0000
  O   O67       1.0  0.9629494513003249  0.7249458720795018  0.8409251246511927  1.0000
  O   O68       1.0  0.7870522506089372  0.026344187925381752  0.9091310652130461  1.0000
