data_image0
_chemical_formula_structural       Fe4H40Au8C64N40
_chemical_formula_sum              "Fe4 H40 Au8 C64 N40"
_cell_length_a       12.720261334428569
_cell_length_b       15.406457252091277
_cell_length_c       16.730331131649372
_cell_angle_alpha    109.91225770876237
_cell_angle_beta     112.32248728807787
_cell_angle_gamma    89.99390753220581

_space_group_name_H-M_alt    "P 1"
_space_group_IT_number       1

loop_
  _space_group_symop_operation_xyz
  'x, y, z'

loop_
  _atom_site_type_symbol
  _atom_site_label
  _atom_site_symmetry_multiplicity
  _atom_site_fract_x
  _atom_site_fract_y
  _atom_site_fract_z
  _atom_site_occupancy
  Fe  Fe1       1.0  0.19663925143215982  0.46615334000332354  0.8940583064555199  1.0000
  Fe  Fe2       1.0  0.3023423696371807  0.0337966888421164  0.10586628124661959  1.0000
  Fe  Fe3       1.0  0.8033598873603153  0.533844405903018  0.10594015196012668  1.0000
  Fe  Fe4       1.0  0.6976596286807464  0.966200334880597  0.8941332146721593  1.0000
  H   H1        1.0  0.08698881716561856  0.2745593537015765  0.4112113276278109  1.0000
  H   H2        1.0  0.6757960991806653  0.2253268051147117  0.5886404525602202  1.0000
  H   H3        1.0  0.9130168400860085  0.725441135858219  0.5887908058470829  1.0000
  H   H4        1.0  0.32419899666152924  0.7746716848540203  0.4113557783488559  1.0000
  H   H5        1.0  0.09084498899079554  0.18105417486671632  0.4388324823922503  1.0000
  H   H6        1.0  0.6520176169718609  0.3188945242090924  0.5611118182309697  1.0000
  H   H7        1.0  0.9091594506379295  0.8189463060551037  0.5611701319091581  1.0000
  H   H8        1.0  0.3479801463874921  0.6811053485257546  0.43888565520602196  1.0000
  H   H9        1.0  0.956932610710318  0.4331698625298657  0.7682502315548589  1.0000
  H   H10       1.0  0.188514537981824  0.0668929828583131  0.23189791128663023  1.0000
  H   H11       1.0  0.04306432651920747  0.5668229429392113  0.23174934720374557  1.0000
  H   H12       1.0  0.8114814734043065  0.9331103778762112  0.7681010217658937  1.0000
  H   H13       1.0  0.8393415319755418  0.3519918781711694  0.6003115694053635  1.0000
  H   H14       1.0  0.2390861217966176  0.1479707622231246  0.3999494151053042  1.0000
  H   H15       1.0  0.1606551142090495  0.6480023647609485  0.399686276872572  1.0000
  H   H16       1.0  0.7609044028099774  0.852035408368799  0.6000496471218781  1.0000
  H   H17       1.0  0.15699593445759763  0.2900163043976746  0.5676120507510589  1.0000
  H   H18       1.0  0.5891737671851942  0.20991429769658507  0.4321854675726017  1.0000
  H   H19       1.0  0.8430018118027219  0.7099835530788  0.4323862581009054  1.0000
  H   H20       1.0  0.41082086876780727  0.7900911898664446  0.5678124805012672  1.0000
  H   H21       1.0  0.25802279628832986  0.37326519437398525  0.7322623197926674  1.0000
  H   H22       1.0  0.5253899675097387  0.1267305757351878  0.26749543550836563  1.0000
  H   H23       1.0  0.7419747996382499  0.626733949840663  0.2677365577987629  1.0000
  H   H24       1.0  0.4746031672519138  0.8732734919245857  0.7325032954559988  1.0000
  H   H25       1.0  0.6339525703310116  0.0789732041421445  0.1884911079512364  1.0000
  H   H26       1.0  0.4456134031936543  0.42081420798755437  0.8116199422395881  1.0000
  H   H27       1.0  0.3660523202989341  0.9210294165651547  0.811509800131738  1.0000
  H   H28       1.0  0.554386401037803  0.5791750265695867  0.18838270856679176  1.0000
  H   H29       1.0  0.5869891401611157  0.9937943659093662  0.02207800375582988  1.0000
  H   H30       1.0  0.5648664965081096  0.506189460082794  0.978030235318478  1.0000
  H   H31       1.0  0.4130118653287838  0.006206863393835193  0.9779221426257508  1.0000
  H   H32       1.0  0.4351346585809567  0.4938004811157769  0.02197220133688661  1.0000
  H   H33       1.0  0.9191419682908162  0.0642566872815138  0.05499773338623007  1.0000
  H   H34       1.0  0.8642509127794825  0.4360253463274831  0.945108881374111  1.0000
  H   H35       1.0  0.08085943831468953  0.9357403473805875  0.9450011675308334  1.0000
  H   H36       1.0  0.13574810987731917  0.5639717168337838  0.054888474951070465  1.0000
  H   H37       1.0  0.980906618090792  0.1533009534915664  0.22321119303482118  1.0000
  H   H38       1.0  0.7580203645360368  0.34681814076823503  0.7769091894546492  1.0000
  H   H39       1.0  0.019096706509223828  0.846699610342519  0.7767868896032654  1.0000
  H   H40       1.0  0.24197804930931707  0.6531789180740404  0.2230884072837824  1.0000
  Au  Au1       1.0  0.43246973452072274  0.20501260568767782  0.8875923437386106  1.0000
  Au  Au2       1.0  0.5448366730255643  0.2947069326463065  0.11224605568747142  1.0000
  Au  Au3       1.0  0.5675518751252467  0.7950024233451174  0.1124217966396302  1.0000
  Au  Au4       1.0  0.4551549947428057  0.7052957456269552  0.8877517873374361  1.0000
  Au  Au5       1.0  0.9590031148835791  0.7251751403499325  0.8951847290846473  1.0000
  Au  Au6       1.0  0.06348817711704408  0.7746537346307606  0.10443858356229196  1.0000
  Au  Au7       1.0  0.041005185309686006  0.2748295654459127  0.1048174477884771  1.0000
  Au  Au8       1.0  0.9365143274181449  0.22534320186069584  0.8955656844330591  1.0000
  C   C1        1.0  0.34216496816674186  0.3085308300537691  0.8898749193111399  1.0000
  C   C2        1.0  0.4522668116480375  0.1912561807931183  0.11008028848897315  1.0000
  C   C3        1.0  0.657851074173564  0.6914800679566537  0.1101345318303615  1.0000
  C   C4        1.0  0.5477300311983626  0.8087456857638528  0.8899234782908394  1.0000
  C   C5        1.0  0.04696109594978975  0.6201615039025654  0.8900772806035847  1.0000
  C   C6        1.0  0.1566774486150919  0.8795461721729864  0.10948311461066851  1.0000
  C   C7        1.0  0.9530405600261106  0.37983691150805743  0.10992298907944324  1.0000
  C   C8        1.0  0.8433362752920176  0.12044710128863298  0.8905292137965832  1.0000
  C   C9        1.0  0.9968917363229722  0.40036686958234213  0.7207255612628387  1.0000
  C   C10       1.0  0.27601028987806586  0.09962364817679512  0.2793561993905058  1.0000
  C   C11       1.0  0.003106510089608687  0.5996294607397346  0.27927343963003903  1.0000
  C   C12       1.0  0.7239870969411869  0.9003775857292169  0.7206437186406732  1.0000
  C   C13       1.0  0.9319467290297396  0.35463967159267173  0.6271037801609509  1.0000
  C   C14       1.0  0.3048164296201676  0.14525095452593464  0.37302597133260923  1.0000
  C   C15       1.0  0.06805064210197288  0.6453552584035123  0.37289492779419225  1.0000
  C   C16       1.0  0.6951769559233583  0.854748205230912  0.6269720829067111  1.0000
  C   C17       1.0  0.9846164300152225  0.3110186883771817  0.5663638408693146  1.0000
  C   C18       1.0  0.41820097188870153  0.18886404616934266  0.4336909806661994  1.0000
  C   C19       1.0  0.015384501013542622  0.688979039969375  0.4336355671365054  1.0000
  C   C20       1.0  0.5817930552528522  0.8111414370747027  0.5663072078209197  1.0000
  C   C21       1.0  0.10526539836347837  0.3198153011547333  0.6062777694892887  1.0000
  C   C22       1.0  0.4988181963325218  0.18010981437461734  0.39363186207780393  1.0000
  C   C23       1.0  0.8947339727003581  0.6801838102417576  0.3937228931072879  1.0000
  C   C24       1.0  0.5011770655309604  0.8198956927657762  0.606365010167835  1.0000
  C   C25       1.0  0.16501290437319235  0.3678713956154098  0.7013836588094905  1.0000
  C   C26       1.0  0.4633574264413197  0.13208857829109627  0.29849851245897707  1.0000
  C   C27       1.0  0.8349856829699361  0.6321298316702054  0.2986166138101467  1.0000
  C   C28       1.0  0.5366354760489783  0.8679141238785207  0.7014980143244501  1.0000
  C   C29       1.0  0.9081601074208832  0.25988032116485016  0.46964080486596776  1.0000
  C   C30       1.0  0.43858464715254536  0.2400164244544527  0.5304748290776332  1.0000
  C   C31       1.0  0.09184064869862135  0.7401195273898297  0.5303579727496555  1.0000
  C   C32       1.0  0.5614122395144534  0.7599883366059571  0.4695243969126254  1.0000
  C   C33       1.0  0.8325975705011857  0.1781260877906234  0.3184288209205661  1.0000
  C   C34       1.0  0.5144020941829623  0.32182042848776854  0.6816925161131381  1.0000
  C   C35       1.0  0.16740216962624999  0.8218745111630171  0.6815673625371801  1.0000
  C   C36       1.0  0.4855950849404636  0.6781766064581519  0.31830639686678813  1.0000
  C   C37       1.0  0.811970810186253  0.12531583430422444  0.22171016653664566  1.0000
  C   C38       1.0  0.5905011767886135  0.3747173296271029  0.7783847988702348  1.0000
  C   C39       1.0  0.18803149842170083  0.8746854799288357  0.7782853219435709  1.0000
  C   C40       1.0  0.409495127053937  0.6252783049929248  0.22161382117194958  1.0000
  C   C41       1.0  0.7000684704534378  0.07813323260798198  0.162202509477801  1.0000
  C   C42       1.0  0.5380186786361136  0.42185579151356484  0.8379189642395773  1.0000
  C   C43       1.0  0.2999335777500959  0.921870125541318  0.8377965256870681  1.0000
  C   C44       1.0  0.4619790252150935  0.5781348828080153  0.1620818399109396  1.0000
  C   C45       1.0  0.67289369588444  0.030542316095918003  0.06889229510060348  1.0000
  C   C46       1.0  0.6040387360853643  0.46951980019196776  0.9312069038343936  1.0000
  C   C47       1.0  0.3271085101293211  0.9694589065868869  0.9311082058694354  1.0000
  C   C48       1.0  0.39595931010786956  0.5304694824416956  0.06879312655187425  1.0000
  C   C49       1.0  0.8584578753096537  0.0692215323705696  0.08731351767693948  1.0000
  C   C50       1.0  0.771276498297368  0.43102648425059437  0.9127725975185826  1.0000
  C   C51       1.0  0.1415458735700098  0.9307782920039285  0.9126865641173083  1.0000
  C   C52       1.0  0.22872462473969082  0.568969139146226  0.08722660546246168  1.0000
  C   C53       1.0  0.892558666227117  0.11913215876123219  0.1819928927868731  1.0000
  C   C54       1.0  0.7108065616564544  0.3810438738865187  0.8180888134725279  1.0000
  C   C55       1.0  0.1074431155069958  0.8808698033811667  0.8180056090270044  1.0000
  C   C56       1.0  0.2891945442815783  0.6189517342519297  0.18191122492348916  1.0000
  C   C57       1.0  0.5228415552375194  0.10145629063894293  0.8813533618470686  1.0000
  C   C58       1.0  0.6412977815226738  0.3983329616321214  0.1184511024211403  1.0000
  C   C59       1.0  0.47717677807984427  0.8985573513087528  0.11865977641652843  1.0000
  C   C60       1.0  0.3586917285033451  0.6016676707073216  0.8815433201571637  1.0000
  C   C61       1.0  0.8695515492993805  0.829306613837588  0.9011762154706916  1.0000
  C   C62       1.0  0.9680218959323738  0.6707265473332953  0.0987190241132439  1.0000
  C   C63       1.0  0.1304520246710226  0.17069533074501914  0.09882323593335939  1.0000
  C   C64       1.0  0.03196839781435302  0.3292719691170162  0.9012757884420071  1.0000
  N   N1        1.0  0.2897667615721387  0.371182415049276  0.891941545045853  1.0000
  N   N2        1.0  0.3976037968515199  0.1287123474951102  0.10797007553087214  1.0000
  N   N3        1.0  0.7102354444416222  0.6288188076335287  0.10805895592418578  1.0000
  N   N4        1.0  0.6023944310505485  0.8712902562200427  0.892031806267987  1.0000
  N   N5        1.0  0.10259939215833203  0.5599593470926366  0.8939232470372788  1.0000
  N   N6        1.0  0.20849447720602404  0.9399286568541427  0.10591481755756864  1.0000
  N   N7        1.0  0.89739944596667  0.44003697229005206  0.10607634885732152  1.0000
  N   N8        1.0  0.7915152646704371  0.06006827043169239  0.8940899071385858  1.0000
  N   N9        1.0  0.11288797147637558  0.40694105560822197  0.758893617416419  1.0000
  N   N10       1.0  0.3537584688849265  0.09306332196698011  0.2410757831181201  1.0000
  N   N11       1.0  0.8871092247460765  0.5930559945960711  0.24110446014852735  1.0000
  N   N12       1.0  0.6462382100862313  0.9069372401333382  0.7589224378208783  1.0000
  N   N13       1.0  0.7939530612669187  0.2459090307058744  0.440176741463425  1.0000
  N   N14       1.0  0.35395566955309476  0.2540428899724319  0.5601020191975223  1.0000
  N   N15       1.0  0.20604799552006633  0.7540922443724509  0.5598208986732446  1.0000
  N   N16       1.0  0.6460415840314581  0.7459576459301259  0.4398976321581572  1.0000
  N   N17       1.0  0.7475009919876712  0.195786218481345  0.3470739150053035  1.0000
  N   N18       1.0  0.40070247921107677  0.3041959955927068  0.6531991387169356  1.0000
  N   N19       1.0  0.2524994143133199  0.8042178704895518  0.6529236018299187  1.0000
  N   N20       1.0  0.5992955164196303  0.6958052426322965  0.3468005389009932  1.0000
  N   N21       1.0  0.9357828061312433  0.21761501692379429  0.3941838124541306  1.0000
  N   N22       1.0  0.5416927399884273  0.28229226379214384  0.605848342045917  1.0000
  N   N23       1.0  0.06421962608887803  0.782384131326026  0.605814812661194  1.0000
  N   N24       1.0  0.4583042225511845  0.7177097095734549  0.3941495768291006  1.0000
  N   N25       1.0  0.04445312905966145  0.20953801860787283  0.39169610987877956  1.0000
  N   N26       1.0  0.6527925225998458  0.29035812528653787  0.6082293339071185  1.0000
  N   N27       1.0  0.9555530208677325  0.7904617925258394  0.6083046810923849  1.0000
  N   N28       1.0  0.3472046319480526  0.7096417431293247  0.3917683799431231  1.0000
  N   N29       1.0  0.7498805661825683  0.02637659110118309  0.030470996269258498  1.0000
  N   N30       1.0  0.719439766014311  0.4737789609047312  0.9696061417525856  1.0000
  N   N31       1.0  0.25012135626273846  0.9736232203163481  0.9695298067647613  1.0000
  N   N32       1.0  0.2805599890661127  0.5262159405922872  0.030394110794446823  1.0000
  N   N33       1.0  0.5817427173316573  0.04302028352881138  0.8812649134726201  1.0000
  N   N34       1.0  0.7002527604802395  0.4568901736989517  0.11867674252761158  1.0000
  N   N35       1.0  0.4182652063215072  0.9569857834381991  0.11873970799469194  1.0000
  N   N36       1.0  0.2997433267785042  0.5431103993407546  0.8813208834096715  1.0000
  N   N37       1.0  0.8127853973195227  0.889145809327772  0.9058177575337112  1.0000
  N   N38       1.0  0.9067532462543467  0.6109243574281251  0.09424599630698088  1.0000
  N   N39       1.0  0.18721113131789482  0.11085403951072692  0.09418103214476052  1.0000
  N   N40       1.0  0.09324291687700999  0.38907342791677013  0.9057503225150614  1.0000
