data_image0
_chemical_formula_structural       Hg2H6C10Br8N2
_chemical_formula_sum              "Hg2 H6 C10 Br8 N2"
_cell_length_a       4.035532550650708
_cell_length_b       9.32701649061401
_cell_length_c       14.000018430743232
_cell_angle_alpha    81.92293561635454
_cell_angle_beta     86.73528111370712
_cell_angle_gamma    88.41869332808784

_space_group_name_H-M_alt    "P 1"
_space_group_IT_number       1

loop_
  _space_group_symop_operation_xyz
  'x, y, z'

loop_
  _atom_site_type_symbol
  _atom_site_label
  _atom_site_symmetry_multiplicity
  _atom_site_fract_x
  _atom_site_fract_y
  _atom_site_fract_z
  _atom_site_occupancy
  Hg  Hg1       1.0  0.9320113544832367  0.22848382180676918  0.30309629556754897  1.0000
  Hg  Hg2       1.0  0.06799546250690011  0.771513574696428  0.6969062261834224  1.0000
  H   H1        1.0  0.7604347063584812  0.04534416700896322  0.12472211307522227  1.0000
  H   H2        1.0  0.23955933608692698  0.9546608048910274  0.8752799246842925  1.0000
  H   H3        1.0  0.18009640895654397  0.8965140527599189  0.38577417460079017  1.0000
  H   H4        1.0  0.8199028395494992  0.10348661012399424  0.6142260266032266  1.0000
  H   H5        1.0  0.009152033362795508  0.588480522348995  0.1897358618872218  1.0000
  H   H6        1.0  0.9908445992908096  0.41152340244999414  0.8102626588050865  1.0000
  C   C1        1.0  0.1107234547866867  0.72792781624883  0.2958805543366267  1.0000
  C   C2        1.0  0.889273218764103  0.27207501851501803  0.7041187774022786  1.0000
  C   C3        1.0  0.8714454105264764  0.8135135539207143  0.14594959589987866  1.0000
  C   C4        1.0  0.12854378354170143  0.1864892562721679  0.8540519937232887  1.0000
  C   C5        1.0  0.8591609599101204  0.952849860993496  0.17179548056105884  1.0000
  C   C6        1.0  0.14083582912513035  0.0471508145463702  0.8282033279796082  1.0000
  C   C7        1.0  0.09452720857615293  0.8693657935904826  0.3181204599088687  1.0000
  C   C8        1.0  0.9054720286998614  0.13063486234466382  0.6818804563922853  1.0000
  C   C9        1.0  0.9994065067577438  0.6980787149933222  0.2083812500940709  1.0000
  C   C10       1.0  0.0005902076902373014  0.30192302973539853  0.7916188926914316  1.0000
  Br  Br1       1.0  0.3158815533645837  0.17694261995543314  0.44141566004241634  1.0000
  Br  Br2       1.0  0.6841250438866666  0.8230591019445017  0.5585871930078881  1.0000
  Br  Br3       1.0  0.5826123233527554  0.35025177356973103  0.16940182179329344  1.0000
  Br  Br4       1.0  0.4174050661632124  0.6497348734723475  0.8305936432598526  1.0000
  Br  Br5       1.0  0.27443503610934517  0.5753854770138745  0.38555460313293105  1.0000
  Br  Br6       1.0  0.7255667167875899  0.42461520100911815  0.614444130345845  1.0000
  Br  Br7       1.0  0.7133389691310156  0.7799748547193774  0.02620295250788018  1.0000
  Br  Br8       1.0  0.2866578086742138  0.2200258138717288  0.9737965711299308  1.0000
  N   N1        1.0  0.9704093634760936  0.9778665325030933  0.2562879243645283  1.0000
  N   N2        1.0  0.029584932398286405  0.022134134846446305  0.743711636804228  1.0000
