data_image0
_chemical_formula_structural       H40Pb2C40O10
_chemical_formula_sum              "H40 Pb2 C40 O10"
_cell_length_a       7.141548964074376
_cell_length_b       8.566665926204688
_cell_length_c       15.5975749224491
_cell_angle_alpha    102.32963323202279
_cell_angle_beta     89.99947964862108
_cell_angle_gamma    90.00013715099654

_space_group_name_H-M_alt    "P 1"
_space_group_IT_number       1

loop_
  _space_group_symop_operation_xyz
  'x, y, z'

loop_
  _atom_site_type_symbol
  _atom_site_label
  _atom_site_symmetry_multiplicity
  _atom_site_fract_x
  _atom_site_fract_y
  _atom_site_fract_z
  _atom_site_occupancy
  H   H1        1.0  0.3464736362820062  0.43015963065652574  0.6501023072122936  1.0000
  H   H2        1.0  0.8464775722890963  0.5698398243312397  0.3499022413162224  1.0000
  H   H3        1.0  0.5720003291594365  0.43170843724591623  0.6514580602252381  1.0000
  H   H4        1.0  0.0720041425876516  0.5682991798235122  0.34854278631630115  1.0000
  H   H5        1.0  0.3428676338879271  0.9274023572748434  0.6138090652415827  1.0000
  H   H6        1.0  0.8428666529877306  0.0726101748771768  0.3861924899067192  1.0000
  H   H7        1.0  0.5469384297915383  0.7289947489899119  0.704849327625233  1.0000
  H   H8        1.0  0.04693546085977119  0.2710007982539935  0.2951425641250153  1.0000
  H   H9        1.0  0.4636887855422033  0.9221085481270493  0.7523260071031219  1.0000
  H   H10       1.0  0.9636807556459884  0.07789206952211461  0.2476724137893171  1.0000
  H   H11       1.0  0.8572076448301474  0.8377500672878996  0.8224685146330375  1.0000
  H   H12       1.0  0.35722209750822737  0.16224090868193738  0.1775266948899201  1.0000
  H   H13       1.0  0.16157583937516762  0.974852310867199  0.8221431871347279  1.0000
  H   H14       1.0  0.6615816433427997  0.025136245995078403  0.17785641155520443  1.0000
  H   H15       1.0  0.2256094853751307  0.1409132744400097  0.7116735339056462  1.0000
  H   H16       1.0  0.7256000494510603  0.8590788854509411  0.288325564240175  1.0000
  H   H17       1.0  0.9884493369615585  0.16289419899485585  0.5993036695227333  1.0000
  H   H18       1.0  0.48842767128976305  0.8371147748183533  0.4006943112673867  1.0000
  H   H19       1.0  0.5583675472703433  0.12622246671471518  0.5963447680392947  1.0000
  H   H20       1.0  0.0583571283298312  0.8737863208574338  0.4036549855391841  1.0000
  H   H21       1.0  0.6670252395120927  0.9765687899311857  0.5157821334207782  1.0000
  H   H22       1.0  0.16701083563553706  0.023439989403904307  0.4842133191534472  1.0000
  H   H23       1.0  0.3516200970809606  0.6826098472900101  0.20853442269894634  1.0000
  H   H24       1.0  0.8516299976788985  0.3173848305708304  0.7914695638563387  1.0000
  H   H25       1.0  0.5985913361325572  0.6628479399116998  0.10375914085516773  1.0000
  H   H26       1.0  0.098599076297802  0.33715260257263674  0.8962465646314115  1.0000
  H   H27       1.0  0.7211674995907558  0.5783161974208112  0.1813679707846418  1.0000
  H   H28       1.0  0.22117421115026298  0.42167713695943826  0.8186299964507385  1.0000
  H   H29       1.0  0.8817879257083162  0.3760022031009953  0.030184392156357407  1.0000
  H   H30       1.0  0.3817964190530533  0.6239899783510554  0.9698108512449011  1.0000
  H   H31       1.0  0.8171274813262671  0.11822381018173898  0.924780360626926  1.0000
  H   H32       1.0  0.317134778670713  0.881768435418593  0.07522157117901433  1.0000
  H   H33       1.0  0.49624189444433847  0.004912874392033501  0.9105002520222953  1.0000
  H   H34       1.0  0.9962521739723156  0.9950853768944656  0.08949840646084796  1.0000
  H   H35       1.0  0.2358719930912869  0.1456206353837644  0.0010648040459458022  1.0000
  H   H36       1.0  0.7358765032991171  0.8543907201010796  0.9989415522526884  1.0000
  H   H37       1.0  0.19017192771786276  0.3804301471485445  0.1656130906390558  1.0000
  H   H38       1.0  0.6901790296598946  0.6195644607978466  0.8343915614167657  1.0000
  H   H39       1.0  0.18812845507984122  0.5133931904139502  0.09329385553640891  1.0000
  H   H40       1.0  0.6881309529279348  0.4866098173807103  0.9067143200073745  1.0000
  Pb  Pb1       1.0  0.47430502246484707  0.3815909280018984  0.44336190941029235  1.0000
  Pb  Pb2       1.0  0.9743078092635287  0.6183870752361712  0.5566396788336192  1.0000
  C   C1        1.0  0.4860106636877717  0.7253576931072417  0.5431632122812573  1.0000
  C   C2        1.0  0.9860102552510809  0.2746488070417855  0.45682872846108324  1.0000
  C   C3        1.0  0.48702261966001004  0.8830431289457579  0.6090629904936691  1.0000
  C   C4        1.0  0.9870230700953683  0.1169717539460109  0.3909311767568653  1.0000
  C   C5        1.0  0.5541065671409555  0.8549761054692268  0.7000585706977916  1.0000
  C   C6        1.0  0.05410314904737851  0.1450242242355344  0.2999338322531316  1.0000
  C   C7        1.0  0.7506969688388736  0.920389375327062  0.7096595708255009  1.0000
  C   C8        1.0  0.2506935564522195  0.07960628779753157  0.29033340758704906  1.0000
  C   C9        1.0  0.8847204708589942  0.907161340643029  0.7729233529047976  1.0000
  C   C10       1.0  0.38472394715988395  0.09283560300485051  0.22707113479185645  1.0000
  C   C11       1.0  0.056823157097191795  0.985057008212145  0.7727251607357034  1.0000
  C   C12       1.0  0.5568279555853408  0.014939839517310802  0.2272738894967858  1.0000
  C   C13       1.0  0.0936030326314352  0.07636127316456512  0.7102181302395253  1.0000
  C   C14       1.0  0.5936007508671607  0.9236403606325113  0.2897806669597642  1.0000
  C   C15       1.0  0.960080972550223  0.0883342520115207  0.646263365645176  1.0000
  C   C16       1.0  0.4600772478930111  0.9116819430606142  0.3537400384726723  1.0000
  C   C17       1.0  0.7891221564273891  0.0090088395900096  0.6456850955484583  1.0000
  C   C18       1.0  0.2891172433212787  0.99100003869485  0.354313064653475  1.0000
  C   C19       1.0  0.6247816549532457  0.0074854887515414005  0.5850826612694393  1.0000
  C   C20       1.0  0.1247699472801216  0.9925220774516746  0.41491283024193854  1.0000
  C   C21       1.0  0.44365102690874636  0.510328102561111  0.2776416324176054  1.0000
  C   C22       1.0  0.9436571771717014  0.4896654387428185  0.7223631239780133  1.0000
  C   C23       1.0  0.4144384091289339  0.5629158861003629  0.19076863310157682  1.0000
  C   C24       1.0  0.9144454948418428  0.4370764292844171  0.809234824146806  1.0000
  C   C25       1.0  0.5977450977579082  0.5636005257454358  0.13855205398203913  1.0000
  C   C26       1.0  0.09775520518653019  0.43639516329672995  0.861447976745076  1.0000
  C   C27       1.0  0.5941902644294002  0.4057945645861877  0.0738132210613855  1.0000
  C   C28       1.0  0.094195335486674  0.5942035218088364  0.9261877368897515  1.0000
  C   C29       1.0  0.7407358843141126  0.32566066914286296  0.023869587899469004  1.0000
  C   C30       1.0  0.2407457947388068  0.6743362305848776  0.9761267776671546  1.0000
  C   C31       1.0  0.7043141141770661  0.18148654049706883  0.9647482038479965  1.0000
  C   C32       1.0  0.204326224312112  0.8185091946943929  0.03525138759393804  1.0000
  C   C33       1.0  0.5229570945690226  0.11820759187049391  0.9562432992441856  1.0000
  C   C34       1.0  0.022970614880002002  0.8817844986982665  0.043757918568204046  1.0000
  C   C35       1.0  0.37606008223516335  0.19764487730130753  0.007014123249135208  1.0000
  C   C36       1.0  0.8760673641659621  0.8023569893927058  0.9929912158766568  1.0000
  C   C37       1.0  0.412684805966478  0.341134047397837  0.066292598870902  1.0000
  C   C38       1.0  0.912684454328371  0.6588618333137362  0.933709986807564  1.0000
  C   C39       1.0  0.2809706129382476  0.44651222055634315  0.128882028177685  1.0000
  C   C40       1.0  0.7809698016540735  0.5534907905824653  0.8711231959265504  1.0000
  O   O1        1.0  0.4596930135102752  0.3829984455189219  0.6189318785032042  1.0000
  O   O2        1.0  0.9596964661721687  0.6170129239553004  0.38106777551713833  1.0000
  O   O3        1.0  0.6390491139958527  0.6608614949522361  0.5115072930019195  1.0000
  O   O4        1.0  0.13905231689422243  0.339139055836121  0.48849760353872546  1.0000
  O   O5        1.0  0.3310920176666841  0.6548730909802886  0.5203212540764071  1.0000
  O   O6        1.0  0.8310969570843766  0.345141705958099  0.4796722715420998  1.0000
  O   O7        1.0  0.6073757072901599  0.49078225620426263  0.3057245432603679  1.0000
  O   O8        1.0  0.107378121819238  0.5092206429016528  0.6942788276533634  1.0000
  O   O9        1.0  0.2962189723215046  0.48654154074813516  0.32011480851161883  1.0000
  O   O10       1.0  0.7962246287739349  0.5134447492462896  0.6798884601103766  1.0000
