data_image0
_chemical_formula_structural       Pr4Cu6H48C48O60
_chemical_formula_sum              "Pr4 Cu6 H48 C48 O60"
_cell_length_a       14.320136159004617
_cell_length_b       15.177294468508382
_cell_length_c       15.177301985683817
_cell_angle_alpha    120.00033030710777
_cell_angle_beta     89.99991978550084
_cell_angle_gamma    90.0000007167244

_space_group_name_H-M_alt    "P 1"
_space_group_IT_number       1

loop_
  _space_group_symop_operation_xyz
  'x, y, z'

loop_
  _atom_site_type_symbol
  _atom_site_label
  _atom_site_symmetry_multiplicity
  _atom_site_fract_x
  _atom_site_fract_y
  _atom_site_fract_z
  _atom_site_occupancy
  Pr  Pr1       1.0  0.24999922439580058  0.3333332675560356  0.6666673973334767  1.0000
  Pr  Pr2       1.0  0.25000017180387607  0.6666667994914873  0.33333287790892996  1.0000
  Pr  Pr3       1.0  0.7500010042329495  0.6666672435085558  0.3333330994276834  1.0000
  Pr  Pr4       1.0  0.7499993585084611  0.33333239380901586  0.666666301088881  1.0000
  Cu  Cu1       1.0  3.3170098130000017e-07  0.9999996505412625  0.4999996958472508  1.0000
  Cu  Cu2       1.0  0.9999999580666672  0.4999996957262667  0.9999991552495828  1.0000
  Cu  Cu3       1.0  3.2936074490000007e-07  0.500000280195266  0.5000008759444086  1.0000
  Cu  Cu4       1.0  0.50000009217856  0.49999910045803375  0.9999990982899972  1.0000
  Cu  Cu5       1.0  0.4999997674952895  9.455893490875141e-08  0.4999999173672193  1.0000
  Cu  Cu6       1.0  0.4999997651563108  0.49999978685195146  0.499999399297394  1.0000
  H   H1        1.0  0.8454219770868222  0.3569120731735609  0.20690415978636165  1.0000
  H   H2        1.0  0.7502636023553964  0.3705208470058139  0.2900088238674954  1.0000
  H   H3        1.0  0.845422353805148  0.8499944848318465  0.6430879871575427  1.0000
  H   H4        1.0  0.7502640511540835  0.9194903249128925  0.6294786909706998  1.0000
  H   H5        1.0  0.8454199264258621  0.7930963672697402  0.15000821870322056  1.0000
  H   H6        1.0  0.750263061196769  0.7099891385794521  0.0805118846799003  1.0000
  H   H7        1.0  0.8454222414429328  0.6430871017293638  0.7930954541973418  1.0000
  H   H8        1.0  0.7502646883272065  0.6294787900848888  0.7099905761872731  1.0000
  H   H9        1.0  0.8454211664075901  0.1500064901637899  0.3569111444996551  1.0000
  H   H10       1.0  0.7502642395290808  0.08051007298462315  0.3705199482780088  1.0000
  H   H11       1.0  0.8454201021986308  0.2069041253993761  0.8499927130480955  1.0000
  H   H12       1.0  0.7502624362155291  0.29001077699123784  0.9194885546623224  1.0000
  H   H13       1.0  0.6545780092019842  0.2069042563494533  0.3569120769259654  1.0000
  H   H14       1.0  0.7497363125674853  0.2900088466932401  0.3705207450944811  1.0000
  H   H15       1.0  0.6545790417198207  0.6430889697209352  0.8499935462073579  1.0000
  H   H16       1.0  0.7497359064968949  0.6294795174580514  0.9194892117641231  1.0000
  H   H17       1.0  0.6545797799819582  0.1500070943037528  0.7930957856580747  1.0000
  H   H18       1.0  0.7497374561364939  0.08051061770696312  0.7099884647705678  1.0000
  H   H19       1.0  0.6545784977501017  0.7930971611471591  0.6430884278874204  1.0000
  H   H20       1.0  0.7497375188670078  0.7099914497327902  0.62947931476463  1.0000
  H   H21       1.0  0.6545788618672365  0.3569114084894665  0.15000668012585544  1.0000
  H   H22       1.0  0.7497358299859375  0.37052012008668817  0.08051018921484139  1.0000
  H   H23       1.0  0.6545795202395798  0.8499929035026454  0.2069048210769394  1.0000
  H   H24       1.0  0.7497370736155846  0.9194886394331618  0.29001131660898233  1.0000
  H   H25       1.0  0.15457894985930667  0.6430884378907323  0.7930963369741876  1.0000
  H   H26       1.0  0.24973732459073267  0.6294796640584792  0.7099916728930536  1.0000
  H   H27       1.0  0.1545778748240849  0.1500053673505447  0.3569118507216372  1.0000
  H   H28       1.0  0.24973617747563281  0.08050886838730521  0.3705204880265001  1.0000
  H   H29       1.0  0.15457960388599198  0.20690348491295657  0.8499916191765706  1.0000
  H   H30       1.0  0.24973716743246402  0.290010713602939  0.9194879531992796  1.0000
  H   H31       1.0  0.15457798718630045  0.3569127504530342  0.20690438368184516  1.0000
  H   H32       1.0  0.24973554030153625  0.37052172097969555  0.29000992057388686  1.0000
  H   H33       1.0  0.15457906222163592  0.8499933620186083  0.6430886933795249  1.0000
  H   H34       1.0  0.24973598910014524  0.9194897791977678  0.6294798896011711  1.0000
  H   H35       1.0  0.15458012642982777  0.793096005261809  0.1500081641160875  1.0000
  H   H36       1.0  0.24973709409631795  0.7099890751914587  0.08051128321746857  1.0000
  H   H37       1.0  0.34542221942801643  0.793095317354151  0.6430867216682115  1.0000
  H   H38       1.0  0.2502646143798942  0.7099907270100658  0.6294780534990849  1.0000
  H   H39       1.0  0.3454211869094053  0.356910882461456  0.15000629167182916  1.0000
  H   H40       1.0  0.250263623814952  0.37052033472464524  0.08051062611566805  1.0000
  H   H41       1.0  0.34542044864727484  0.8499927578786383  0.2069040522211055  1.0000
  H   H42       1.0  0.2502627724924551  0.9194888540720213  0.2900117535116422  1.0000
  H   H43       1.0  0.3454210325607719  0.20690400879992404  0.3569127277563311  1.0000
  H   H44       1.0  0.2502627097619411  0.2900080220461946  0.37052090351757977  1.0000
  H   H45       1.0  0.34542136676151375  0.6430891025751175  0.8499938166353045  1.0000
  H   H46       1.0  0.2502637003259097  0.6294797320960086  0.9194896486649495  1.0000
  H   H47       1.0  0.34542070838916333  0.15000760756193895  0.7930956756842206  1.0000
  H   H48       1.0  0.25026245669626235  0.08051121274952765  0.7099885212708087  1.0000
  C   C1        1.0  0.35986464448824057  0.5178712872335749  0.8770750041652275  1.0000
  C   C2        1.0  0.7003200518517761  0.41215873860197416  0.14389874676764686  1.0000
  C   C3        1.0  0.3598635403946063  0.3592039382859581  0.4821286567058677  1.0000
  C   C4        1.0  0.7003211203155005  0.731739714830624  0.5878394953343715  1.0000
  C   C5        1.0  0.3598634214638567  0.12292879650396318  0.640796517365004  1.0000
  C   C6        1.0  0.7003206598954963  0.8561015410480479  0.268261668878182  1.0000
  C   C7        1.0  0.3598652043459368  0.48212764610367737  0.12292480039450744  1.0000
  C   C8        1.0  0.7003195237983917  0.5878412198926527  0.8561017799472879  1.0000
  C   C9        1.0  0.35986630843868994  0.6407977325046942  0.5178723636937475  1.0000
  C   C10       1.0  0.7003205502878702  0.26826034558771267  0.41215961169069704  1.0000
  C   C11       1.0  0.3598650307359252  0.877071936926299  0.3592028048688504  1.0000
  C   C12       1.0  0.7003203123894368  0.1438984174459747  0.7317388578355306  1.0000
  C   C13       1.0  0.14013585691004246  0.8770759454063467  0.517872306291558  1.0000
  C   C14       1.0  0.7996799401624844  0.1438985941874904  0.4121584957724806  1.0000
  C   C15       1.0  0.14013317961904195  0.48212741286693017  0.35920295502184263  1.0000
  C   C16       1.0  0.7996797049217506  0.5878395303894024  0.7317394075867867  1.0000
  C   C17       1.0  0.14013545076920764  0.6407968760644707  0.12292791978339314  1.0000
  C   C18       1.0  0.7996789127590704  0.26826107137426186  0.8561014264958402  1.0000
  C   C19       1.0  0.14013448328910985  0.12292553382962977  0.4821294789173081  1.0000
  C   C20       1.0  0.7996805113522925  0.8561013808355183  0.587840437428298  1.0000
  C   C21       1.0  0.1401364622634986  0.5178737878905508  0.6407977909026243  1.0000
  C   C22       1.0  0.7996793499576925  0.4121596838273973  0.268260286421274  1.0000
  C   C23       1.0  0.1401362860675093  0.3592031088523342  0.8770700886872547  1.0000
  C   C24       1.0  0.7996801421189165  0.7317401194891245  0.14390024415815347  1.0000
  C   C25       1.0  0.6401355841409853  0.4821285649488232  0.12292483371395238  1.0000
  C   C26       1.0  0.29968017677745723  0.587841113580417  0.8561010911115332  1.0000
  C   C27       1.0  0.6401352915988882  0.6407972316614303  0.5178724989384947  1.0000
  C   C28       1.0  0.29967840999663053  0.26826051775547194  0.41215996214238965  1.0000
  C   C29       1.0  0.6401361088479903  0.8770710556787265  0.359203320514787  1.0000
  C   C30       1.0  0.2996802670501496  0.14389962889843133  0.7317394867643472  1.0000
  C   C31       1.0  0.6401350242825217  0.5178724845575073  0.8770760767696757  1.0000
  C   C32       1.0  0.2996800065131708  0.4121582518866376  0.1438984383355333  1.0000
  C   C33       1.0  0.6401339201910263  0.3592014607955035  0.48212681530345236  1.0000
  C   C34       1.0  0.29967967834164017  0.7317398869980848  0.58783984578546  1.0000
  C   C35       1.0  0.6401351978930168  0.1229275348526855  0.6407974134133596  1.0000
  C   C36       1.0  0.2996792179224102  0.8561014347367218  0.26826098004426063  1.0000
  C   C37       1.0  0.8598643717194677  0.1229242871794582  0.48212715118459926  1.0000
  C   C38       1.0  0.20031959014936263  0.8561012579952062  0.5878413421073104  1.0000
  C   C39       1.0  0.8598663506927199  0.5178710196267529  0.6407969847820281  1.0000
  C   C40       1.0  0.20032052370748235  0.4121603217929957  0.2682604302924004  1.0000
  C   C41       1.0  0.8598640795431297  0.3592023172360255  0.8770712592144249  1.0000
  C   C42       1.0  0.2003199192349144  0.7317394396909336  0.14389907026654208  1.0000
  C   C43       1.0  0.85986574533964  0.8770749772349616  0.5178710178438521  1.0000
  C   C44       1.0  0.20031971727694045  0.14389847134687273  0.41215940045088223  1.0000
  C   C45       1.0  0.8598658613181628  0.48212644469434446  0.3592016665716996  1.0000
  C   C46       1.0  0.20032087867105025  0.5878408272371871  0.7317402103398862  1.0000
  C   C47       1.0  0.8598639425622921  0.6407975041368701  0.1229289883858725  1.0000
  C   C48       1.0  0.20031938819244038  0.2682603915757653  0.8561002526036177  1.0000
  O   O1        1.0  0.36039192012493987  0.4236976694508382  0.8145190058710979  1.0000
  O   O2        1.0  0.4056965496674111  0.5657923521710939  0.9598866102696275  1.0000
  O   O3        1.0  0.3603886052803418  0.3908221623546808  0.5763041689514665  1.0000
  O   O4        1.0  0.4056962409089452  0.3940934178720211  0.434210423974953  1.0000
  O   O5        1.0  0.36039207149291047  0.1854807659079184  0.6091804256578683  1.0000
  O   O6        1.0  0.40569820670554446  0.04011411037998159  0.6059057884626569  1.0000
  O   O7        1.0  0.36039238795560646  0.5763022007942665  0.18548249593326457  1.0000
  O   O8        1.0  0.40569583543175725  0.4342072006582569  0.04011377299258358  1.0000
  O   O9        1.0  0.3603915128959942  0.6091791275812283  0.42369723093248257  1.0000
  O   O10       1.0  0.40569544587235384  0.6059067938398215  0.5657906181698422  1.0000
  O   O11       1.0  0.3603929349067557  0.8145175080937079  0.39081871909692006  1.0000
  O   O12       1.0  0.405698368298694  0.9598851639687779  0.39409355551087794  1.0000
  O   O13       1.0  0.1396086969264587  0.8145192787122468  0.42369807184763875  1.0000
  O   O14       1.0  0.0943038552618347  0.9598866108744275  0.5657931482427614  1.0000
  O   O15       1.0  0.13960732359109332  0.5763054365272708  0.39082136655964916  1.0000
  O   O16       1.0  0.09430537694002791  0.43421127531725995  0.39409301247463446  1.0000
  O   O17       1.0  0.139607476228079  0.6091813004582818  0.18548191668807584  1.0000
  O   O18       1.0  0.09430075238262964  0.6059061093409496  0.04011475630701961  1.0000
  O   O19       1.0  0.13960648570922982  0.1854816440195819  0.5763016357141808  1.0000
  O   O20       1.0  0.0943032503551535  0.040113209584149004  0.4342077797853037  1.0000
  O   O21       1.0  0.13961065231490014  0.4236952077245632  0.6091773017147233  1.0000
  O   O22       1.0  0.09430312531188181  0.5657913845187252  0.6059077117040417  1.0000
  O   O23       1.0  0.13960770640655806  0.390819520348927  0.8145192105617837  1.0000
  O   O24       1.0  0.09430146501345153  0.39409343264093616  0.9598851324403127  1.0000
  O   O25       1.0  0.6396083085042863  0.5763021827315526  0.18548083200808205  1.0000
  O   O26       1.0  0.5943036789620209  0.43420646072569713  0.04011294913060942  1.0000
  O   O27       1.0  0.6396102267142113  0.6091791095173206  0.42369556700485583  1.0000
  O   O28       1.0  0.594303987720565  0.6059068147137835  0.565789033501197  1.0000
  O   O29       1.0  0.6396081571365216  0.8145180469888725  0.3908191337423615  1.0000
  O   O30       1.0  0.5943013236063025  0.959885741802715  0.3940940494171342  1.0000
  O   O31       1.0  0.6396078406730582  0.4236968905813185  0.8145181027519753  1.0000
  O   O32       1.0  0.5943043931974757  0.5657926515241344  0.9598860648865966  1.0000
  O   O33       1.0  0.6396080174153697  0.3908213834836545  0.5763032658292886  1.0000
  O   O34       1.0  0.5943033861221139  0.3940930583431665  0.43420921971056  1.0000
  O   O35       1.0  0.6396065954050912  0.18548234408898873  0.6091811187828711  1.0000
  O   O36       1.0  0.594301860330539  0.040114688213620395  0.6059062823683021  1.0000
  O   O37       1.0  0.8603908333851821  0.18548161275604977  0.5763020445111025  1.0000
  O   O38       1.0  0.9056956750498133  0.04011428059386893  0.43420696811597986  1.0000
  O   O39       1.0  0.8603922067202706  0.42369507453761907  0.6091791302021221  1.0000
  O   O40       1.0  0.905694851688715  0.5657892357473243  0.6059074842865257  1.0000
  O   O41       1.0  0.8603920540845422  0.3908182732456211  0.8145168819067122  1.0000
  O   O42       1.0  0.9056980796126057  0.39409346436325166  0.9598840422883795  1.0000
  O   O43       1.0  0.8603937429204864  0.814517549280616  0.4236975432830192  1.0000
  O   O44       1.0  0.9056962799574679  0.9598863641197539  0.5657910188094845  1.0000
  O   O45       1.0  0.8603909729497873  0.5763029462894308  0.39082159880231154  1.0000
  O   O46       1.0  0.9056957066810443  0.43420902462184324  0.3940942047463735  1.0000
  O   O47       1.0  0.860392522222185  0.6091809907156572  0.1854812861993692  1.0000
  O   O48       1.0  0.9056980652984027  0.6059064195417605  0.0401147054394784  1.0000
  O   O49       1.0  0.7499996790790677  0.47169249554417547  0.23584585398529612  1.0000
  O   O50       1.0  0.7500001615850354  0.7641541085253394  0.5283081312269289  1.0000
  O   O51       1.0  0.7499996804469691  0.7641539852474394  0.2358464542829637  1.0000
  O   O52       1.0  0.7499992870268031  0.5283074202527871  0.7641545858174936  1.0000
  O   O53       1.0  0.750000201155608  0.23584580727101914  0.4716923085746457  1.0000
  O   O54       1.0  0.7499999839762808  0.2358459305492175  0.7641539855192221  1.0000
  O   O55       1.0  0.25000054954967516  0.5283080155204157  0.7641546427758639  1.0000
  O   O56       1.0  0.2499993687262504  0.2358449828505441  0.47169246745892207  1.0000
  O   O57       1.0  0.24999984986487797  0.23584586693525708  0.7641533835968345  1.0000
  O   O58       1.0  0.2500002432847594  0.471692051526503  0.23584563246532741  1.0000
  O   O59       1.0  0.25000002747362526  0.7641540449113717  0.5283075293045342  1.0000
  O   O60       1.0  0.25000024465266085  0.764153541229767  0.23584623276298794  1.0000
