data_image0
_chemical_formula_structural       Zn12H20C60N4O60
_chemical_formula_sum              "Zn12 H20 C60 N4 O60"
_cell_length_a       18.164929369902076
_cell_length_b       18.13653937402581
_cell_length_c       21.836319290880606
_cell_angle_alpha    89.55215251214175
_cell_angle_beta     92.36851166061841
_cell_angle_gamma    90.24787890605043

_space_group_name_H-M_alt    "P 1"
_space_group_IT_number       1

loop_
  _space_group_symop_operation_xyz
  'x, y, z'

loop_
  _atom_site_type_symbol
  _atom_site_label
  _atom_site_symmetry_multiplicity
  _atom_site_fract_x
  _atom_site_fract_y
  _atom_site_fract_z
  _atom_site_occupancy
  Zn  Zn1       1.0  0.9898944656499676  0.0765212674794284  0.4973284319450642  1.0000
  Zn  Zn2       1.0  0.9845157620432872  0.9272966098839889  0.5025938842485402  1.0000
  Zn  Zn3       1.0  0.4922746421625135  0.571183936215199  0.004602773143737703  1.0000
  Zn  Zn4       1.0  0.49401471768577215  0.42134807851053313  0.0024456701804140986  1.0000
  Zn  Zn5       1.0  0.9200808436079909  0.0169080566879813  0.9965325540575805  1.0000
  Zn  Zn6       1.0  0.07137479886310423  0.0218546069023446  0.9967152969054283  1.0000
  Zn  Zn7       1.0  0.42087874857362106  0.4847542130575847  0.5000892871696223  1.0000
  Zn  Zn8       1.0  0.5725111067529199  0.48337886199802677  0.5013405755013522  1.0000
  Zn  Zn9       1.0  0.4823465944138193  0.985289305314424  0.4399903676263577  1.0000
  Zn  Zn10      1.0  0.48734414161064893  0.9819979434266058  0.5656808166867863  1.0000
  Zn  Zn11      1.0  0.9890927142020021  0.5177193947074555  0.9402625642964323  1.0000
  Zn  Zn12      1.0  0.9941344976702384  0.5213120485900973  0.0658976055926885  1.0000
  H   H1        1.0  0.9209676789599898  0.9672615870203742  0.1843151206655094  1.0000
  H   H2        1.0  0.12242549254250432  0.0936658619181117  0.8032810920987005  1.0000
  H   H3        1.0  0.42244232624386774  0.5299921884161023  0.6883308625593756  1.0000
  H   H4        1.0  0.6335967355698742  0.5153595145096546  0.304396266279781  1.0000
  H   H5        1.0  0.007706889676569499  0.07417948191644537  0.2969954189675121  1.0000
  H   H6        1.0  0.020977188421689205  0.9858528063168349  0.6996359364142678  1.0000
  H   H7        1.0  0.5127914637792301  0.42149332789743715  0.8019229377842763  1.0000
  H   H8        1.0  0.5287086819833321  0.4029738774859126  0.2043918061907632  1.0000
  H   H9        1.0  0.9777418771747293  0.8336920934811474  0.23115429705022453  1.0000
  H   H10       1.0  0.880220942691473  0.8524675268101589  0.226249724321022  1.0000
  H   H11       1.0  0.9180639190017031  0.794921902768877  0.2864898302397023  1.0000
  H   H12       1.0  0.14950306664522367  0.2116619506844444  0.7562265334382162  1.0000
  H   H13       1.0  0.0522688201721095  0.22387429351209678  0.7666850366782327  1.0000
  H   H14       1.0  0.0960315354961807  0.26893591816430984  0.7043684705418373  1.0000
  H   H15       1.0  0.37394644167218877  0.6382468165138561  0.7323541007778687  1.0000
  H   H16       1.0  0.47070846842961345  0.6615134630116727  0.7344279130394895  1.0000
  H   H17       1.0  0.41200385641571563  0.6963433289538656  0.7915368164798551  1.0000
  H   H18       1.0  0.643178377422423  0.6382276553441385  0.2588101928397748  1.0000
  H   H19       1.0  0.5453783091963943  0.649910822047474  0.2445620560058472  1.0000
  H   H20       1.0  0.6092359335907889  0.6839635562254074  0.19041346412122104  1.0000
  C   C1        1.0  0.12508019755913583  0.9572878809662623  0.5067758610366014  1.0000
  C   C2        1.0  0.8479123882516505  0.9783889867636899  0.5122626827380117  1.0000
  C   C3        1.0  0.6320080436043939  0.5402844596511613  0.008768212012185504  1.0000
  C   C4        1.0  0.35464646901723285  0.5225420223488157  0.014739094743532605  1.0000
  C   C5        1.0  0.9847739362865017  0.021678701349969704  0.38407887409266556  1.0000
  C   C6        1.0  0.012106905710496102  0.04009529990104  0.6121655988391481  1.0000
  C   C7        1.0  0.48964098663672934  0.4736038136973945  0.8884364476639561  1.0000
  C   C8        1.0  0.5186248431553581  0.4597967192292528  0.1160969151969837  1.0000
  C   C9        1.0  0.9717369330643066  0.976957201252297  0.21178583358276631  1.0000
  C   C10       1.0  0.06958218552767191  0.07996181491552788  0.7803524093194126  1.0000
  C   C11       1.0  0.4727408197565666  0.5187289720212219  0.7160087111587075  1.0000
  C   C12       1.0  0.5797044760877911  0.5045714273804053  0.28209036662779857  1.0000
  C   C13       1.0  0.030346739898739407  0.9967003272791428  0.17981998138721883  1.0000
  C   C14       1.0  0.017498861637520204  0.05125384007767759  0.8154645505060216  1.0000
  C   C15       1.0  0.5309804322469631  0.49868547882431363  0.6840999140708419  1.0000
  C   C16       1.0  0.5238705791176914  0.48864066057775085  0.31833114751784564  1.0000
  C   C17       1.0  0.9691463020871326  0.9668184544725447  0.27849389280904563  1.0000
  C   C18       1.0  0.0582977515699739  0.09402771168586098  0.7141738584787022  1.0000
  C   C19       1.0  0.4701469714030893  0.5274572148470612  0.7825866067055075  1.0000
  C   C20       1.0  0.5697300058417059  0.5112552652320588  0.2151253106464708  1.0000
  C   C21       1.0  0.9893932849324899  0.022623293626963904  0.3171984134434211  1.0000
  C   C22       1.0  0.030220337977986806  0.0390375958178453  0.6779363930904765  1.0000
  C   C23       1.0  0.4931696686748097  0.4723304000610611  0.8215671277954186  1.0000
  C   C24       1.0  0.5388637652779025  0.45536902955882397  0.1816238245064739  1.0000
  C   C25       1.0  0.2037938266139747  0.9538465062086555  0.5182675698759027  1.0000
  C   C26       1.0  0.7694962077305051  0.9786134784150132  0.5210863238624626  1.0000
  C   C27       1.0  0.7107379396505209  0.5442564114433706  0.0196894973043698  1.0000
  C   C28       1.0  0.2760749000231755  0.5234984939304751  0.0223228530099533  1.0000
  C   C29       1.0  0.2701645965100284  0.9596522403612936  0.52684606304409  1.0000
  C   C30       1.0  0.7031443584851829  0.9809450223177263  0.5264359141803467  1.0000
  C   C31       1.0  0.7771929456249681  0.5400721617797258  0.0279776115021662  1.0000
  C   C32       1.0  0.20959276868408241  0.521578997294064  0.026914285235008602  1.0000
  C   C33       1.0  0.9708323186554394  0.8812729218036564  0.9827222927435741  1.0000
  C   C34       1.0  0.962438516828982  0.15652138641129906  0.9973630313423101  1.0000
  C   C35       1.0  0.46635958533956773  0.34654513974579254  0.4965490310018197  1.0000
  C   C36       1.0  0.4666132449727698  0.6221078031167551  0.489675377265904  1.0000
  C   C37       1.0  0.026687145417192002  0.0069281659740312  0.1118778336008717  1.0000
  C   C38       1.0  0.023798804058692703  0.036615605705847494  0.8825300741066968  1.0000
  C   C39       1.0  0.5272631874487033  0.4905972660221778  0.6161450232887448  1.0000
  C   C40       1.0  0.5272627213203195  0.484163585066291  0.38629821315362994  1.0000
  C   C41       1.0  0.4808063536303565  0.8458180709871994  0.47341356646131777  1.0000
  C   C42       1.0  0.4751135466261119  0.12243190128218369  0.4815025942755895  1.0000
  C   C43       1.0  0.9781989337063591  0.3806497397512629  0.9826209302725673  1.0000
  C   C44       1.0  0.9878462552656091  0.6574624903405848  0.9719918521882108  1.0000
  C   C45       1.0  0.34850950187198043  0.9704115328954184  0.5286299785932655  1.0000
  C   C46       1.0  0.6240467955065441  0.98344875895021  0.5264122607075876  1.0000
  C   C47       1.0  0.8556041212309111  0.5312828551139432  0.0295992460235652  1.0000
  C   C48       1.0  0.13053937857370101  0.5191179211111462  0.026603846462954602  1.0000
  C   C49       1.0  0.9726751771653922  0.8028610112405234  0.9739566229478814  1.0000
  C   C50       1.0  0.961398734660591  0.23543051572830356  0.9905282756678133  1.0000
  C   C51       1.0  0.46497713026930404  0.26796023157713483  0.4888149263820481  1.0000
  C   C52       1.0  0.466875476343013  0.700398344053667  0.4794219104186013  1.0000
  C   C53       1.0  0.46869545900207743  0.201522052174397  0.4827369975907203  1.0000
  C   C54       1.0  0.4729038298380104  0.76677200524518  0.4729333014182728  1.0000
  C   C55       1.0  0.9794427594803852  0.7364367076585907  0.9697233387883628  1.0000
  C   C56       1.0  0.9678387034308856  0.30184167854506677  0.9844489361643055  1.0000
  C   C57       1.0  0.9284033318845601  0.8430470069880939  0.25749620066973483  1.0000
  C   C58       1.0  0.0951721042896949  0.2190821529407785  0.7328915194433065  1.0000
  C   C59       1.0  0.42297129094180264  0.6493225260789117  0.7621959702972846  1.0000
  C   C60       1.0  0.5982762986046098  0.6399783635878435  0.2234376059913359  1.0000
  N   N1        1.0  0.10399203706582942  0.006751850157577598  0.20996605765930101  1.0000
  N   N2        1.0  0.9420110959620589  0.0358749682491251  0.7897810014771168  1.0000
  N   N3        1.0  0.6043653290602579  0.4860321445132384  0.7139615190338874  1.0000
  N   N4        1.0  0.447783837321154  0.4792747607501865  0.2919609354066992  1.0000
  O   O1        1.0  0.09958659473581122  0.0211429910412733  0.4967265538092392  1.0000
  O   O2        1.0  0.8786230785550374  0.9146457578803506  0.5117330064588188  1.0000
  O   O3        1.0  0.8785225252038559  0.0406086920519897  0.5053009939623934  1.0000
  O   O4        1.0  0.08793350341809972  0.8966384378836519  0.5080481163087356  1.0000
  O   O5        1.0  0.5957594001063385  0.6012899357975385  0.008113521773694302  1.0000
  O   O6        1.0  0.3838261387383355  0.45979286834892014  0.0091757346572123  1.0000
  O   O7        1.0  0.3869686983596949  0.585745257795132  0.0138034892115897  1.0000
  O   O8        1.0  0.6056660230375996  0.47631909001383127  0.0010465718833572025  1.0000
  O   O9        1.0  0.9894319158325828  0.08589513166818818  0.40998106283794306  1.0000
  O   O10       1.0  0.9963619548999888  0.9774317364356905  0.5886051325138695  1.0000
  O   O11       1.0  0.011098597862577702  0.10154871610670568  0.5814951109638429  1.0000
  O   O12       1.0  0.9775398677159972  0.9609748243360342  0.4128430231571514  1.0000
  O   O13       1.0  0.483592129996417  0.5345322504215702  0.9161918933622529  1.0000
  O   O14       1.0  0.5131491019242205  0.3975096707177101  0.0871877392705542  1.0000
  O   O15       1.0  0.5052532441889142  0.5221239990618614  0.0912910985421291  1.0000
  O   O16       1.0  0.4940382726443816  0.4096341074647255  0.9155680638906887  1.0000
  O   O17       1.0  0.9070854907333228  0.9114514455267794  0.9861781655553089  1.0000
  O   O18       1.0  0.025923345065784503  0.12755868164557427  0.0023217509700757  1.0000
  O   O19       1.0  0.0329213386845524  0.9136798231025408  0.9872667733247126  1.0000
  O   O20       1.0  0.9003358854177607  0.12202678449178712  0.9975320650855367  1.0000
  O   O21       1.0  0.403844990322611  0.379591760944926  0.4981727783744034  1.0000
  O   O22       1.0  0.5292431775887607  0.5916473554644527  0.4961275737226813  1.0000
  O   O23       1.0  0.5295908834481439  0.3765123793764643  0.5012183741019243  1.0000
  O   O24       1.0  0.40348080929047114  0.5896628052350863  0.4919050954165201  1.0000
  O   O25       1.0  0.9628815722827327  0.007313234001045998  0.0861611305164942  1.0000
  O   O26       1.0  0.08829949125614432  0.0362895297972017  0.9091731525867672  1.0000
  O   O27       1.0  0.46358396190738216  0.48969115976942834  0.5902686663813768  1.0000
  O   O28       1.0  0.59125107679899  0.4846647678161418  0.4139290919172751  1.0000
  O   O29       1.0  0.08818080197251281  0.012981865231615998  0.0852770528478146  1.0000
  O   O30       1.0  0.9634518775743646  0.027227227252325292  0.9085211888353372  1.0000
  O   O31       1.0  0.5889890852428509  0.4869199658636417  0.5896564548199947  1.0000
  O   O32       1.0  0.4660012027091938  0.481877042486225  0.41171934902766344  1.0000
  O   O33       1.0  0.48009262238970524  0.8802544753145937  0.4216405940769334  1.0000
  O   O34       1.0  0.48048623053670536  0.090758379706763  0.533467250842982  1.0000
  O   O35       1.0  0.48772637525535617  0.8742451560710977  0.5261483221049374  1.0000
  O   O36       1.0  0.4752596870952815  0.09148960875379687  0.42872083986374315  1.0000
  O   O37       1.0  0.9795726128027411  0.41167627462616707  0.9294564710960247  1.0000
  O   O38       1.0  0.9951010976243638  0.6294653887460198  0.025226967544426798  1.0000
  O   O39       1.0  0.9855710867400092  0.4120548119260902  0.034156045243236094  1.0000
  O   O40       1.0  0.9870584396748614  0.6226224131763799  0.9208446615147708  1.0000
  O   O41       1.0  0.3772478912165695  0.9780651715939184  0.47694199813959404  1.0000
  O   O42       1.0  0.593419676380492  0.9819214068179747  0.5786012762983006  1.0000
  O   O43       1.0  0.884313376336671  0.5245278585393648  0.9779504030312155  1.0000
  O   O44       1.0  0.0998919566179595  0.5208536984525762  0.0787541484107237  1.0000
  O   O45       1.0  0.38339341243121083  0.9718683988095052  0.5813251537635153  1.0000
  O   O46       1.0  0.5909346644106962  0.9868469658367044  0.4740643612179626  1.0000
  O   O47       1.0  0.8906618513633761  0.5304807802584148  0.082247496604289  1.0000
  O   O48       1.0  0.09750794353233522  0.5154605402167504  0.9742733397276807  1.0000
  O   O49       1.0  0.1386673496317314  0.9503974080781246  0.22423127005450993  1.0000
  O   O50       1.0  0.1246817480333604  0.07112476503683499  0.2174871245390904  1.0000
  O   O51       1.0  0.9263746796906676  0.9701532007853971  0.7820480297259779  1.0000
  O   O52       1.0  0.9012062586886743  0.0891076467795173  0.7798546944238325  1.0000
  O   O53       1.0  0.6228787963947795  0.4208384128925288  0.7203497309370732  1.0000
  O   O54       1.0  0.6410094560473072  0.5408547656767909  0.7289630806590992  1.0000
  O   O55       1.0  0.4246346530054126  0.41532512483648537  0.2883093978380771  1.0000
  O   O56       1.0  0.41390066138358617  0.5359230929913039  0.2772685692650185  1.0000
  O   O57       1.0  0.9393371429493201  0.9034994994072676  0.2993485096605326  1.0000
  O   O58       1.0  0.0789044306672295  0.15967678951317774  0.6909683568220046  1.0000
  O   O59       1.0  0.43788254462359794  0.5886596392382869  0.8037028660435369  1.0000
  O   O60       1.0  0.5951389161066842  0.5731325764348724  0.188025978507234  1.0000
