data_image0
_chemical_formula_structural       Cu2P4H72C32O8
_chemical_formula_sum              "Cu2 P4 H72 C32 O8"
_cell_length_a       9.677827171961253
_cell_length_b       9.715836045034601
_cell_length_c       12.245
_cell_angle_alpha    93.82718503703117
_cell_angle_beta     106.01632980925162
_cell_angle_gamma    101.12650233381079

_space_group_name_H-M_alt    "P 1"
_space_group_IT_number       1

loop_
  _space_group_symop_operation_xyz
  'x, y, z'

loop_
  _atom_site_type_symbol
  _atom_site_label
  _atom_site_symmetry_multiplicity
  _atom_site_fract_x
  _atom_site_fract_y
  _atom_site_fract_z
  _atom_site_occupancy
  Cu  Cu1       1.0  0.7406493919996251  0.9726208869584029  0.9885878956081557  1.0000
  Cu  Cu2       1.0  0.25934816102708413  0.0273770224595324  0.011415380037661304  1.0000
  P   P1        1.0  0.4758066643635104  0.0906972929714414  0.8569234105027165  1.0000
  P   P2        1.0  0.524167134958681  0.9093048466813513  0.14308797585508873  1.0000
  P   P3        1.0  0.9623831616106172  0.0474008391725036  0.8401810060572148  1.0000
  P   P4        1.0  0.03763100255897458  0.9525991853628567  0.15982028731873751  1.0000
  H   H1        1.0  0.33600886024510146  0.24153900763314337  0.7533881377301342  1.0000
  H   H2        1.0  0.6639966004815534  0.7584652471370745  0.2466147483945207  1.0000
  H   H3        1.0  0.48180115278498187  0.2193112385577649  0.6966542010505493  1.0000
  H   H4        1.0  0.5181978578295627  0.7806930162124601  0.3033480951818106  1.0000
  H   H5        1.0  0.6656418324608069  0.3710413025402133  0.8717855431688266  1.0000
  H   H6        1.0  0.3343564493598167  0.6289597795538668  0.12821887608998145  1.0000
  H   H7        1.0  0.5199592283348693  0.3980333736274204  0.9246144223438507  1.0000
  H   H8        1.0  0.48003988557314153  0.60196665090794  0.07538767237636532  1.0000
  H   H9        1.0  0.5617767924727843  0.48457128817210565  0.6970417426016837  1.0000
  H   H10       1.0  0.4382261719917225  0.5154361392742572  0.3029656671591924  1.0000
  H   H11       1.0  0.41794727959544525  0.5131581578017901  0.751559670485854  1.0000
  H   H12       1.0  0.5820573490438221  0.4868471545271476  0.24844635683726327  1.0000
  H   H13       1.0  0.6038924365558956  0.6663138109322801  0.9256068088197298  1.0000
  H   H14       1.0  0.396108584458176  0.3336851560443677  0.07439809574641033  1.0000
  H   H15       1.0  0.7487333393231097  0.6397384179788475  0.8693212280346146  1.0000
  H   H16       1.0  0.2512667099657406  0.3602563187629357  0.13069059053277243  1.0000
  H   H17       1.0  0.6188398161847601  0.7333080404206811  0.7975903924633345  1.0000
  H   H18       1.0  0.3811704304792372  0.2666983294669691  0.20241854929068384  1.0000
  H   H19       1.0  0.372704265121321  0.8462045483821967  0.8190593593363786  1.0000
  H   H20       1.0  0.6272915204371684  0.1537997063880283  0.18093896698045603  1.0000
  H   H21       1.0  0.2482018211503245  0.9427406230200716  0.742884190587823  1.0000
  H   H22       1.0  0.7517962177389989  0.0572594015152887  0.2571176697070285  1.0000
  H   H23       1.0  0.413589600697712  0.9910953801536522  0.6094052553169577  1.0000
  H   H24       1.0  0.5864153741663287  0.0089067594991334  0.39059741283895033  1.0000
  H   H25       1.0  0.5242352753359256  0.8835437739385981  0.6845053494520102  1.0000
  H   H26       1.0  0.4757606135160302  0.1164562505967623  0.3154960419921197  1.0000
  H   H27       1.0  0.301278598613024  0.6784143977512187  0.6260568844078165  1.0000
  H   H28       1.0  0.6987142048207176  0.3215909145777189  0.373939214297586  1.0000
  H   H29       1.0  0.1960474871439217  0.7891704068732395  0.549590204744483  1.0000
  H   H30       1.0  0.8039514201771567  0.2108380781318502  0.45040085976196315  1.0000
  H   H31       1.0  0.4676941871819622  0.7076802200760426  0.4999470948702367  1.0000
  H   H32       1.0  0.5323115164759926  0.292325092252895  0.5000591668782448  1.0000
  H   H33       1.0  0.3687851556422502  0.8257598233005865  0.425103179733668  1.0000
  H   H34       1.0  0.6312303628217037  0.1742507768219284  0.5748973357409711  1.0000
  H   H35       1.0  0.2814655268215063  0.6453815512829806  0.41492113109487155  1.0000
  H   H36       1.0  0.7185457948611784  0.3546248186046768  0.5850766118464535  1.0000
  H   H37       1.0  0.7698676479360387  0.0236967181307506  0.6634818288685339  1.0000
  H   H38       1.0  0.2301351768906343  0.9763054215220421  0.3365122038380406  1.0000
  H   H39       1.0  0.9468641183501489  0.0784750869002551  0.6441395642739496  1.0000
  H   H40       1.0  0.05314945666336972  0.9215270527525378  0.3558674292644285  1.0000
  H   H41       1.0  0.992823207299665  0.8323230326869151  0.680480592150083  1.0000
  H   H42       1.0  0.007185581776504098  0.1676769918484524  0.31951871243920493  1.0000
  H   H43       1.0  0.8105389496038812  0.7800447327200573  0.685398336016867  1.0000
  H   H44       1.0  0.18946768943492032  0.21995529181530318  0.31459968306184294  1.0000
  H   H45       1.0  0.716874750150197  0.82972672604118  0.4820340946748588  1.0000
  H   H46       1.0  0.283128214314317  0.1702807014051899  0.5179675984669887  1.0000
  H   H47       1.0  0.8991922379006071  0.8854209406580226  0.47785493576266463  1.0000
  H   H48       1.0  0.1008104836325998  0.11458542922963491  0.5221450150750827  1.0000
  H   H49       1.0  0.7598449792546235  0.5856865920466632  0.5160494936102111  1.0000
  H   H50       1.0  0.2401578455720497  0.4143155476061295  0.4839396391371977  1.0000
  H   H51       1.0  0.9443285588719731  0.6411745827140436  0.513099424831836  1.0000
  H   H52       1.0  0.05567582683598721  0.3588296720561743  0.48689097696954786  1.0000
  H   H53       1.0  0.7959139293460566  0.6325882635056033  0.38748421140540773  1.0000
  H   H54       1.0  0.20408917475629812  0.3674244517343439  0.6125096256343455  1.0000
  H   H55       1.0  0.0027840964465398114  0.24584855939745154  0.9746719821512715  1.0000
  H   H56       1.0  0.9972123815614893  0.7541493500204766  0.025329425749468695  1.0000
  H   H57       1.0  0.8457718573276765  0.2395074373413095  0.8570208763232117  1.0000
  H   H58       1.0  0.15421900265562272  0.760489414517906  0.14297598382690782  1.0000
  H   H59       1.0  0.1702791737278773  0.3222370829526824  0.8547934567208915  1.0000
  H   H60       1.0  0.82971702500447  0.6777502508780984  0.14520814684667024  1.0000
  H   H61       1.0  0.01689110234192981  0.3164850211008883  0.7348563028315029  1.0000
  H   H62       1.0  0.9831056855464908  0.6835001976124602  0.2651396005736403  1.0000
  H   H63       1.0  0.09498840456241452  0.5102255474846302  0.9608897065336494  1.0000
  H   H64       1.0  0.9050014836956634  0.4897670741397278  0.03910426769937906  1.0000
  H   H65       1.0  0.9399229056546902  0.5030087668123286  0.8426334850398903  1.0000
  H   H66       1.0  0.06007246099027701  0.4969796245771647  0.1573581931683492  1.0000
  H   H67       1.0  0.1102646539775449  0.5814827961538711  0.7224219017620115  1.0000
  H   H68       1.0  0.8897295343552756  0.4185098254704869  0.2775738268323239  1.0000
  H   H69       1.0  0.2643365522038508  0.5926453283924573  0.8447979851721785  1.0000
  H   H70       1.0  0.7356545507107555  0.4073525810254708  0.15519735064258808  1.0000
  H   H71       1.0  0.1413385439222736  0.7066067979801431  0.8439668466770199  1.0000
  H   H72       1.0  0.8586497834545099  0.2933837085267825  0.15602585850202644  1.0000
  C   C1        1.0  0.4538601324314655  0.2393075587441444  0.7766051203129722  1.0000
  C   C2        1.0  0.5461449457260343  0.7606903506737908  0.2233973463307919  1.0000
  C   C3        1.0  0.5493170085827188  0.379164411031411  0.8449439572749784  1.0000
  C   C4        1.0  0.4506794694253102  0.6208334983865242  0.1550615339250641  1.0000
  C   C5        1.0  0.534250811593175  0.5048394009482848  0.777443009488387  1.0000
  C   C6        1.0  0.4657504523522036  0.4951606235870756  0.2225603707424071  1.0000
  C   C7        1.0  0.6313503506709424  0.6431099151628032  0.8459449762933319  1.0000
  C   C8        1.0  0.368653306243111  0.3568911669312769  0.15406388173173013  1.0000
  C   C9        1.0  0.3633536216526494  0.9318181566098288  0.7647345446947328  1.0000
  C   C10       1.0  0.6366459781179685  0.0681839830429638  0.23526368469492814  1.0000
  C   C11       1.0  0.41065815549110607  0.8995382919467829  0.6580142442490031  1.0000
  C   C12       1.0  0.5893371442047693  0.1004638477060098  0.34198549741879714  1.0000
  C   C13       1.0  0.3084306207383989  0.7700793569470434  0.5779591108555027  1.0000
  C   C14       1.0  0.6915697078261331  0.22992595538189423  0.4220378121675665  1.0000
  C   C15       1.0  0.3590803735226871  0.7350466669484206  0.47386088092646633  1.0000
  C   C16       1.0  0.6409282089665567  0.2649618180566691  0.5261380100272534  1.0000
  C   C17       1.0  0.8823099974659032  0.0047230572219377  0.6856501835034835  1.0000
  C   C18       1.0  0.11769161270424185  0.9952737946372779  0.314349020900238  1.0000
  C   C19       1.0  0.8811855360368455  0.8513506290901985  0.6465705998755525  1.0000
  C   C20       1.0  0.11881895296458822  0.1486493954451618  0.3534277670122989  1.0000
  C   C21       1.0  0.8293068220315051  0.8126598434958083  0.5165323075054858  1.0000
  C   C22       1.0  0.1706938527578004  0.1873422961569844  0.4834637063299497  1.0000
  C   C23       1.0  0.8323987407503921  0.6598944295312137  0.4809534444460228  1.0000
  C   C24       1.0  0.1676048128701879  0.3401108827977239  0.5190400985538163  1.0000
  C   C25       1.0  0.9614252038276021  0.2299587397020701  0.8803314294049972  1.0000
  C   C26       1.0  0.03856551651785622  0.7700328243635752  0.11966920354790031  1.0000
  C   C27       1.0  0.056153358180509406  0.3369286886237859  0.8292415033509288  1.0000
  C   C28       1.0  0.9438410367392435  0.66305547253085  0.17075382221911178  1.0000
  C   C29       1.0  0.05479012306968661  0.4898019735773218  0.8667816505251197  1.0000
  C   C30       1.0  0.9452023647439987  0.5101832451360266  0.13320923187927045  1.0000
  C   C31       1.0  0.14761122449110792  0.5985475635818034  0.8167012188935274  1.0000
  C   C32       1.0  0.8523784208356632  0.4014440004838349  0.18329509633470317  1.0000
  O   O1        1.0  0.6391884112452146  0.0841097597346661  0.8813712243118418  1.0000
  O   O2        1.0  0.3608172560683656  0.9158860345658368  0.11863125878853249  1.0000
  O   O3        1.0  0.5731595153060667  0.8835490617321752  0.03598121805694627  1.0000
  O   O4        1.0  0.4268404306893245  0.1164499052444725  0.9640095688661959  1.0000
  O   O5        1.0  0.8700306040883846  0.9459291625462996  0.896984532233269  1.0000
  O   O6        1.0  0.1299612945692274  0.054058171284481205  0.10302756687090661  1.0000
  O   O7        1.0  0.8768596897271763  0.9677867860713719  0.13681874821647  1.0000
  O   O8        1.0  0.12312721640616078  0.0322068931116988  0.8631860649629035  1.0000
