data_image0
_chemical_formula_structural       Mn2H16C24N4O8
_chemical_formula_sum              "Mn2 H16 C24 N4 O8"
_cell_length_a       8.505612521326261
_cell_length_b       8.528173976253266
_cell_length_c       8.849254919094943
_cell_angle_alpha    69.3335033452249
_cell_angle_beta     69.29372760335978
_cell_angle_gamma    64.56905851531344

_space_group_name_H-M_alt    "P 1"
_space_group_IT_number       1

loop_
  _space_group_symop_operation_xyz
  'x, y, z'

loop_
  _atom_site_type_symbol
  _atom_site_label
  _atom_site_symmetry_multiplicity
  _atom_site_fract_x
  _atom_site_fract_y
  _atom_site_fract_z
  _atom_site_occupancy
  Mn  Mn1       1.0  0.8586183657451939  0.1421309362659784  0.7503175560922768  1.0000
  Mn  Mn2       1.0  0.11286188276958604  0.8867493136009587  0.24970910596697843  1.0000
  H   H1        1.0  0.4220190547612504  0.002566945659076201  0.11503425480086085  1.0000
  H   H2        1.0  0.9350166051269115  0.4876059061329983  0.5976741776164047  1.0000
  H   H3        1.0  0.5095798366607625  0.07052101814144152  0.9040225107229246  1.0000
  H   H4        1.0  0.001043337650799062  0.5760988282850618  0.3869880930008094  1.0000
  H   H5        1.0  0.713174970602587  0.292212800680801  0.08647872155911776  1.0000
  H   H6        1.0  0.29614423250254895  0.6133712613946755  0.5237214677722334  1.0000
  H   H7        1.0  0.38564865102468815  0.7047814553965924  0.9734224259765083  1.0000
  H   H8        1.0  0.707201845826731  0.2889850381801011  0.41477778015962474  1.0000
  H   H9        1.0  0.7546755772585172  0.7486535293159235  0.462310449479098  1.0000
  H   H10       1.0  0.829895674196436  0.7761919747574455  0.9562635387043129  1.0000
  H   H11       1.0  0.22933382289897258  0.16020960298735076  0.5434139313042222  1.0000
  H   H12       1.0  0.24740872096967342  0.24875414947845803  0.036058443728933284  1.0000
  H   H13       1.0  0.5544032805872943  0.5647179597060302  0.6267013331606393  1.0000
  H   H14       1.0  0.7111847553254479  0.5423300752220969  0.1747199704816039  1.0000
  H   H15       1.0  0.461409404956065  0.28265460096674394  0.3254565022362498  1.0000
  H   H16       1.0  0.43142328530959867  0.4487811460318484  0.8699169732864576  1.0000
  C   C1        1.0  0.7392211225793731  0.9738849488387091  0.15170738615280027  1.0000
  C   C2        1.0  0.9608615651578775  0.7894487900786302  0.6257365208002452  1.0000
  C   C3        1.0  0.2114973645867906  0.037133227974628404  0.8747032342786483  1.0000
  C   C4        1.0  0.0260420736986333  0.2617404112308748  0.348776374044732  1.0000
  C   C5        1.0  0.6099056057903807  0.8805419193841502  0.2698627021017828  1.0000
  C   C6        1.0  0.8884419288805465  0.6537110050448193  0.7584995907415645  1.0000
  C   C7        1.0  0.3472027428696051  0.10991263944342933  0.742207679519133  1.0000
  C   C8        1.0  0.11929211624835295  0.3909814174424398  0.23016517040500867  1.0000
  C   C9        1.0  0.6423048214052614  0.7621745141182928  0.42111032940555765  1.0000
  C   C10       1.0  0.825942297364101  0.6660091955650033  0.9246160408742907  1.0000
  C   C11       1.0  0.33716312909705703  0.168505433941263  0.5755923881180606  1.0000
  C   C12       1.0  0.23548569936374258  0.35997669544251215  0.07756776297701862  1.0000
  C   C13       1.0  0.45685292883946715  0.9061655926222018  0.22657822198890906  1.0000
  C   C14       1.0  0.8841573673503123  0.5089017416120712  0.7225608540021609  1.0000
  C   C15       1.0  0.4898089633662295  0.11860078685595002  0.7787255248928204  1.0000
  C   C16       1.0  0.0955180505158424  0.5425808864948466  0.27405927933807556  1.0000
  C   C17       1.0  0.5289589723063983  0.6645661215304558  0.5123420928752224  1.0000
  C   C18       1.0  0.760980246231142  0.536408398149355  0.04448608573711971  1.0000
  C   C19       1.0  0.46594055884441593  0.2352881319628182  0.4559952707832835  1.0000
  C   C20       1.0  0.3330570226142555  0.4731576738496486  0.9854691737096458  1.0000
  C   C21       1.0  0.760339590824458  0.397565561270426  0.9967430532691351  1.0000
  C   C22       1.0  0.383852896707019  0.6909329370846536  0.4563786733542726  1.0000
  C   C23       1.0  0.3082430702859397  0.6171040157423276  0.04176833706333136  1.0000
  C   C24       1.0  0.6023736479286442  0.24051043599642705  0.5043217885808458  1.0000
  N   N1        1.0  0.8204529410779601  0.38387052792050724  0.8372047212666015  1.0000
  N   N2        1.0  0.3423076983517035  0.8157400094924655  0.3163471478327224  1.0000
  N   N3        1.0  0.1851288293283347  0.6575439794638882  0.1831635323465761  1.0000
  N   N4        1.0  0.6145537297873177  0.18312715409457073  0.6642199964501144  1.0000
  O   O1        1.0  0.7081587869545983  0.06077603230668422  0.008074129040615231  1.0000
  O   O2        1.0  0.006159491137175643  0.7712840848437067  0.4759529388393561  1.0000
  O   O3        1.0  0.22846368392882963  0.9934000078094628  0.024731395582023256  1.0000
  O   O4        1.0  0.9413461211304505  0.2916122778821588  0.49329922877448945  1.0000
  O   O5        1.0  0.8667412128265182  0.9596143882532574  0.2032778155606536  1.0000
  O   O6        1.0  0.9785999529618228  0.9062702729362471  0.667312552441217  1.0000
  O   O7        1.0  0.09554485786019032  0.017630629487676703  0.8328458771894346  1.0000
  O   O8        1.0  0.038046585218467  0.136029967329506  0.2965989897378235  1.0000
