data_image0
_chemical_formula_structural       CuH12C16N10O2
_chemical_formula_sum              "Cu1 H12 C16 N10 O2"
_cell_length_a       6.2028864145214815
_cell_length_b       7.421985884544419
_cell_length_c       11.413134521072708
_cell_angle_alpha    99.42720787810586
_cell_angle_beta     91.28724909534074
_cell_angle_gamma    102.31956129155056

_space_group_name_H-M_alt    "P 1"
_space_group_IT_number       1

loop_
  _space_group_symop_operation_xyz
  'x, y, z'

loop_
  _atom_site_type_symbol
  _atom_site_label
  _atom_site_symmetry_multiplicity
  _atom_site_fract_x
  _atom_site_fract_y
  _atom_site_fract_z
  _atom_site_occupancy
  Cu  Cu1       1.0  0.9999677386406773  0.9999962806354149  0.9999930181851511  1.0000
  H   H1        1.0  0.044772950277078415  0.7091401478754022  0.40299670302547236  1.0000
  H   H2        1.0  0.9552236740535346  0.2908436667834522  0.5969820561365253  1.0000
  H   H3        1.0  0.25705848699497125  0.653669179560403  0.3164658805540057  1.0000
  H   H4        1.0  0.7429769728662733  0.3463203045651966  0.6835357165645348  1.0000
  H   H5        1.0  0.7876436677438289  0.8110544352280369  0.7622814920487002  1.0000
  H   H6        1.0  0.21235542674627078  0.1889069813510886  0.23770449600013419  1.0000
  H   H7        1.0  0.8999543552932037  0.7168958814713874  0.5601559240150706  1.0000
  H   H8        1.0  0.10008581661764991  0.28308105226422253  0.4398338357601546  1.0000
  H   H9        1.0  0.5776212811282234  0.9524449411193318  0.6930110090776296  1.0000
  H   H10       1.0  0.4224015649024507  0.04755001076131289  0.3070278787020513  1.0000
  H   H11       1.0  0.43154482716087716  0.0340125470167649  0.895076317144138  1.0000
  H   H12       1.0  0.5684275360480271  0.965962708217944  0.10493811579148368  1.0000
  C   C1        1.0  0.2056312480555675  0.7044981186843912  0.09174239657452428  1.0000
  C   C2        1.0  0.7943690913263094  0.2954996725699174  0.9082484235881196  1.0000
  C   C3        1.0  0.30593352335736756  0.4205664415371543  0.0831791752587066  1.0000
  C   C4        1.0  0.6940677944920707  0.5794663079598337  0.9168233308591311  1.0000
  C   C5        1.0  0.9611426281842482  0.8397131565916284  0.7427578755205387  1.0000
  C   C6        1.0  0.0388598579911346  0.1602930353118381  0.2572338734622335  1.0000
  C   C7        1.0  0.028477517289978573  0.7862540930784762  0.6293244373327411  1.0000
  C   C8        1.0  0.971541503445067  0.21376613350038554  0.37067247417230226  1.0000
  C   C9        1.0  0.2546853634044624  0.8237493004568535  0.6102145212560899  1.0000
  C   C10       1.0  0.7453371554516081  0.1762905040523961  0.3897924284504413  1.0000
  C   C11       1.0  0.4016731534726503  0.917235929446221  0.7062725437838893  1.0000
  C   C12       1.0  0.5983340298607515  0.08279401826627719  0.2937393446969523  1.0000
  C   C13       1.0  0.32263066419358216  0.9643250344006304  0.8175120488344874  1.0000
  C   C14       1.0  0.6773494563731359  0.0356810436196966  0.1824970289689887  1.0000
  C   C15       1.0  0.3505077892428687  0.762781943866365  0.4936315174249302  1.0000
  C   C16       1.0  0.649480438697921  0.23723118005920446  0.5063678765113906  1.0000
  N   N1        1.0  0.16602826528158235  0.839782092217405  0.0627717071601239  1.0000
  N   N2        1.0  0.8339640351725348  0.1602030783237396  0.9372194306211341  1.0000
  N   N3        1.0  0.2543644294722398  0.5717050774504316  0.1396651550269539  1.0000
  N   N4        1.0  0.7455960886350751  0.4282813643233467  0.8603363751088509  1.0000
  N   N5        1.0  0.3472344511852654  0.2754617496098319  0.04382580226853609  1.0000
  N   N6        1.0  0.6527737368464341  0.7245402057117831  0.956190067643945  1.0000
  N   N7        1.0  0.10523174748482235  0.925420144500386  0.8347922130989006  1.0000
  N   N8        1.0  0.8947554413247331  0.07458877297899139  0.1652093446691367  1.0000
  N   N9        1.0  0.20564971873542964  0.7023545217845567  0.39793064415260193  1.0000
  N   N10       1.0  0.7943561588731  0.29765867791985556  0.6020610165371352  1.0000
  O   O1        1.0  0.5512323478116413  0.7661353684286213  0.4891133596288952  1.0000
  O   O2        1.0  0.448749165709188  0.23385816508711343  0.5108768446449332  1.0000
