data_image0
_chemical_formula_structural       Cu2H24C40N4O16
_chemical_formula_sum              "Cu2 H24 C40 N4 O16"
_cell_length_a       8.809493517422107
_cell_length_b       8.809497113611371
_cell_length_c       12.929867342236596
_cell_angle_alpha    102.66594643173983
_cell_angle_beta     102.66594844655931
_cell_angle_gamma    110.65917273893794

_space_group_name_H-M_alt    "P 1"
_space_group_IT_number       1

loop_
  _space_group_symop_operation_xyz
  'x, y, z'

loop_
  _atom_site_type_symbol
  _atom_site_label
  _atom_site_symmetry_multiplicity
  _atom_site_fract_x
  _atom_site_fract_y
  _atom_site_fract_z
  _atom_site_occupancy
  Cu  Cu1       1.0  0.3082925620279298  0.6917082557674376  0.7500002070938765  1.0000
  Cu  Cu2       1.0  0.6917082041656357  0.30829256883097145  0.250000083751182  1.0000
  H   H1        1.0  0.9648015203703438  0.5516511718762583  0.218872985188959  1.0000
  H   H2        1.0  0.4483525612566623  0.0351975297110414  0.2811258225277627  1.0000
  H   H3        1.0  0.03519986915074466  0.44834836677038226  0.7811287520269802  1.0000
  H   H4        1.0  0.5516524708574622  0.9647995179519526  0.718872222201526  1.0000
  H   H5        1.0  0.17433580964999612  0.5100444193097148  0.4969642496306933  1.0000
  H   H6        1.0  0.48995469444022893  0.8256625439368007  0.0030360857982642013  1.0000
  H   H7        1.0  0.8256602521113336  0.4899563308922978  0.5030391837517385  1.0000
  H   H8        1.0  0.5100448250982909  0.17434085256514462  0.9969613123050325  1.0000
  H   H9        1.0  0.21733621032427658  0.28019499763367145  0.3723588402973875  1.0000
  H   H10       1.0  0.7198050410776063  0.7826625486186387  0.1276401450986953  1.0000
  H   H11       1.0  0.782656388695692  0.7198057623535802  0.6276394290484932  1.0000
  H   H12       1.0  0.2801937089139273  0.2173446486655592  0.872360806264837  1.0000
  H   H13       1.0  0.4258210947321999  0.16937083078747858  0.458284782087489  1.0000
  H   H14       1.0  0.8306308362534053  0.5741802682290424  0.041714839276401953  1.0000
  H   H15       1.0  0.5741721477946201  0.830628663427241  0.5417126194940209  1.0000
  H   H16       1.0  0.16937076660484957  0.42582821867451054  0.9582882869959592  1.0000
  H   H17       1.0  0.5773160071627927  0.2908985661403917  0.6625430347654487  1.0000
  H   H18       1.0  0.7091030940712885  0.4226835985977217  0.8374565379445971  1.0000
  H   H19       1.0  0.42268032013169693  0.7090971274949993  0.3374534848684476  1.0000
  H   H20       1.0  0.2909022168821594  0.577319801774735  0.16254715275103143  1.0000
  H   H21       1.0  0.8570638783262794  0.8839760239351048  0.294830413185977  1.0000
  H   H22       1.0  0.11602678888563392  0.14293552454564212  0.20516986321702296  1.0000
  H   H23       1.0  0.14293634349480303  0.11602350452044867  0.7051711454412771  1.0000
  H   H24       1.0  0.8839757952412272  0.8570640511977315  0.7948289670739188  1.0000
  C   C1        1.0  0.26125384320028644  0.4573253970096758  0.5304510995113532  1.0000
  C   C2        1.0  0.5426730875139683  0.7387450513197821  0.9695478925304785  1.0000
  C   C3        1.0  0.7387440499472221  0.5426741177901349  0.4695493305601276  1.0000
  C   C4        1.0  0.4573270620785124  0.26125706595681214  0.030450180565281863  1.0000
  C   C5        1.0  0.28733955119662374  0.32951608649438663  0.4616590952474057  1.0000
  C   C6        1.0  0.6704815917792075  0.7126589366362169  0.03834103762557819  1.0000
  C   C7        1.0  0.712654937985242  0.6704808358167966  0.5383411990758589  1.0000
  C   C8        1.0  0.3295184317731382  0.28734571565009753  0.9616597209660328  1.0000
  C   C9        1.0  0.40196757974374725  0.2689957615864956  0.5091732806948173  1.0000
  C   C10       1.0  0.7310055031312713  0.5980326200586459  0.9908263248718685  1.0000
  C   C11       1.0  0.5980291658830836  0.7310037632014713  0.49082465665272684  1.0000
  C   C12       1.0  0.26899631144860336  0.40197075646698  0.009176058679301444  1.0000
  C   C13       1.0  0.48757204053688236  0.3371251066353195  0.6244808451313946  1.0000
  C   C14       1.0  0.662874171218654  0.5124275324171633  0.8755191372558147  1.0000
  C   C15       1.0  0.5124288180646062  0.6628731493212994  0.37552061710990614  1.0000
  C   C16       1.0  0.337123742108183  0.48757200256189037  0.12447897868041478  1.0000
  C   C17       1.0  0.4558114356056819  0.4640150537231023  0.6889512145953064  1.0000
  C   C18       1.0  0.5359847164698407  0.5441873684862769  0.8110479552948109  1.0000
  C   C19       1.0  0.5441877445555292  0.5359819295316511  0.3110474799474261  1.0000
  C   C20       1.0  0.4640195528237356  0.4558134866853721  0.18895287131628896  1.0000
  C   C21       1.0  0.1133461952168986  0.9373283468329561  0.5509160823960856  1.0000
  C   C22       1.0  0.06267230733404004  0.8866527435463567  0.949084029994161  1.0000
  C   C23       1.0  0.886652858904178  0.06267117143151782  0.44908529764249044  1.0000
  C   C24       1.0  0.9373308009859826  0.11334810816062908  0.05091584664983628  1.0000
  C   C25       1.0  0.03093737408002533  0.8716746686035677  0.43421000537639304  1.0000
  C   C26       1.0  0.12832846879975776  0.9690631263379001  0.06578895441244008  1.0000
  C   C27       1.0  0.9690622176870889  0.12832613907734466  0.5657908782584047  1.0000
  C   C28       1.0  0.8716751771662958  0.030939014785516902  0.9342104258277718  1.0000
  C   C29       1.0  0.9191902126239883  0.9354007810489475  0.38521517161881047  1.0000
  C   C30       1.0  0.06459883554595082  0.08080710330067832  0.11478585040784142  1.0000
  C   C31       1.0  0.08080830385105031  0.06459744779908762  0.614786704823544  1.0000
  C   C32       1.0  0.9354037351280268  0.9191924589898689  0.8852145226399415  1.0000
  C   C33       1.0  0.23393789454885172  0.8769017131128078  0.6136422087702229  1.0000
  C   C34       1.0  0.12309761132787132  0.7660632843794843  0.8863572649921708  1.0000
  C   C35       1.0  0.7660624331330441  0.12309526015378218  0.3863589784964391  1.0000
  C   C36       1.0  0.8769055104450346  0.23393758078032786  0.11364106889498522  1.0000
  C   C37       1.0  0.06257110995947092  0.7348386680817072  0.3638101104612446  1.0000
  C   C38       1.0  0.26516156942568614  0.9374262479419926  0.13618870358841653  1.0000
  C   C39       1.0  0.9374274199684508  0.26515957421916164  0.6361902232242829  1.0000
  C   C40       1.0  0.7348393160815688  0.06257203492027939  0.8638096731392084  1.0000
  N   N1        1.0  0.34391500246726986  0.5223526683248563  0.6409997392076578  1.0000
  N   N2        1.0  0.4776458627592818  0.6560824057299753  0.8589998076429526  1.0000
  N   N3        1.0  0.6560835274606518  0.47764557397601226  0.3590005944778696  1.0000
  N   N4        1.0  0.5223560778607278  0.34391843578592324  0.1409998904123668  1.0000
  O   O1        1.0  0.1603596000177845  0.7396942891819123  0.6362186998629512  1.0000
  O   O2        1.0  0.2603056324530542  0.8396394855627847  0.8637805459149209  1.0000
  O   O3        1.0  0.8396383989905373  0.26030267042892763  0.36378135884793755  1.0000
  O   O4        1.0  0.7396986637462889  0.16036139651452427  0.13621719518249623  1.0000
  O   O5        1.0  0.3920651853804387  0.9714294878571367  0.6464160590058512  1.0000
  O   O6        1.0  0.028569584260537774  0.6079346943780877  0.8535831783821738  1.0000
  O   O7        1.0  0.6079356866739333  0.028568781552309006  0.3535838604786151  1.0000
  O   O8        1.0  0.9714318187134341  0.3920648577213796  0.14641701607693136  1.0000
  O   O9        1.0  0.18180256911693954  0.6979696431948524  0.39926510464712817  1.0000
  O   O10       1.0  0.30202851688800786  0.818194676371199  0.10073337458424446  1.0000
  O   O11       1.0  0.8182044606354425  0.30203507023794873  0.6007367254765584  1.0000
  O   O12       1.0  0.6979644988487549  0.18179585613377466  0.899264180697678  1.0000
  O   O13       1.0  0.9485360898896645  0.656396730249071  0.26045754034389296  1.0000
  O   O14       1.0  0.3436070260158531  0.0514642980247828  0.23954147589005007  1.0000
  O   O15       1.0  0.05146359428538006  0.34360150879005147  0.7395445146871469  1.0000
  O   O16       1.0  0.656397906963896  0.9485353115535842  0.7604561688214133  1.0000
