data_image0
_chemical_formula_structural       Al2H14C26Cl2O10
_chemical_formula_sum              "Al2 H14 C26 Cl2 O10"
_cell_length_a       6.635203477988957
_cell_length_b       11.163380208676104
_cell_length_c       17.64712412444819
_cell_angle_alpha    84.98989358321055
_cell_angle_beta     78.96283451126969
_cell_angle_gamma    71.83468071897678

_space_group_name_H-M_alt    "P 1"
_space_group_IT_number       1

loop_
  _space_group_symop_operation_xyz
  'x, y, z'

loop_
  _atom_site_type_symbol
  _atom_site_label
  _atom_site_symmetry_multiplicity
  _atom_site_fract_x
  _atom_site_fract_y
  _atom_site_fract_z
  _atom_site_occupancy
  Al  Al1       1.0  0.5048946931685449  0.5050338565464685  0.50594304293449  1.0000
  Al  Al2       1.0  0.003495030123374925  0.5039423328850744  0.5095779187018152  1.0000
  H   H1        1.0  0.3026181801737737  0.3666788865334495  0.5640012875340759  1.0000
  H   H2        1.0  0.7912701616861995  0.5449679339010912  0.41021532129498445  1.0000
  H   H3        1.0  0.6619046542697405  0.5182101658931089  0.2731036242244969  1.0000
  H   H4        1.0  0.7188400616714792  0.5346722491032523  0.12947314572802776  1.0000
  H   H5        1.0  0.2035628208221781  0.3734487305839167  0.13330269267826372  1.0000
  H   H6        1.0  0.7593028679008642  0.6224436221302766  0.8879722342558197  1.0000
  H   H7        1.0  0.3331231449474856  0.48409456574700727  0.7301518875401244  1.0000
  H   H8        1.0  0.26207704290975903  0.45518465350524906  0.8736885273708523  1.0000
  H   H9        1.0  0.7552902752946483  0.8811636873301156  0.5683240830205777  1.0000
  H   H10       1.0  0.6409528589441821  0.11375191950273936  0.5793749211989621  1.0000
  H   H11       1.0  0.453882246906325  0.11673340197975077  0.4695029807522886  1.0000
  H   H12       1.0  0.34754184544913613  0.135936821352054  0.3823864160335547  1.0000
  H   H13       1.0  0.46255760775095955  0.9009302651743382  0.3702405435804366  1.0000
  H   H14       1.0  0.5685154643553648  0.8799358630044266  0.45750061307305867  1.0000
  C   C1        1.0  0.8724355245447915  0.27606548857109187  0.5216743677098988  1.0000
  C   C2        1.0  0.6491152642768585  0.5502122001325487  0.6423538594355237  1.0000
  C   C3        1.0  0.13603813470392376  0.7285886278634094  0.498639819569668  1.0000
  C   C4        1.0  0.35159726191955093  0.4596859404076028  0.3702710943985608  1.0000
  C   C5        1.0  0.39618910153973996  0.44407627643427366  0.28471259685547073  1.0000
  C   C6        1.0  0.5613401101013623  0.48806475127645405  0.24151415910424126  1.0000
  C   C7        1.0  0.5933924278327894  0.49707928883815805  0.1615835691707446  1.0000
  C   C8        1.0  0.4586113113394109  0.46056137698379  0.12131907768947772  1.0000
  C   C9        1.0  0.3026453363092332  0.4074376211302492  0.16351754704231072  1.0000
  C   C10       1.0  0.2719692137350835  0.399625874757703  0.24388232042088023  1.0000
  C   C11       1.0  0.47627495234808515  0.4808317498922108  0.040403284290619006  1.0000
  C   C12       1.0  0.4897333906867304  0.5059026881336807  0.9712133617865675  1.0000
  C   C13       1.0  0.513371792907414  0.5310032739987632  0.8905452954009689  1.0000
  C   C14       1.0  0.6680007024609083  0.5895442949080945  0.8537092450898598  1.0000
  C   C15       1.0  0.7063016952590504  0.6045394218463896  0.7736055480030828  1.0000
  C   C16       1.0  0.5923839147334679  0.560720078112311  0.7281378041049322  1.0000
  C   C17       1.0  0.4270361096663181  0.5119551366944605  0.7658608621535522  1.0000
  C   C18       1.0  0.387126406287294  0.4963700879173698  0.8455849831778508  1.0000
  C   C19       1.0  0.9418302212345895  0.13655893784220297  0.518335625733009  1.0000
  C   C20       1.0  0.0725541099526696  0.8674553533702533  0.5049522437078053  1.0000
  C   C21       1.0  0.14730223213666704  0.069338897801849  0.4819448572702356  1.0000
  C   C22       1.0  0.8654981268493889  0.9344701589662067  0.5431968085689576  1.0000
  C   C23       1.0  0.21095035280327346  0.9384569979887799  0.4752533819299103  1.0000
  C   C24       1.0  0.8019254163456255  0.06496702574895609  0.549482037512078  1.0000
  C   C25       1.0  0.35961889763869703  0.08137098118764638  0.43710459825997117  1.0000
  C   C26       1.0  0.4317592784884214  0.933332773256701  0.4295772287897393  1.0000
  Cl  Cl1       1.0  0.07999124558544686  0.3302094754440502  0.29038967001616817  1.0000
  Cl  Cl2       1.0  0.8912117446835595  0.682056837660589  0.7329514883305706  1.0000
  O   O1        1.0  0.6705071525217152  0.3341910388000784  0.5324765744358757  1.0000
  O   O2        1.0  0.8477178480804638  0.5208678331499995  0.6128300209112112  1.0000
  O   O3        1.0  0.9864686570901857  0.676794895754817  0.5108342679940349  1.0000
  O   O4        1.0  0.5118819089118817  0.4514559420755475  0.40261416523363647  1.0000
  O   O5        1.0  0.33672543123367427  0.6706259106307683  0.4812190601797966  1.0000
  O   O6        1.0  0.1553735124589224  0.4878735531997975  0.4030404145746189  1.0000
  O   O7        1.0  0.02232547074838463  0.32778555771213996  0.5124917092478612  1.0000
  O   O8        1.0  0.495449048379328  0.5624512618995537  0.6060736075611857  1.0000
  O   O9        1.0  0.26313113722431336  0.4540442331837653  0.5458259595306744  1.0000
  O   O10       1.0  0.7545147506117689  0.5469377148365311  0.46610670939500654  1.0000
