data_image0
_chemical_formula_structural       Cd4H48C52Br8N8O24
_chemical_formula_sum              "Cd4 H48 C52 Br8 N8 O24"
_cell_length_a       8.04618710031685
_cell_length_b       13.830107148896408
_cell_length_c       15.355544632003877
_cell_angle_alpha    90.00003065101771
_cell_angle_beta     89.99991904414908
_cell_angle_gamma    105.06354000106707

_space_group_name_H-M_alt    "P 1"
_space_group_IT_number       1

loop_
  _space_group_symop_operation_xyz
  'x, y, z'

loop_
  _atom_site_type_symbol
  _atom_site_label
  _atom_site_symmetry_multiplicity
  _atom_site_fract_x
  _atom_site_fract_y
  _atom_site_fract_z
  _atom_site_occupancy
  Cd  Cd1       1.0  0.39174803469068564  0.6389677499201554  0.05904578250945749  1.0000
  Cd  Cd2       1.0  0.6082528288020583  0.8610311873549532  0.5590423491034215  1.0000
  Cd  Cd3       1.0  0.6082555153959248  0.3610319987469097  0.9409563924690048  1.0000
  Cd  Cd4       1.0  0.3917466577629157  0.138967817899271  0.4409559184929747  1.0000
  H   H1        1.0  0.2715464332201735  0.43170371617338793  0.0310838900708461  1.0000
  H   H2        1.0  0.7284518394605471  0.06829602717344589  0.5310854354325585  1.0000
  H   H3        1.0  0.7284546328300721  0.5682960360768731  0.968914377525145  1.0000
  H   H4        1.0  0.2715501311433356  0.9317029744973978  0.4689147858546149  1.0000
  H   H5        1.0  0.4067406863523004  0.4423499418096383  0.1031724611051956  1.0000
  H   H6        1.0  0.5932579656503236  0.057648316322172384  0.6031727990881917  1.0000
  H   H7        1.0  0.5932616217186748  0.5576498086488328  0.8968258064903409  1.0000
  H   H8        1.0  0.40674175053919  0.942348440776996  0.3968274221992728  1.0000
  H   H9        1.0  0.5532649429026151  0.8596284025581085  0.0696074334238688  1.0000
  H   H10       1.0  0.4467325044779855  0.6403712909539793  0.5696072689357266  1.0000
  H   H11       1.0  0.44673397657071945  0.14037210206353729  0.930390834173103  1.0000
  H   H12       1.0  0.5532654026000189  0.3596269673043436  0.4303923011222111  1.0000
  H   H13       1.0  0.4730085293878902  0.605746882651829  0.7431686622548525  1.0000
  H   H14       1.0  0.5269937714552171  0.8942535865550524  0.24317211916724085  1.0000
  H   H15       1.0  0.526989715158905  0.39425212439399354  0.256827651650319  1.0000
  H   H16       1.0  0.473004580924794  0.10574841743414959  0.7568274508914354  1.0000
  H   H17       1.0  0.0988712283229134  0.5622854543937095  0.5505028791293256  1.0000
  H   H18       1.0  0.901126606284315  0.9377149841555763  0.0505028235457701  1.0000
  H   H19       1.0  0.901124761808667  0.4377113080805017  0.4494940860067018  1.0000
  H   H20       1.0  0.09887321774605341  0.06228476988640351  0.9494947928201183  1.0000
  H   H21       1.0  0.9458924087697512  0.5754158916956343  0.8201986356811799  1.0000
  H   H22       1.0  0.054109016507396704  0.9245830950578194  0.32019789932646586  1.0000
  H   H23       1.0  0.05411316610837248  0.42458834969803405  0.1798002831448002  1.0000
  H   H24       1.0  0.9458869736216401  0.07541366741658351  0.679801019501248  1.0000
  H   H25       1.0  0.8186405171592811  0.687301287288797  0.3128262795897072  1.0000
  H   H26       1.0  0.18135855111831498  0.8127006985438285  0.8128244417459525  1.0000
  H   H27       1.0  0.1813568228236947  0.3126984703372032  0.6871758953910643  1.0000
  H   H28       1.0  0.8186368719173913  0.18729756329812372  0.18717577954346606  1.0000
  H   H29       1.0  0.34575672156344683  0.6805446835153574  0.26101064217041875  1.0000
  H   H30       1.0  0.6542453031846804  0.8194580373491006  0.7610097594240627  1.0000
  H   H31       1.0  0.6542482862188095  0.31946105724605184  0.7389915328089528  1.0000
  H   H32       1.0  0.34575226643132595  0.18053947212121096  0.23898785694212418  1.0000
  H   H33       1.0  0.9989173758879274  0.6393273781378851  0.0562302877606697  1.0000
  H   H34       1.0  0.0010845073323294816  0.8606738049479217  0.5562266531605289  1.0000
  H   H35       1.0  0.0010847025517151045  0.36067462047614646  0.943771235988315  1.0000
  H   H36       1.0  0.9989193802239172  0.13932669250657884  0.44377161443460267  1.0000
  H   H37       1.0  0.4743670562642636  0.8297473405583277  0.9010230975295386  1.0000
  H   H38       1.0  0.525632916465142  0.6702516638545503  0.40102319067771924  1.0000
  H   H39       1.0  0.5256324303007105  0.17025166469589692  0.09897517006686478  1.0000
  H   H40       1.0  0.4743687166758903  0.3297465890283462  0.598975728148268  1.0000
  H   H41       1.0  0.45648949077094153  0.9379346803900288  0.9600363416882658  1.0000
  H   H42       1.0  0.543508748760523  0.5620635886122969  0.4600357178895678  1.0000
  H   H43       1.0  0.5435080788408229  0.062062829080595294  0.03996453083074409  1.0000
  H   H44       1.0  0.4564935593079013  0.437936161846366  0.5399645033976624  1.0000
  H   H45       1.0  0.2734698244278562  0.8338254998782019  0.9499787794611549  1.0000
  H   H46       1.0  0.7265284413018094  0.6661727671495398  0.4499774192076201  1.0000
  H   H47       1.0  0.7265284201129988  0.16617350716806098  0.0500220930579687  1.0000
  H   H48       1.0  0.2734707077960791  0.3338254893170571  0.5500228020804201  1.0000
  C   C1        1.0  0.2703394149920443  0.6062026164352473  0.8863860608034526  1.0000
  C   C2        1.0  0.7296654421553797  0.8938016230352942  0.38638676229520996  1.0000
  C   C3        1.0  0.729664242937112  0.3938001291745011  0.1136122067923111  1.0000
  C   C4        1.0  0.2703387828645631  0.10619962320709668  0.613612156530543  1.0000
  C   C5        1.0  0.21563266115067847  0.5901638822876051  0.7928876025804357  1.0000
  C   C6        1.0  0.7843675792904818  0.9098433429373357  0.2928876200567814  1.0000
  C   C7        1.0  0.7843698625935218  0.40984186205711376  0.20711196747760138  1.0000
  C   C8        1.0  0.2156295310696521  0.09015866284359221  0.7071112987717924  1.0000
  C   C9        1.0  0.3371320733649982  0.5934547408712304  0.7269882350428318  1.0000
  C   C10       1.0  0.6628699182088696  0.9065532184124974  0.22699029470537369  1.0000
  C   C11       1.0  0.662868425593615  0.4065465107464518  0.27301003255374207  1.0000
  C   C12       1.0  0.33713035112096185  0.09345028136055332  0.7730092753529547  1.0000
  C   C13       1.0  0.1288788562239134  0.5694187236110508  0.619856319938215  1.0000
  C   C14       1.0  0.8711250078381952  0.9305817195949898  0.11985758560498279  1.0000
  C   C15       1.0  0.8711249234965666  0.43057877690026203  0.38014064519509816  1.0000
  C   C16       1.0  0.12887605821119763  0.069418032655328  0.8801413332215802  1.0000
  C   C17       1.0  0.0010219471089527301  0.5664329997192324  0.6819818087851245  1.0000
  C   C18       1.0  0.9989814176677286  0.9335667068955971  0.18198363232549747  1.0000
  C   C19       1.0  0.9989836277683252  0.43357124167449246  0.3180177612714132  1.0000
  C   C20       1.0  0.0010160441091215991  0.0664278056317755  0.8180152865011293  1.0000
  C   C21       1.0  0.04277863533752673  0.5767389833174474  0.7700164459826411  1.0000
  C   C22       1.0  0.9572216786300062  0.92325999537595  0.27001569056648117  1.0000
  C   C23       1.0  0.9572271691668419  0.4232630099210367  0.22998312407327146  1.0000
  C   C24       1.0  0.0427736365690876  0.07673526952287087  0.7299838794916838  1.0000
  C   C25       1.0  0.7091139122671565  0.6555851344976844  0.14619204056623397  1.0000
  C   C26       1.0  0.29088367309714863  0.8444153228372996  0.6461907881195827  1.0000
  C   C27       1.0  0.290887828707092  0.3444161153285918  0.8538101344132654  1.0000
  C   C28       1.0  0.7091172851080005  0.15558143247046982  0.35381334055080776  1.0000
  C   C29       1.0  0.8865452628788616  0.6627087747683543  0.1807632022623409  1.0000
  C   C30       1.0  0.11345448685023031  0.8372939339254373  0.6807627291554679  1.0000
  C   C31       1.0  0.11345557354090373  0.3372932256374028  0.8192376702565481  1.0000
  C   C32       1.0  0.8865430827615343  0.1627035755451871  0.31923814336354167  1.0000
  C   C33       1.0  0.9211357862143288  0.6794538731742674  0.2694145590225077  1.0000
  C   C34       1.0  0.07885899414942091  0.8205466119353132  0.7694114985234464  1.0000
  C   C35       1.0  0.07886155376865393  0.32054588445173243  0.7305876159582567  1.0000
  C   C36       1.0  0.9211351868647101  0.1794516516984855  0.23058937399699886  1.0000
  C   C37       1.0  0.08703181620026611  0.6861695995805945  0.2990803757990292  1.0000
  C   C38       1.0  0.9129676253444073  0.8138331323413721  0.799079949714418  1.0000
  C   C39       1.0  0.9129689123820414  0.31382940388209585  0.7009204967191707  1.0000
  C   C40       1.0  0.08702948501233013  0.18616887343980443  0.2009215740364141  1.0000
  C   C41       1.0  0.2142511796586462  0.6759765023280053  0.24056530624321937  1.0000
  C   C42       1.0  0.7857484143052816  0.8240262181059705  0.7405623745110218  1.0000
  C   C43       1.0  0.7857508987792982  0.3240254962861541  0.7594375199668943  1.0000
  C   C44       1.0  0.2142507347951437  0.1759720383604346  0.2594358930853247  1.0000
  C   C45       1.0  0.01956080633360095  0.6530073663073636  0.1257032795674533  1.0000
  C   C46       1.0  0.9804406663012485  0.846996078572701  0.6256995633808555  1.0000
  C   C47       1.0  0.9804438639849521  0.34699762566615516  0.8742982441813041  1.0000
  C   C48       1.0  0.01955882026372539  0.15300292668152338  0.3742987042155406  1.0000
  C   C49       1.0  0.41404309497956143  0.8558222138782694  0.9575935716689443  1.0000
  C   C50       1.0  0.5859548134501011  0.6441753058566774  0.4575929562134178  1.0000
  C   C51       1.0  0.5859548120984428  0.14417604438005327  0.0424059983889933  1.0000
  C   C52       1.0  0.41404433564862597  0.3558229506098557  0.542406613844058  1.0000
  Br  Br1       1.0  0.7723701933396471  0.5542287072084022  0.6442557332465951  1.0000
  Br  Br2       1.0  0.22763236515060478  0.945771742579339  0.1442548785004334  1.0000
  Br  Br3       1.0  0.22763265390844373  0.44578602796615024  0.35575034911914827  1.0000
  Br  Br4       1.0  0.7723690662617386  0.054212274376503396  0.855748598936131  1.0000
  Br  Br5       1.0  0.14430337172972682  0.7111727044633085  0.4178140196217369  1.0000
  Br  Br6       1.0  0.8556863775211241  0.788836807776704  0.9178123214234191  1.0000
  Br  Br7       1.0  0.8556964522955539  0.2888270495790478  0.5821875041275462  1.0000
  Br  Br8       1.0  0.1442943429877772  0.21117571149423497  0.08218855110547447  1.0000
  N   N1        1.0  0.2946842971926599  0.5835236426431222  0.6423399971281964  1.0000
  N   N2        1.0  0.7053173617293211  0.91647755734828  0.1423407276691009  1.0000
  N   N3        1.0  0.7053154189985521  0.41647311445592555  0.357658921698139  1.0000
  N   N4        1.0  0.2946829076013556  0.08352594242470701  0.8576581911586628  1.0000
  N   N5        1.0  0.17902275026845865  0.6592720360962189  0.15554781627971434  1.0000
  N   N6        1.0  0.8209772947710832  0.8407284194916967  0.6555442152947605  1.0000
  N   N7        1.0  0.8209834995336748  0.34073370287346444  0.8444550099297672  1.0000
  N   N8        1.0  0.17902208395643274  0.15926758881946063  0.3444540523009536  1.0000
  O   O1        1.0  0.4293073467608011  0.6154276326692096  0.9044342079699631  1.0000
  O   O2        1.0  0.5706899034132535  0.8845736241522886  0.4044356740944295  1.0000
  O   O3        1.0  0.5706925851061726  0.3845751183158939  0.0955640596271792  1.0000
  O   O4        1.0  0.4293076662002093  0.11542388531820788  0.5955638959634513  1.0000
  O   O5        1.0  0.15979128318699767  0.6126147998206977  0.9430106009328226  1.0000
  O   O6        1.0  0.8402051915847437  0.8873849669979349  0.4430060075023263  1.0000
  O   O7        1.0  0.8402084190478051  0.3873901993200376  0.0569915740483395  1.0000
  O   O8        1.0  0.15979113601053294  0.1126125442641523  0.5569916088643225  1.0000
  O   O9        1.0  0.6847744401909139  0.6400345774640857  0.0640581957853854  1.0000
  O   O10       1.0  0.31522020013769486  0.8599643697543441  0.5640582352936434  1.0000
  O   O11       1.0  0.31522312941915237  0.35996293200667406  0.9359439791947537  1.0000
  O   O12       1.0  0.6847821079273403  0.1400353807045747  0.435944590915838  1.0000
  O   O13       1.0  0.5930502242693976  0.6657921084761822  0.19783466984156203  1.0000
  O   O14       1.0  0.4069569331203057  0.8342105928181739  0.6978320239211584  1.0000
  O   O15       1.0  0.4069556880673346  0.33421288170575275  0.8021688075984272  1.0000
  O   O16       1.0  0.5930410957430896  0.1657824203421612  0.30217080228828047  1.0000
  O   O17       1.0  0.30527972919469454  0.4670223190377385  0.0868591790607738  1.0000
  O   O18       1.0  0.6947158063300523  0.0329744418992917  0.5868587786178096  1.0000
  O   O19       1.0  0.6947225788762738  0.5329774314207327  0.9131390885347628  1.0000
  O   O20       1.0  0.3052833427686821  0.9670238145672413  0.4131407914396661  1.0000
  O   O21       1.0  0.45559822543435047  0.8130175555135536  0.03678087926407159  1.0000
  O   O22       1.0  0.5444036006044612  0.6869806268111915  0.5367806649568221  1.0000
  O   O23       1.0  0.5444012611289324  0.1869814497407916  0.963218690793461  1.0000
  O   O24       1.0  0.45559712797869173  0.3130183766514421  0.4632195563308058  1.0000
