data_image0
_chemical_formula_structural       Al6H74C90O31
_chemical_formula_sum              "Al6 H74 C90 O31"
_cell_length_a       13.12678818463627
_cell_length_b       13.419391479523913
_cell_length_c       27.5306482596112
_cell_angle_alpha    90.41924484561657
_cell_angle_beta     89.27403266836407
_cell_angle_gamma    59.39321609355911

_space_group_name_H-M_alt    "P 1"
_space_group_IT_number       1

loop_
  _space_group_symop_operation_xyz
  'x, y, z'

loop_
  _atom_site_type_symbol
  _atom_site_label
  _atom_site_symmetry_multiplicity
  _atom_site_fract_x
  _atom_site_fract_y
  _atom_site_fract_z
  _atom_site_occupancy
  Al  Al1       1.0  0.8466214730790537  0.5673575468116001  0.4935442242505488  1.0000
  Al  Al2       1.0  0.5894239643536707  0.5947605102159271  0.4984839389458529  1.0000
  Al  Al3       1.0  0.6049298343368218  0.809675554603615  0.4991732788176506  1.0000
  Al  Al4       1.0  0.8276568001392876  0.08142948879217467  0.9842005972637226  1.0000
  Al  Al5       1.0  0.07495389797346518  0.0754274716184256  0.984058911952786  1.0000
  Al  Al6       1.0  0.08065967940670045  0.8489278160796161  0.9846926803715803  1.0000
  H   H1        1.0  0.5000336562523983  0.8093772300487244  0.1792250066374237  1.0000
  H   H2        1.0  0.1721678781327967  0.8311144777011776  0.2214630292375119  1.0000
  H   H3        1.0  0.7965975943119615  0.0031187954197947018  0.2105100966577709  1.0000
  H   H4        1.0  0.9601204278567079  0.38462833263561447  0.19725407667722547  1.0000
  H   H5        1.0  0.36449775670241286  0.6715833120383436  0.7768698125723147  1.0000
  H   H6        1.0  0.6796678932789676  0.9539245006133539  0.7812950044301985  1.0000
  H   H7        1.0  0.9954116478016457  0.3263311497203317  0.7689650291756391  1.0000
  H   H8        1.0  0.32347676832612376  0.6932518285678028  0.8657851673485482  1.0000
  H   H9        1.0  0.7120468524465834  0.9737732805066557  0.8690841824512461  1.0000
  H   H10       1.0  0.021225910433841512  0.27833731986494564  0.8568311144743247  1.0000
  H   H11       1.0  0.34774073091211466  0.9874254116069494  0.7101720962129078  1.0000
  H   H12       1.0  0.8689428491365445  0.6546267693876331  0.1862012319310011  1.0000
  H   H13       1.0  0.000858608707829904  0.6623268546833074  0.7061938299186536  1.0000
  H   H14       1.0  0.670362832877899  0.3440353294315912  0.7123890094036369  1.0000
  H   H15       1.0  0.21739568893713823  0.040689287545070785  0.7672806506803127  1.0000
  H   H16       1.0  0.05730906635609048  0.7504285910643275  0.7571016008463898  1.0000
  H   H17       1.0  0.7644539961712623  0.18690600535313  0.7576955489302932  1.0000
  H   H18       1.0  0.1881870754256809  0.05908763327229138  0.8565181315574861  1.0000
  H   H19       1.0  0.08759772018252221  0.7616171167594812  0.8453999166529157  1.0000
  H   H20       1.0  0.7838429610782782  0.1477215762572968  0.846307043005254  1.0000
  H   H21       1.0  0.2952397217929316  0.6962388556916324  0.7002603263512412  1.0000
  H   H22       1.0  0.6907772686508977  0.002787959090021291  0.7031147189853326  1.0000
  H   H23       1.0  0.6802204239980724  0.3077624677505995  0.1902279475950408  1.0000
  H   H24       1.0  0.029068101610683083  0.2624957195204942  0.6873466177238539  1.0000
  H   H25       1.0  0.5158865993229043  0.8407980079618581  0.2618997280362194  1.0000
  H   H26       1.0  0.8872774383279133  0.6401790216099172  0.2707555513292732  1.0000
  H   H27       1.0  0.6332497950378271  0.35764592379212695  0.2724529160439886  1.0000
  H   H28       1.0  0.3592870898845673  0.6701444456407017  0.613984031114363  1.0000
  H   H29       1.0  0.6566561592706747  0.9629816134293421  0.6187148399516715  1.0000
  H   H30       1.0  0.9727806659307633  0.34751518928495523  0.6053080974874588  1.0000
  H   H31       1.0  0.19581304117356502  0.9765673902531162  0.2928532627517342  1.0000
  H   H32       1.0  0.9430306790196282  0.8830903818910798  0.28796935875986657  1.0000
  H   H33       1.0  0.9600864853954574  0.2092364736312646  0.293087332214256  1.0000
  H   H34       1.0  0.5536154979181446  0.6948407435757031  0.2691282704954929  1.0000
  H   H35       1.0  0.3134555594052273  0.005120513664607499  0.2893879562653012  1.0000
  H   H36       1.0  0.009967611989985433  0.7309354958238286  0.2945511525144226  1.0000
  H   H37       1.0  0.8398457567212387  0.18673146542793967  0.2838723468609103  1.0000
  H   H38       1.0  0.17643706561133854  0.015019141022712297  0.2096949431639388  1.0000
  H   H39       1.0  0.007405600690866187  0.8377058472898113  0.2070804628136003  1.0000
  H   H40       1.0  0.002714035412580484  0.1874463252161149  0.21015783206476607  1.0000
  H   H41       1.0  0.38239957636945093  0.6555242556091444  0.2767942403288544  1.0000
  H   H42       1.0  0.6368830206843086  0.9441490611025999  0.267300425405665  1.0000
  H   H43       1.0  0.7827890597466975  0.5308143945194743  0.2706235541540636  1.0000
  H   H44       1.0  0.24294616105922276  0.764917363425475  0.2991878809947224  1.0000
  H   H45       1.0  0.7307176155331804  0.7243661274511481  0.2725908391407756  1.0000
  H   H46       1.0  0.715622576810496  0.010441543738892297  0.2877999672471674  1.0000
  H   H47       1.0  0.9266120967904996  0.4151521061226333  0.2813013741153796  1.0000
  H   H48       1.0  0.2914483525678194  0.6977924408588903  0.20036590987927377  1.0000
  H   H49       1.0  0.6825157802115596  0.9828650556719437  0.1887573137865672  1.0000
  H   H50       1.0  0.81490215354745  0.4983308914686405  0.18677815677459358  1.0000
  H   H51       1.0  0.39151466229133547  0.06115521508881019  0.6474930301028436  1.0000
  H   H52       1.0  0.5002009015363668  0.955288366925643  0.60656844440485  1.0000
  H   H53       1.0  0.3530765776899046  0.03874068141745819  0.5880809991583077  1.0000
  H   H54       1.0  0.07161708080210621  0.5428341328230173  0.642283026557486  1.0000
  H   H55       1.0  0.9580149840344772  0.5373297789471535  0.6094126609992188  1.0000
  H   H56       1.0  0.6133699996105191  0.4963075021631553  0.2627915899594626  1.0000
  H   H57       1.0  0.033827488748251235  0.5978565750644123  0.5819138435624963  1.0000
  H   H58       1.0  0.5287628301352783  0.4261100231930256  0.6584518037221159  1.0000
  H   H59       1.0  0.5367093412966071  0.5228127936597602  0.6164471817153582  1.0000
  H   H60       1.0  0.5734982896861638  0.3838894331106529  0.5965382618525082  1.0000
  H   H61       1.0  0.240218878983292  0.1725621581357188  0.23908452236052105  1.0000
  H   H62       1.0  0.18384552127605494  0.17010307293865168  0.1800691709246749  1.0000
  H   H63       1.0  0.3202408001674826  0.16900987304268963  0.1852300033187433  1.0000
  H   H64       1.0  0.1368723364114288  0.6963095295756361  0.1540483330542415  1.0000
  H   H65       1.0  0.05894593414177511  0.6232753774294935  0.1401705909977835  1.0000
  H   H66       1.0  0.19565480612092043  0.5487515027139267  0.1720374793379591  1.0000
  H   H67       1.0  0.4925768199457819  0.6832997777030131  0.19017116367216153  1.0000
  H   H68       1.0  0.03929982611670363  0.9694188199364574  0.18086903139141694  1.0000
  H   H69       1.0  0.0051614643978013  0.0890762219264971  0.1426533955840981  1.0000
  H   H70       1.0  0.9157418012419567  0.024145825683667996  0.1412174087221771  1.0000
  H   H71       1.0  0.7216217390918659  0.772581614393978  0.189856923450975  1.0000
  H   H72       1.0  0.6452863079571571  0.45116667251444637  0.1792695414362839  1.0000
  H   H73       1.0  0.03979627532739024  0.41775196861950536  0.5093410503975733  1.0000
  H   H74       1.0  0.6331395492400489  0.19627151011693666  0.0136216027090086  1.0000
  C   C1        1.0  0.7763450958735232  0.7665597786006514  0.42876758571801327  1.0000
  C   C2        1.0  0.29262199609276945  0.8552468323839618  0.1436691557624599  1.0000
  C   C3        1.0  0.869593632014144  0.8324579332715912  0.141153628943691  1.0000
  C   C4        1.0  0.8540920886024919  0.30716085438881174  0.137359883582775  1.0000
  C   C5        1.0  0.3970427693004197  0.8112513705456406  0.3390930737545546  1.0000
  C   C6        1.0  0.8027387834863189  0.8143076736930581  0.3382192883870019  1.0000
  C   C7        1.0  0.7720055258525774  0.38924075174874406  0.33470168876839773  1.0000
  C   C8        1.0  0.41916132894776587  0.8022566488608902  0.38214483943031047  1.0000
  C   C9        1.0  0.7929716337115166  0.7996561885334825  0.3811414902390027  1.0000
  C   C10       1.0  0.7600928444732702  0.4111474776908253  0.3780264701508997  1.0000
  C   C11       1.0  0.9015311660926528  0.2225744175016686  0.0481339782588464  1.0000
  C   C12       1.0  0.7447035263810233  0.45665463403889806  0.4267965385358892  1.0000
  C   C13       1.0  0.20806492483046676  0.8958167419363363  0.054567387070648  1.0000
  C   C14       1.0  0.9064158011712422  0.8846214580485633  0.05288925699289139  1.0000
  C   C15       1.0  0.39072269731099857  0.8123890518940227  0.6131607658012683  1.0000
  C   C16       1.0  0.8079928800074326  0.7910335444706573  0.6147566181114925  1.0000
  C   C17       1.0  0.7916423141609596  0.39125274632079515  0.6120710130070108  1.0000
  C   C18       1.0  0.3816203025379037  0.9075124026591653  0.6399257184908721  1.0000
  C   C19       1.0  0.9097303985009474  0.7055398142257304  0.6388657900869319  1.0000
  C   C20       1.0  0.7051387449513836  0.387007640928175  0.6418421467719141  1.0000
  C   C21       1.0  0.34802004404701115  0.9183231400150902  0.6889642569385472  1.0000
  C   C22       1.0  0.9258377830050365  0.7298484557008249  0.6867081913913751  1.0000
  C   C23       1.0  0.464697563318296  0.7803557409216141  0.4304807976745337  1.0000
  C   C24       1.0  0.7383300701993888  0.3415433413938942  0.6883272489625014  1.0000
  C   C25       1.0  0.3205115156626802  0.8422157883522771  0.7124200530781906  1.0000
  C   C26       1.0  0.847747338115575  0.8337610565576199  0.7113238156116565  1.0000
  C   C27       1.0  0.8524843319544573  0.29888354836336356  0.7062653860426378  1.0000
  C   C28       1.0  0.7738758392348044  0.7690010949899316  0.5663198601306192  1.0000
  C   C29       1.0  0.7645287095029474  0.4514638915676556  0.5646276134015338  1.0000
  C   C30       1.0  0.44869479203246243  0.7775355887970505  0.5643787871229478  1.0000
  C   C31       1.0  0.3214297817449038  0.7539994700919621  0.684137014933917  1.0000
  C   C32       1.0  0.7508617668447217  0.919229572827376  0.6858098435197489  1.0000
  C   C33       1.0  0.9383269946560303  0.298766416851187  0.6752403344627851  1.0000
  C   C34       1.0  0.26911741718866716  0.7764994800843183  0.22122482218939143  1.0000
  C   C35       1.0  0.35634494829481883  0.7398156401594986  0.6356038095954374  1.0000
  C   C36       1.0  0.7320524781516654  0.8973589100293321  0.6384704397842851  1.0000
  C   C37       1.0  0.9074289390775829  0.34499613704954873  0.6292142069377887  1.0000
  C   C38       1.0  0.32358762854270406  0.7572543204592461  0.7939672800782346  1.0000
  C   C39       1.0  0.7694240460515116  0.9134619125955865  0.7950307375628041  1.0000
  C   C40       1.0  0.9511642246428094  0.28447919896205315  0.7855366099792248  1.0000
  C   C41       1.0  0.3027991123599136  0.7684564570130518  0.8439365800776811  1.0000
  C   C42       1.0  0.7865800603289941  0.9232138321164025  0.8441611975266453  1.0000
  C   C43       1.0  0.964670701471469  0.2591662691158305  0.8348060621755522  1.0000
  C   C44       1.0  0.22768538252172718  0.9744564818430704  0.8387156582448654  1.0000
  C   C45       1.0  0.759147535438053  0.9463267427739481  0.2126795322714798  1.0000
  C   C46       1.0  0.9986131854950311  0.8027758834629992  0.8309730687529253  1.0000
  C   C47       1.0  0.8299502032569065  0.18645753277614568  0.8287902958397735  1.0000
  C   C48       1.0  0.24523306503598968  0.9632751637926235  0.7886887179509755  1.0000
  C   C49       1.0  0.9810852710404842  0.7960231253214829  0.7817251076079897  1.0000
  C   C50       1.0  0.8185980379887139  0.20968574158372633  0.7795140010268327  1.0000
  C   C51       1.0  0.2951098865344975  0.8543731685774032  0.7652692264145671  1.0000
  C   C52       1.0  0.8662304965163656  0.8491123876664092  0.7629306324706348  1.0000
  C   C53       1.0  0.8764312276393081  0.26184235461293787  0.7571959078290859  1.0000
  C   C54       1.0  0.2557578757230629  0.8772424408780566  0.8668537415873344  1.0000
  C   C55       1.0  0.9014113309893541  0.8661141683896149  0.8626054006640302  1.0000
  C   C56       1.0  0.8666196062282269  0.4177483080676581  0.2068764691146683  1.0000
  C   C57       1.0  0.9024229205049608  0.2118634882174817  0.8569777337496518  1.0000
  C   C58       1.0  0.9141268605984648  0.18248209307113678  0.9093405829168404  1.0000
  C   C59       1.0  0.22110931055483019  0.8951715684265551  0.9190290958981107  1.0000
  C   C60       1.0  0.9209380713786004  0.8805797376082295  0.9144667517067333  1.0000
  C   C61       1.0  0.48446131150787863  0.7798086081470713  0.2564098069288505  1.0000
  C   C62       1.0  0.8110900311453335  0.7230950738637035  0.2600737299127118  1.0000
  C   C63       1.0  0.6746659906938461  0.4032809567078317  0.2562700231830348  1.0000
  C   C64       1.0  0.2818073865026349  0.9492034283760372  0.27512727396927517  1.0000
  C   C65       1.0  0.9415435079420508  0.8060657832096896  0.2752128356418737  1.0000
  C   C66       1.0  0.879446634664063  0.23781538875989838  0.2720996555805257  1.0000
  C   C67       1.0  0.3150034795875596  0.7475824811295693  0.2735093323448865  1.0000
  C   C68       1.0  0.2704603540259425  0.9625328018733583  0.2194028308511236  1.0000
  C   C69       1.0  0.9704507558720432  0.7850762547596303  0.2204500603894104  1.0000
  C   C70       1.0  0.9091416949272217  0.21467900352362076  0.21731500140752047  1.0000
  C   C71       1.0  0.261520078536499  0.8704322628625433  0.10159230353722389  1.0000
  C   C72       1.0  0.8834584639405989  0.8490595917862861  0.09886537668387518  1.0000
  C   C73       1.0  0.8720183937337042  0.2826985136664674  0.0942733461321126  1.0000
  C   C74       1.0  0.3701604829495577  0.8215415057365972  0.2878041797903776  1.0000
  C   C75       1.0  0.8182505675477212  0.8220065360206874  0.28648781102997123  1.0000
  C   C76       1.0  0.7913832710206348  0.36761016429684185  0.2827451801776064  1.0000
  C   C77       1.0  0.4584150874153464  0.7732754172087583  0.20224373236046486  1.0000
  C   C78       1.0  0.7232709955301428  0.9387667213685659  0.2654144792841535  1.0000
  C   C79       1.0  0.8107123483347961  0.7380445871412176  0.20454250928253256  1.0000
  C   C80       1.0  0.699824717136657  0.37480518813920577  0.2013926953890248  1.0000
  C   C81       1.0  0.3227507103089949  0.8414612781957372  0.19477338118706908  1.0000
  C   C82       1.0  0.8527118759789616  0.8239160236250171  0.192720830548069  1.0000
  C   C83       1.0  0.8317326304588518  0.32966147593908346  0.18909544815418403  1.0000
  C   C84       1.0  0.4081281244317977  0.9955648186663452  0.61955293731544  1.0000
  C   C85       1.0  0.9986024211670069  0.5898083980427771  0.6170664446032248  1.0000
  C   C86       1.0  0.5790640575302531  0.43240193728996684  0.6276647261922718  1.0000
  C   C87       1.0  0.26502517430274947  0.13800045196838787  0.20151402185160086  1.0000
  C   C88       1.0  0.11424156498932793  0.6325389699770197  0.16743910486859898  1.0000
  C   C89       1.0  0.8444955312142922  0.43899522875943836  0.2622090272871418  1.0000
  C   C90       1.0  0.9667586129881655  0.04827143023496211  0.1647711945221744  1.0000
  O   O1        1.0  0.8263697946331375  0.469492070866515  0.4434777452670176  1.0000
  O   O2        1.0  0.8399016159309695  0.47474239351464576  0.547229016257276  1.0000
  O   O3        1.0  0.47553393233568636  0.6768275926731346  0.547828028699861  1.0000
  O   O4        1.0  0.6687266997359199  0.8450258181004103  0.5515787337505955  1.0000
  O   O5        1.0  0.8440867692619844  0.6778573635253907  0.5428358766281747  1.0000
  O   O6        1.0  0.6652323675761806  0.4798909436601448  0.5445981161196158  1.0000
  O   O7        1.0  0.4765115483710719  0.8440903037601611  0.5423076233921478  1.0000
  O   O8        1.0  0.6786873793920447  0.6575069898506386  0.4969946174819313  1.0000
  O   O9        1.0  0.9966397834207825  0.0012470197951372959  0.9849479199860481  1.0000
  O   O10       1.0  0.8295530767961238  0.19568662960790556  0.0314267842314848  1.0000
  O   O11       1.0  0.18326507364725578  0.9918681622234544  0.03550354574115739  1.0000
  O   O12       1.0  0.4742454832640205  0.6920656655971342  0.45196799152681416  1.0000
  O   O13       1.0  0.9979056505278693  0.8088245509617876  0.027992162446359693  1.0000
  O   O14       1.0  0.8389378249304116  0.9643489512913989  0.9384206569885832  1.0000
  O   O15       1.0  0.002143183110838685  0.17703295570606772  0.9322925456825429  1.0000
  O   O16       1.0  0.20798701814230483  0.8183066209340522  0.9407226013096376  1.0000
  O   O17       1.0  0.8388889068036959  0.16092106166104259  0.9276858468898793  1.0000
  O   O18       1.0  0.19801272887096383  0.9915302066480718  0.9388922483791688  1.0000
  O   O19       1.0  0.023998984748324407  0.8082930940411899  0.931370172520964  1.0000
  O   O20       1.0  0.33293631921193156  0.0149297667936423  0.1999566221725644  1.0000
  O   O21       1.0  0.05724081015227962  0.6654917482669943  0.2142292358088653  1.0000
  O   O22       1.0  0.8886616501996512  0.12444048538066  0.2023333841259429  1.0000
  O   O23       1.0  0.691068392159558  0.8446437112625276  0.4555182206906068  1.0000
  O   O24       1.0  0.8378639797775308  0.9889842155100294  0.041710242232206  1.0000
  O   O25       1.0  0.0034624663153337886  0.19500562393042026  0.029124928818667694  1.0000
  O   O26       1.0  0.18453404976590077  0.8215038913345936  0.036540300752996295  1.0000
  O   O27       1.0  0.8440573521180637  0.6620799682514474  0.439934010609889  1.0000
  O   O28       1.0  0.6453442830716296  0.48528967010569357  0.448613821299034  1.0000
  O   O29       1.0  0.49749735125874384  0.8485900311312661  0.44745277504024716  1.0000
  O   O30       1.0  0.0018344004379073212  0.4870214159103056  0.4901853657578812  1.0000
  O   O31       1.0  0.6725982967385917  0.15483485114300777  0.9839621484009625  1.0000
