data_image0
_chemical_formula_structural       Zn2H38C52N4O12
_chemical_formula_sum              "Zn2 H38 C52 N4 O12"
_cell_length_a       9.789094212803501
_cell_length_b       9.670635231535543
_cell_length_c       12.407571344600868
_cell_angle_alpha    74.60160453584335
_cell_angle_beta     77.55661339445528
_cell_angle_gamma    78.22378743915871

_space_group_name_H-M_alt    "P 1"
_space_group_IT_number       1

loop_
  _space_group_symop_operation_xyz
  'x, y, z'

loop_
  _atom_site_type_symbol
  _atom_site_label
  _atom_site_symmetry_multiplicity
  _atom_site_fract_x
  _atom_site_fract_y
  _atom_site_fract_z
  _atom_site_occupancy
  Zn  Zn1       1.0  0.40333208439252405  0.6227086880452716  0.9468840140012561  1.0000
  Zn  Zn2       1.0  0.5966665617618077  0.37729247651156317  0.05311661773323816  1.0000
  H   H1        1.0  0.04373065386737815  0.6270071262480456  0.23127832874837412  1.0000
  H   H2        1.0  0.9562693613895309  0.37299182623205945  0.7687201269081501  1.0000
  H   H3        1.0  0.8757858316884467  0.3146557349076886  0.523175176634908  1.0000
  H   H4        1.0  0.12421732319654676  0.6853432038195137  0.47682355591803116  1.0000
  H   H5        1.0  0.29995337851486437  0.2149233580906369  0.34378800060039083  1.0000
  H   H6        1.0  0.7000536439352203  0.7850777518167715  0.6562120293731085  1.0000
  H   H7        1.0  0.9306293776090587  0.05220939275342568  0.6149974624091001  1.0000
  H   H8        1.0  0.06937152765563334  0.94779063731859  0.38500061155291837  1.0000
  H   H9        1.0  0.9926672953892535  0.1883876288167983  0.6567885936411955  1.0000
  H   H10       1.0  0.00733150809082163  0.8116124499688269  0.3432122440563249  1.0000
  H   H11       1.0  0.27184746710394597  0.11133288618771792  0.6820517211994925  1.0000
  H   H12       1.0  0.7281519704241648  0.8886628279430724  0.3179483321684345  1.0000
  H   H13       1.0  0.4146247657232252  0.9205075651172409  0.8120007937178356  1.0000
  H   H14       1.0  0.5853757262559756  0.0794881084792394  0.18799667164607572  1.0000
  H   H15       1.0  0.130671444551382  0.6341520244487382  0.8697373667192779  1.0000
  H   H16       1.0  0.8693257386113943  0.36584480259687524  0.13026363623943385  1.0000
  H   H17       1.0  0.9750979799274904  0.8124901808063426  0.7430631829449796  1.0000
  H   H18       1.0  0.02489993354480902  0.18750882038737865  0.25693803644703916  1.0000
  H   H19       1.0  0.7143678394579497  0.5368978813921642  0.5441205642917808  1.0000
  H   H20       1.0  0.28563934980794403  0.4631020996040221  0.45587645528136994  1.0000
  H   H21       1.0  0.6871107133183258  0.43081150938682805  0.454149514395347  1.0000
  H   H22       1.0  0.3128931766212163  0.5691895819184791  0.5458478264092151  1.0000
  H   H23       1.0  0.58186123092802  0.5794993722842745  0.26885043715587653  1.0000
  H   H24       1.0  0.41813846255983844  0.42050178409325406  0.7311500188471387  1.0000
  H   H25       1.0  0.37639290424993294  0.764069291386228  0.2136841132786672  1.0000
  H   H26       1.0  0.6236030647635077  0.23592867274989965  0.7863200758118796  1.0000
  H   H27       1.0  0.33288916814790076  0.928759501484038  0.4972181394703982  1.0000
  H   H28       1.0  0.6671113048511687  0.07123625839246729  0.5027857586202771  1.0000
  H   H29       1.0  0.536644647932313  0.747852089542519  0.5664778276649117  1.0000
  H   H30       1.0  0.4633567174470556  0.2521447371408882  0.4335248846404198  1.0000
  H   H31       1.0  0.12514495616854765  0.39165156341377383  0.8960149357384283  1.0000
  H   H32       1.0  0.874853535032543  0.6083506761292694  0.10398468594219425  1.0000
  H   H33       1.0  0.9380010436053186  0.2469456130693857  0.917102246245378  1.0000
  H   H34       1.0  0.062000331264108914  0.7530511704740093  0.08289724969656487  1.0000
  H   H35       1.0  0.20364120287221976  0.865440448186362  0.07615902854280426  1.0000
  H   H36       1.0  0.7963619543852903  0.1345584797558388  0.9238388999192823  1.0000
  H   H37       1.0  0.38568726357375044  0.0137755823284351  0.05916108163124533  1.0000
  H   H38       1.0  0.6143134796201579  0.9862255550847866  0.9408383945494452  1.0000
  C   C1        1.0  0.30372349928894243  0.4700551671692564  0.18325241372545528  1.0000
  C   C2        1.0  0.696267935517284  0.529952485595622  0.8167424079838457  1.0000
  C   C3        1.0  0.18477319863265518  0.4264713700329282  0.2780345272910197  1.0000
  C   C4        1.0  0.815226494855203  0.5735297863446007  0.7219659287119955  1.0000
  C   C5        1.0  0.0575212528414255  0.5215973915179433  0.2896440569903477  1.0000
  C   C6        1.0  0.9424794879799665  0.47840375668028656  0.7103562232811883  1.0000
  C   C7        1.0  0.9459794473428645  0.4806069564586437  0.3763802602785661  1.0000
  C   C8        1.0  0.05402354072631256  0.5193931111797737  0.6236214826747288  1.0000
  C   C9        1.0  0.9615598028035208  0.3463229764752284  0.45463075150833293  1.0000
  C   C10       1.0  0.03844391794768854  0.6536792545263025  0.5453704037874304  1.0000
  C   C11       1.0  0.09131713101979243  0.2532441107020347  0.4428854865101784  1.0000
  C   C12       1.0  0.90868899430496  0.7467559539684743  0.5571173374303698  1.0000
  C   C13       1.0  0.20189553744716457  0.2906391882803305  0.3537238202657847  1.0000
  C   C14       1.0  0.7981068189465007  0.7093652332279207  0.6462779029262579  1.0000
  C   C15       1.0  0.02589443704154351  0.08935585855267898  0.6236271139726739  1.0000
  C   C16       1.0  0.9741066184313569  0.9106431181031307  0.37637357822491435  1.0000
  C   C17       1.0  0.11205930070028824  0.9763836024085317  0.7017200008201173  1.0000
  C   C18       1.0  0.887940864764829  0.0236142966553814  0.2982810730719693  1.0000
  C   C19       1.0  0.23751832396744996  0.006435797818646399  0.7214401756489154  1.0000
  C   C20       1.0  0.7624804866301745  0.9935642486119676  0.2785582497760616  1.0000
  C   C21       1.0  0.3171688938594031  0.9017342371689951  0.7930247431581562  1.0000
  C   C22       1.0  0.6828324881275735  0.0982625140193889  0.2069723405112427  1.0000
  C   C23       1.0  0.15735689937796593  0.741340082405827  0.8261473343421316  1.0000
  C   C24       1.0  0.8426446304447026  0.2586556261513593  0.17385317165368272  1.0000
  C   C25       1.0  0.07198087571234886  0.8409053355762592  0.7552350167091577  1.0000
  C   C26       1.0  0.9280159880539004  0.15909368458176942  0.24476718250518564  1.0000
  C   C27       1.0  0.7013445214437298  0.5395072519350635  0.457691276089733  1.0000
  C   C28       1.0  0.2986595258215631  0.4604927535990342  0.5423062706778553  1.0000
  C   C29       1.0  0.5771812654945238  0.6497158970218351  0.42236374592663856  1.0000
  C   C30       1.0  0.4228220467162276  0.35028195593415745  0.5776351925893195  1.0000
  C   C31       1.0  0.5302193479803706  0.6549935667667056  0.3222706435231331  1.0000
  C   C32       1.0  0.4697805075782712  0.3450064822696106  0.67772841026121  1.0000
  C   C33       1.0  0.41503224637826014  0.7588958373088418  0.2912270692975056  1.0000
  C   C34       1.0  0.5849655050232557  0.24110427122609926  0.7087755523131849  1.0000
  C   C35       1.0  0.39128530366900105  0.8496531769042903  0.4486299564469789  1.0000
  C   C36       1.0  0.6087160593378514  0.1503436605641113  0.551373559949198  1.0000
  C   C37       1.0  0.5053621019333365  0.7493885386576479  0.48688279436228765  1.0000
  C   C38       1.0  0.49463895116704765  0.2506104487831707  0.5131187019261462  1.0000
  C   C39       1.0  0.3745885947440186  0.30554493204119393  0.9703342266377322  1.0000
  C   C40       1.0  0.6253992189668055  0.6944660349302295  0.029662916649464018  1.0000
  C   C41       1.0  0.267987966433438  0.21256940548103384  0.9758837993539375  1.0000
  C   C42       1.0  0.7320108370466443  0.7874306733045912  0.02411703834358294  1.0000
  C   C43       1.0  0.14128724166992873  0.2759261504481784  0.9351951583988979  1.0000
  C   C44       1.0  0.8587131892449876  0.724077147722454  0.06480310176489477  1.0000
  C   C45       1.0  0.0372551948794921  0.19296217652080122  0.9455224706386008  1.0000
  C   C46       1.0  0.962745541196867  0.8070389932474314  0.05447941781462621  1.0000
  C   C47       1.0  0.05588224744879262  0.04327445252674518  0.9955379865650685  1.0000
  C   C48       1.0  0.9441184957451156  0.9567266848864762  0.004461489615621982  1.0000
  C   C49       1.0  0.1834011467775413  0.9808263984905493  0.03673039453011743  1.0000
  C   C50       1.0  0.8165997537421176  0.019173653151469197  0.9632692876135922  1.0000
  C   C51       1.0  0.2876675073927332  0.06388356378917588  0.027130097183686534  1.0000
  C   C52       1.0  0.712332925894707  0.9361197235964553  0.9728673588892606  1.0000
  N   N1        1.0  0.2774202508620932  0.7710666499526013  0.8448889972280399  1.0000
  N   N2        1.0  0.7225799217205664  0.22893121675630113  0.15510966439151028  1.0000
  N   N3        1.0  0.34552887329350324  0.8555550785535289  0.35260361588458283  1.0000
  N   N4        1.0  0.654470235348022  0.1444428718296962  0.6474008501023648  1.0000
  O   O1        1.0  0.2762328330113989  0.5852411569294418  0.10705054187837255  1.0000
  O   O2        1.0  0.7237613115298062  0.4147622011020217  0.8929495767651475  1.0000
  O   O3        1.0  0.4226667929154005  0.38782076592318054  0.18546021915514646  1.0000
  O   O4        1.0  0.5773318769640811  0.6121802907836269  0.814532371670886  1.0000
  O   O5        1.0  0.11882721863169371  0.12100608142601736  0.5157018561971043  1.0000
  O   O6        1.0  0.8811757670649742  0.8789939969974012  0.48430069084703603  1.0000
  O   O7        1.0  0.8250177371785059  0.5805412890757894  0.3778385026369337  1.0000
  O   O8        1.0  0.17498542007900403  0.4194576388664046  0.6221594258251528  1.0000
  O   O9        1.0  0.3425198507716658  0.44123513608025894  0.9281795439148228  1.0000
  O   O10       1.0  0.6574696674247564  0.5587640060429138  0.07182870996495444  1.0000
  O   O11       1.0  0.4882678207862767  0.24542764726015784  0.009191087812134008  1.0000
  O   O12       1.0  0.5117305225791215  0.7545756349140759  0.9908051115420806  1.0000
