data_image0
_chemical_formula_structural       Ga4H32C16Cl8O8
_chemical_formula_sum              "Ga4 H32 C16 Cl8 O8"
_cell_length_a       8.17881022200501
_cell_length_b       8.227719235003768
_cell_length_c       11.198568102002483
_cell_angle_alpha    89.99997006016805
_cell_angle_beta     89.99992951192708
_cell_angle_gamma    89.99989461810918

_space_group_name_H-M_alt    "P 1"
_space_group_IT_number       1

loop_
  _space_group_symop_operation_xyz
  'x, y, z'

loop_
  _atom_site_type_symbol
  _atom_site_label
  _atom_site_symmetry_multiplicity
  _atom_site_fract_x
  _atom_site_fract_y
  _atom_site_fract_z
  _atom_site_occupancy
  Ga  Ga1       1.0  0.1025963885889567  0.2500010557958134  0.2500015109275964  1.0000
  Ga  Ga2       1.0  0.3974021041609674  0.24999957123191757  0.24999959193717564  1.0000
  Ga  Ga3       1.0  0.8974030422558458  0.7500001982580499  0.7499989088582308  1.0000
  Ga  Ga4       1.0  0.6025973266860802  0.7499992520146394  0.7500008278491137  1.0000
  H   H1        1.0  0.1537794609091563  0.6148833849936607  0.3375858297837481  1.0000
  H   H2        1.0  0.3462216267016416  0.8851148417158115  0.3375856912206173  1.0000
  H   H3        1.0  0.15377935745596724  0.885115079905077  0.16241427559588567  1.0000
  H   H4        1.0  0.346220801204538  0.6148844871835948  0.16241424045792027  1.0000
  H   H5        1.0  0.8462199699386446  0.38511543825320854  0.6624136970312333  1.0000
  H   H6        1.0  0.653779026816757  0.11488519693359928  0.6624138355935897  1.0000
  H   H7        1.0  0.8462212960598023  0.11488860495560259  0.8375843582463103  1.0000
  H   H8        1.0  0.6537798523138604  0.385115551465816  0.8375852863562796  1.0000
  H   H9        1.0  0.20686651056316663  0.6182621030087675  0.493636113046783  1.0000
  H   H10       1.0  0.2931343153862045  0.8817360123677885  0.49363691666540876  1.0000
  H   H11       1.0  0.20686667503024134  0.8817362649516056  0.0063639444155612  1.0000
  H   H12       1.0  0.2931337452916978  0.6182634134699825  0.006363062930411398  1.0000
  H   H13       1.0  0.7931329202857569  0.3817355048344524  0.5063634137684332  1.0000
  H   H14       1.0  0.7068651154604736  0.11826402628273056  0.5063626101493454  1.0000
  H   H15       1.0  0.7931364238308589  0.11826377369525427  0.9936364753688448  1.0000
  H   H16       1.0  0.7068669082278305  0.3817354097757785  0.9936364638840229  1.0000
  H   H17       1.0  0.1407702167165326  0.38434431877867326  0.6126255073335826  1.0000
  H   H18       1.0  0.3592276679961728  0.11565483413443901  0.6126245671881776  1.0000
  H   H19       1.0  0.14077390327078385  0.11565493557562688  0.8873758636075448  1.0000
  H   H20       1.0  0.3592284114335129  0.3843452367183814  0.8873757135997591  1.0000
  H   H21       1.0  0.8592279914599176  0.6156532890653424  0.38737491245349515  1.0000
  H   H22       1.0  0.6407717628504983  0.8843452045160873  0.38737495962657675  1.0000
  H   H23       1.0  0.85923041826279  0.8843451030704302  0.1126236632049995  1.0000
  H   H24       1.0  0.6407710194142882  0.6156535865284949  0.1126238132152224  1.0000
  H   H25       1.0  0.04312909367700969  0.21533040241546786  0.5390733230880116  1.0000
  H   H26       1.0  0.4568676916942991  0.2846688029739112  0.5390722301244323  1.0000
  H   H27       1.0  0.0431335664578896  0.2846690302326493  0.9609290289564212  1.0000
  H   H28       1.0  0.4568698475870577  0.2153310895847724  0.9609279625315136  1.0000
  H   H29       1.0  0.9568703371711679  0.784667205427432  0.4609270966985193  1.0000
  H   H30       1.0  0.5431317391523719  0.7153312356766078  0.46092729669032195  1.0000
  H   H31       1.0  0.956870755074938  0.7153310084130948  0.03907139082743069  1.0000
  H   H32       1.0  0.5431308059305877  0.7846689490643185  0.039072457253993796  1.0000
  C   C1        1.0  0.1149265787349165  0.5795187882853269  0.427683980097143  1.0000
  C   C2        1.0  0.3850731351298294  0.9204781587413321  0.4276855788732732  1.0000
  C   C3        1.0  0.11492778351311021  0.9204785321551083  0.07231526738002  1.0000
  C   C4        1.0  0.38507374889307044  0.5795210992120872  0.07231699665057079  1.0000
  C   C5        1.0  0.8850728521132609  0.4204788195575801  0.5723164396893806  1.0000
  C   C6        1.0  0.614927518387816  0.0795218799077588  0.5723148409122345  1.0000
  C   C7        1.0  0.8850740926732641  0.07952393729984658  0.9276860453757791  1.0000
  C   C8        1.0  0.6149269046238289  0.4204789394366839  0.9276843161062444  1.0000
  C   C9        1.0  0.05086970096634501  0.34804761055491434  0.544398082103882  1.0000
  C   C10       1.0  0.4491282981497307  0.1519491602268133  0.5443979398928462  1.0000
  C   C11       1.0  0.050873205875916504  0.1519530233641717  0.955601584040039  1.0000
  C   C12       1.0  0.44912899442762483  0.34804831565820393  0.9556022597499164  1.0000
  C   C13       1.0  0.9491297298814488  0.6519512126919621  0.4556014447111068  1.0000
  C   C14       1.0  0.550871132699193  0.8480484476164065  0.45560158692236996  1.0000
  C   C15       1.0  0.949129892983308  0.8480506614942694  0.0443970498010486  1.0000
  C   C16       1.0  0.5508704364182933  0.6519517229920025  0.04439816003614539  1.0000
  Cl  Cl1       1.0  0.9518447101866911  0.059851564051228885  0.33558889198019404  1.0000
  Cl  Cl2       1.0  0.5481536119093492  0.44014808890339907  0.33558810842281867  1.0000
  Cl  Cl3       1.0  0.9518445014305783  0.44014899679467584  0.1644124703594727  1.0000
  Cl  Cl4       1.0  0.5481553303607853  0.0598507782829572  0.1644118323514903  1.0000
  Cl  Cl5       1.0  0.048153497987136994  0.9401496900040626  0.6644106348348798  1.0000
  Cl  Cl6       1.0  0.4518458189384518  0.5598507343434774  0.6644114183921701  1.0000
  Cl  Cl7       1.0  0.0481561520870741  0.5598510418544151  0.835587949426042  1.0000
  Cl  Cl8       1.0  0.45184532315686715  0.9401492603661268  0.8355885874340244  1.0000
  O   O1        1.0  0.10790615915822602  0.40387838171722723  0.42914938279230336  1.0000
  O   O2        1.0  0.3920920332020046  0.09612090209517278  0.42914842045934865  1.0000
  O   O3        1.0  0.10790674462593593  0.09612007396810178  0.0708509553567183  1.0000
  O   O4        1.0  0.392093271189907  0.403879465467483  0.07085076820715838  1.0000
  O   O5        1.0  0.892093271689575  0.5961204415296493  0.5708501440226783  1.0000
  O   O6        1.0  0.6079073976446666  0.9038791365553462  0.5708511063554056  1.0000
  O   O7        1.0  0.892096354236287  0.9038811800833599  0.9291467855135306  1.0000
  O   O8        1.0  0.6079061596567642  0.5961205731830432  0.9291487586075957  1.0000
