data_image0
_chemical_formula_structural       Zn2H32C36N16O8
_chemical_formula_sum              "Zn2 H32 C36 N16 O8"
_cell_length_a       11.078171347405078
_cell_length_b       16.03925856239346
_cell_length_c       17.376780788845384
_cell_angle_alpha    95.15085147365687
_cell_angle_beta     90.0573101975502
_cell_angle_gamma    92.39441898004512

_space_group_name_H-M_alt    "P 1"
_space_group_IT_number       1

loop_
  _space_group_symop_operation_xyz
  'x, y, z'

loop_
  _atom_site_type_symbol
  _atom_site_label
  _atom_site_symmetry_multiplicity
  _atom_site_fract_x
  _atom_site_fract_y
  _atom_site_fract_z
  _atom_site_occupancy
  Zn  Zn1       1.0  0.5015252121803543  0.4081617140881447  0.4996942214859106  1.0000
  Zn  Zn2       1.0  0.5102789267967367  0.5894024074509687  0.5030510010000742  1.0000
  H   H1        1.0  0.39000915859673313  0.7133229294197677  0.4261925778957691  1.0000
  H   H2        1.0  0.37789545669738084  0.8702735165206336  0.4303843147627975  1.0000
  H   H3        1.0  0.3277837242614439  0.11027980563238061  0.40643045228048913  1.0000
  H   H4        1.0  0.6117812331396806  0.1168987288023615  0.57658374562525  1.0000
  H   H5        1.0  0.5088269800973749  0.6157250936339622  0.2647051253475184  1.0000
  H   H6        1.0  0.5122003681643646  0.6152439441632467  0.12001775848268899  1.0000
  H   H7        1.0  0.5306858185300243  0.6586073502706783  0.9020696670076167  1.0000
  H   H8        1.0  0.4859912293602946  0.39106428897790113  0.8950876422272532  1.0000
  H   H9        1.0  0.7790886102737671  0.5934595091870848  0.3919596003526849  1.0000
  H   H10       1.0  0.8890691810406963  0.6791243897641905  0.30229479116804486  1.0000
  H   H11       1.0  0.22808659061287528  0.6055372267781036  0.3900305377403016  1.0000
  H   H12       1.0  0.115392587103031  0.6844744931072738  0.30089630555833946  1.0000
  H   H13       1.0  0.7034394513157309  0.6639531840810945  0.5801014279219177  1.0000
  H   H14       1.0  0.7100507289438553  0.7489673669800538  0.6490152139454967  1.0000
  H   H15       1.0  0.6872868486788803  0.9613849077755602  0.6053904341457541  1.0000
  H   H16       1.0  0.766744360996931  0.8734547143530166  0.6166833457048286  1.0000
  H   H17       1.0  0.30632868517974293  0.33904802738750556  0.4288714754642698  1.0000
  H   H18       1.0  0.2574390925322305  0.24474808758166944  0.37808194075230284  1.0000
  H   H19       1.0  0.6015245046111274  0.34188366554696603  0.6167152579048791  1.0000
  H   H20       1.0  0.6674310395364884  0.25144671406282276  0.6369736660055171  1.0000
  H   H21       1.0  0.5000401696794796  0.33083002656111665  0.306997196971004  1.0000
  H   H22       1.0  0.5390506729706317  0.2816507865510189  0.2185748052947788  1.0000
  H   H23       1.0  0.4863365504955794  0.3341433227901264  0.03512462580471272  1.0000
  H   H24       1.0  0.4417665518141476  0.2819425012424901  0.11255847463033325  1.0000
  H   H25       1.0  0.5074119758229826  0.6636359746632293  0.695239901810503  1.0000
  H   H26       1.0  0.5116790231944321  0.7206716089880345  0.7857328432479282  1.0000
  H   H27       1.0  0.4541706176116589  0.3579656475643914  0.6897220337361036  1.0000
  H   H28       1.0  0.44220506501294915  0.31685900588527016  0.7781392492553609  1.0000
  H   H29       1.0  0.21349733577513771  0.3912698528462641  0.5786693520588815  1.0000
  H   H30       1.0  0.0744627006406375  0.35007343752064907  0.6022322352144659  1.0000
  H   H31       1.0  0.795032275583047  0.38149247324687263  0.5797692295048764  1.0000
  H   H32       1.0  0.9087425167125431  0.4004568922387719  0.6458549351155372  1.0000
  C   C1        1.0  0.5054892256859064  0.4874356946715608  0.34990209929426913  1.0000
  C   C2        1.0  0.26814922135341857  0.5079452120139578  0.49809867922358136  1.0000
  C   C3        1.0  0.5028116985544885  0.5089212953121701  0.6569709295362502  1.0000
  C   C4        1.0  0.7430497763739154  0.49652413744140483  0.5015120967589584  1.0000
  C   C5        1.0  0.449673643107495  0.7557226916642039  0.46267585645790654  1.0000
  C   C6        1.0  0.4425628886946811  0.8411041921059735  0.4654106260867083  1.0000
  C   C7        1.0  0.5226653931983947  0.8918270414330749  0.514850978966287  1.0000
  C   C8        1.0  0.6058427310927142  0.853707126250171  0.5604508930996847  1.0000
  C   C9        1.0  0.6073813236455834  0.7639704718507685  0.5536690572026972  1.0000
  C   C10       1.0  0.39269251415186807  0.1456419738927437  0.44500471499058875  1.0000
  C   C11       1.0  0.47134451564015484  0.10369673341097038  0.48911740985829527  1.0000
  C   C12       1.0  0.5521288437424232  0.1489827108107775  0.5404941977631527  1.0000
  C   C13       1.0  0.5513403913055014  0.23640001254708656  0.5463872411301413  1.0000
  C   C14       1.0  0.3961996142266244  0.2339906665216702  0.45362445934862466  1.0000
  C   C15       1.0  0.501772331977726  0.4815780276568518  0.2641245430978359  1.0000
  C   C16       1.0  0.506082081895002  0.5572839309252514  0.22749782190437892  1.0000
  C   C17       1.0  0.5083312773522479  0.5574155089908643  0.14839439434746285  1.0000
  C   C18       1.0  0.5039964947398019  0.48024012015329015  0.10189991157559324  1.0000
  C   C19       1.0  0.4982505545967442  0.4037599771765485  0.13659941031431805  1.0000
  C   C20       1.0  0.4982340508378654  0.4038968162490307  0.2187217600250336  1.0000
  C   C21       1.0  0.5200806206397671  0.5983345352957842  0.8678260899022521  1.0000
  C   C22       1.0  0.5088626106745193  0.5256260158917029  0.9061299227681094  1.0000
  C   C23       1.0  0.4950168156010051  0.44720127285052064  0.8643008453161234  1.0000
  C   C24       1.0  0.4927222362541315  0.44057630327652225  0.7836224708386228  1.0000
  C   C25       1.0  0.5054577175476709  0.514365624108045  0.7422164099843376  1.0000
  C   C26       1.0  0.5179957409738947  0.5942019001356514  0.7867479907845694  1.0000
  C   C27       1.0  0.8775328368535397  0.49787497387447394  0.49597224578273835  1.0000
  C   C28       1.0  0.9399377673662883  0.5504581899616524  0.44503428819113133  1.0000
  C   C29       1.0  0.940635402361707  0.448101754292665  0.5422512052377119  1.0000
  C   C30       1.0  0.8774612461231754  0.5965385958154883  0.39262039874160615  1.0000
  C   C31       1.0  0.9391359695099907  0.6446598419710199  0.34225830016627173  1.0000
  C   C32       1.0  0.13357360353438  0.5050500481347271  0.4955801114586438  1.0000
  C   C33       1.0  0.0704703655915111  0.45140016373928654  0.5419926218802761  1.0000
  C   C34       1.0  0.06970086701741  0.5542857324630432  0.44513648034681125  1.0000
  C   C35       1.0  0.12988797909394384  0.6035015176229664  0.3916781108044775  1.0000
  C   C36       1.0  0.066440007966861  0.64779249024744  0.34165563447994896  1.0000
  N   N1        1.0  0.5297343318426755  0.7176926130944707  0.5064794749817028  1.0000
  N   N2        1.0  0.5320668059729456  0.9791866144559195  0.5212243732650708  1.0000
  N   N3        1.0  0.45846702465877337  0.015022408268826799  0.48018395866591873  1.0000
  N   N4        1.0  0.4767838683104059  0.2788762538814852  0.5022193738926151  1.0000
  N   N5        1.0  0.5012846162015947  0.47119289520817637  0.021403845834846915  1.0000
  N   N6        1.0  0.5129777692216706  0.5383348037510982  0.9877692266348181  1.0000
  N   N7        1.0  0.6938723821377478  0.7268910427490807  0.593249212132456  1.0000
  N   N8        1.0  0.6849508518428209  0.8986776360749571  0.6106756053054386  1.0000
  N   N9        1.0  0.3188803216359446  0.2770020339493228  0.41336741816484607  1.0000
  N   N10       1.0  0.627366370877418  0.2832589863709529  0.596893823346328  1.0000
  N   N11       1.0  0.4909323197572633  0.3265598249509408  0.24821104292817628  1.0000
  N   N12       1.0  0.49698704537980376  0.3273720646022583  0.09245347439835434  1.0000
  N   N13       1.0  0.5314768382311995  0.6680743871128031  0.7522512251912662  1.0000
  N   N14       1.0  0.4794250712377135  0.36092883378687185  0.7461193758545908  1.0000
  N   N15       1.0  0.12564241182430888  0.4019499307750038  0.5918175841381914  1.0000
  N   N16       1.0  0.8856037997748131  0.39089673256345486  0.5889224527880688  1.0000
  O   O1        1.0  0.4978219693979682  0.41897085958516567  0.3832818992996254  1.0000
  O   O2        1.0  0.5167533403693199  0.560145567431306  0.38608484123666653  1.0000
  O   O3        1.0  0.3255604197365258  0.5779644514150989  0.49849185790962053  1.0000
  O   O4        1.0  0.31951301956587497  0.4374021026420891  0.5008252417991773  1.0000
  O   O5        1.0  0.4987973311084133  0.575792487070224  0.6221044560956277  1.0000
  O   O6        1.0  0.5046425135683067  0.4357309774992828  0.6189410351146594  1.0000
  O   O7        1.0  0.6867250171594891  0.4252510851672184  0.49671725343272777  1.0000
  O   O8        1.0  0.6923224715453175  0.5666300570081545  0.5126162538984647  1.0000
