data_image0
_chemical_formula_structural       Cu8H16C16N8Cl8
_chemical_formula_sum              "Cu8 H16 C16 N8 Cl8"
_cell_length_a       3.6763062577596144
_cell_length_b       13.138885943387505
_cell_length_c       14.39484009232415
_cell_angle_alpha    89.9992259976494
_cell_angle_beta     89.99968388164355
_cell_angle_gamma    90.0023842319466

_space_group_name_H-M_alt    "P 1"
_space_group_IT_number       1

loop_
  _space_group_symop_operation_xyz
  'x, y, z'

loop_
  _atom_site_type_symbol
  _atom_site_label
  _atom_site_symmetry_multiplicity
  _atom_site_fract_x
  _atom_site_fract_y
  _atom_site_fract_z
  _atom_site_occupancy
  Cu  Cu1       1.0  0.30420559639856026  0.5295800430799389  0.6860621975569574  1.0000
  Cu  Cu2       1.0  0.1958439394869558  0.5296589113264789  0.1860643626297644  1.0000
  Cu  Cu3       1.0  0.30423671726112633  0.97035409575161  0.6860502056925314  1.0000
  Cu  Cu4       1.0  0.804197655963513  0.029611906788481714  0.8139276778428056  1.0000
  Cu  Cu5       1.0  0.6958399122416168  0.4703811065856911  0.31392063040672025  1.0000
  Cu  Cu6       1.0  0.8041634926586383  0.4703760644848743  0.8139622305479437  1.0000
  Cu  Cu7       1.0  0.6958523132877374  0.029609337322043  0.31395276833213626  1.0000
  Cu  Cu8       1.0  0.19578529595004573  0.9704283968719242  0.18605584432776115  1.0000
  H   H1        1.0  0.2213480997726975  0.7499624945995367  0.7309595043780492  1.0000
  H   H2        1.0  0.2785493628574685  0.7500392508756308  0.23097961181912308  1.0000
  H   H3        1.0  0.7214145465613128  0.24998354719627972  0.7690323929110435  1.0000
  H   H4        1.0  0.7785940445758682  0.2500039821291581  0.26903096525165193  1.0000
  H   H5        1.0  0.6674214289568994  0.5858292834601645  0.511262810957348  1.0000
  H   H6        1.0  0.8326767995136491  0.5858762043473861  0.011287703347854004  1.0000
  H   H7        1.0  0.6673106281031592  0.9141227181535074  0.5112460172188095  1.0000
  H   H8        1.0  0.16746047248902574  0.08583717639626093  0.9887258119288023  1.0000
  H   H9        1.0  0.3326186409812877  0.4141524158389204  0.4887234903390834  1.0000
  H   H10       1.0  0.16740135441993684  0.4141412665542461  0.9887416686698105  1.0000
  H   H11       1.0  0.3326614376193929  0.08584375876712615  0.4887409789224011  1.0000
  H   H12       1.0  0.832527917710095  0.91417877205344  0.011266046721893004  1.0000
  H   H13       1.0  0.8228653584036179  0.7499717189245704  0.42954550936671865  1.0000
  H   H14       1.0  0.6770452638934684  0.750026133456629  0.9295636732361887  1.0000
  H   H15       1.0  0.32292680500637516  0.24998296497722095  0.0704323536325546  1.0000
  H   H16       1.0  0.1771257485497912  0.25000084684344165  0.5704498230402919  1.0000
  C   C1        1.0  0.3538432149222572  0.749959892011262  0.6631851232717099  1.0000
  C   C2        1.0  0.14609103588902164  0.7500473334896401  0.16320750623700772  1.0000
  C   C3        1.0  0.8539218369892722  0.24999144797640585  0.8368003301901654  1.0000
  C   C4        1.0  0.6461342904152261  0.24999973497865824  0.3368115986187875  1.0000
  C   C5        1.0  0.6005417038155939  0.6595533722834548  0.5412717283452438  1.0000
  C   C6        1.0  0.8994121681811861  0.659617790040173  0.04128471425010361  1.0000
  C   C7        1.0  0.6004984656842964  0.8403959496623232  0.5412663454356308  1.0000
  C   C8        1.0  0.10057049966982129  0.15957917477498285  0.9587222528943118  1.0000
  C   C9        1.0  0.3994847652735771  0.340426043598285  0.45872082521670177  1.0000
  C   C10       1.0  0.10060342398595169  0.3404110971004074  0.9587300691752888  1.0000
  C   C11       1.0  0.3994763205249398  0.1595773770664907  0.45873593391178263  1.0000
  C   C12       1.0  0.8993961305060548  0.8404512343403711  0.0412848889291553  1.0000
  C   C13       1.0  0.6873835560688304  0.7499743087338829  0.4967196775587724  1.0000
  C   C14       1.0  0.8124794117185912  0.7500378602406955  0.9967348667676179  1.0000
  C   C15       1.0  0.18746273694670626  0.2499864599732363  0.0032674122608398  1.0000
  C   C16       1.0  0.31258851069819116  0.2500066290358234  0.5032735707256466  1.0000
  N   N1        1.0  0.4316865346906339  0.6592732951720424  0.6249233546449562  1.0000
  N   N2        1.0  0.06834068074575578  0.6593568159398872  0.12493334562343253  1.0000
  N   N3        1.0  0.4315916557083099  0.840655491850214  0.6249151893743773  1.0000
  N   N4        1.0  0.9316990687327973  0.15930509632084272  0.8750590365130507  1.0000
  N   N5        1.0  0.5683671349789207  0.34069774877269055  0.3750685042601987  1.0000
  N   N6        1.0  0.9316613125227063  0.3406933819579337  0.8750744907349175  1.0000
  N   N7        1.0  0.5684076116974449  0.1593193572062006  0.37508847933185774  1.0000
  N   N8        1.0  0.0683192447905299  0.8407367296816447  0.12493282194219553  1.0000
  Cl  Cl1       1.0  0.34071696921405686  0.5768152643118543  0.8500678438580567  1.0000
  Cl  Cl2       1.0  0.1593200425543273  0.5768259833353542  0.3500679781005047  1.0000
  Cl  Cl3       1.0  0.34067283746204413  0.9231642636548618  0.850055791639612  1.0000
  Cl  Cl4       1.0  0.8407423972720949  0.0767945389336475  0.649926207351676  1.0000
  Cl  Cl5       1.0  0.6592741419174216  0.423211339542  0.14992470941246697  1.0000
  Cl  Cl6       1.0  0.8406275430744328  0.4231572374546603  0.6499461109874289  1.0000
  Cl  Cl7       1.0  0.6593209933745782  0.07685853463706854  0.14994857144183277  1.0000
  Cl  Cl8       1.0  0.15931671236307915  0.9231726995534049  0.35006426218836145  1.0000
