data_image0
_chemical_formula_structural       Al2H24C30N6O12
_chemical_formula_sum              "Al2 H24 C30 N6 O12"
_cell_length_a       3.92038273801104
_cell_length_b       17.218331014984265
_cell_length_c       17.218350797382335
_cell_angle_alpha    120.00013923707377
_cell_angle_beta     90.00026972817099
_cell_angle_gamma    89.99986851655422

_space_group_name_H-M_alt    "P 1"
_space_group_IT_number       1

loop_
  _space_group_symop_operation_xyz
  'x, y, z'

loop_
  _atom_site_type_symbol
  _atom_site_label
  _atom_site_symmetry_multiplicity
  _atom_site_fract_x
  _atom_site_fract_y
  _atom_site_fract_z
  _atom_site_occupancy
  Al  Al1       1.0  0.9836820987234913  0.4999991480732718  0.499999963084136  1.0000
  Al  Al2       1.0  0.01604951438476829  0.16666786109212947  0.833333433759293  1.0000
  H   H1        1.0  0.27002187296784536  0.11275975799440367  0.5297456764281564  1.0000
  H   H2        1.0  0.7254136380037718  0.11197991975537044  0.5297312622668714  1.0000
  H   H3        1.0  0.7299603847467959  0.19630960754680873  0.4460708254182607  1.0000
  H   H4        1.0  0.2745584127066535  0.19635029572685878  0.4453434075944571  1.0000
  H   H5        1.0  0.27001897534351815  0.9169863773206616  0.887239053479327  1.0000
  H   H6        1.0  0.725410740831144  0.9177513485183227  0.8880203631448612  1.0000
  H   H7        1.0  0.7299587396109783  0.7497612847981471  0.803690486239617  1.0000
  H   H8        1.0  0.2745567786293747  0.7489936721691708  0.8036482427274267  1.0000
  H   H9        1.0  0.27001550859397827  0.4702526321611984  0.08301265233962596  1.0000
  H   H10       1.0  0.7254123635136195  0.4702689177025974  0.08224857835844547  1.0000
  H   H11       1.0  0.7299565924362806  0.5539296290572793  0.2502385642281055  1.0000
  H   H12       1.0  0.27455463230126037  0.554655135005973  0.25100540402713284  1.0000
  H   H13       1.0  0.4423594998810143  0.5561915314515459  0.7320189607697358  1.0000
  H   H14       1.0  0.6283218413854852  0.5530597885631323  0.8188941393490341  1.0000
  H   H15       1.0  0.5575470834875276  0.39870027641129013  0.8895819338967429  1.0000
  H   H16       1.0  0.3716055886949546  0.4855744047426285  0.8864175574124433  1.0000
  H   H17       1.0  0.44236360002366115  0.6758284168963584  0.4438084563006369  1.0000
  H   H18       1.0  0.6283271689132089  0.7658356363688908  0.4469406904415791  1.0000
  H   H19       1.0  0.5575539267790431  0.9908827931260048  0.6013014283763171  1.0000
  H   H20       1.0  0.3716124563123414  0.9008439795476164  0.5144272478285714  1.0000
  H   H21       1.0  0.4423618573921713  0.2679809011163671  0.32417165371790463  1.0000
  H   H22       1.0  0.628320252219801  0.18110576453105404  0.234164209453489  1.0000
  H   H23       1.0  0.5575522475301254  0.1104173576739242  0.009117483384983405  1.0000
  H   H24       1.0  0.37160702452739963  0.1135823735453556  0.09915540137058093  1.0000
  C   C1        1.0  0.4848241304915246  0.4287293885024609  0.3616530680815729  1.0000
  C   C2        1.0  0.4848262589473789  0.432923855549454  0.5712703558450727  1.0000
  C   C3        1.0  0.4848277417870788  0.6383466903938811  0.5670754707603864  1.0000
  C   C4        1.0  0.5150686259759708  0.23793143849962917  0.7662902188196555  1.0000
  C   C5        1.0  0.5150721790934792  0.028359249056535463  0.7620699279223119  1.0000
  C   C6        1.0  0.5150733034390241  0.23371074080978366  0.9716408140615302  1.0000
  C   C7        1.0  0.5134073275013974  0.2889983143301367  0.7183538453122228  1.0000
  C   C8        1.0  0.4867401002611159  0.3850033450090676  0.6223443742862003  1.0000
  C   C9        1.0  0.4994028531343913  0.245181998149917  0.6249035027331828  1.0000
  C   C10       1.0  0.4834835052227574  0.4314572567837871  0.7171145295669846  1.0000
  C   C11       1.0  0.5008356795794169  0.291561888210211  0.5785155891690225  1.0000
  C   C12       1.0  0.5165243737695276  0.38377190361755015  0.7648265071490672  1.0000
  C   C13       1.0  0.49882596747673336  0.1538100113763079  0.5403290070739929  1.0000
  C   C14       1.0  0.5011948237908467  0.2069356424388075  0.4871570372703502  1.0000
  C   C15       1.0  0.5134117094900074  0.9293553345926142  0.7110018173062116  1.0000
  C   C16       1.0  0.48675102085379507  0.737341231772284  0.6149967307527647  1.0000
  C   C17       1.0  0.49940612088657566  0.8797218336450215  0.7548181379926576  1.0000
  C   C18       1.0  0.48349551920765055  0.7856594909172899  0.5685440352900673  1.0000
  C   C19       1.0  0.5008396416636174  0.7869543526316961  0.7084383016540415  1.0000
  C   C20       1.0  0.5165254705031543  0.8810566408347782  0.6162284085368483  1.0000
  C   C21       1.0  0.49882544801140927  0.8865191221949261  0.8461895340976116  1.0000
  C   C22       1.0  0.5011925494463866  0.7802218250278942  0.7930645720967251  1.0000
  C   C23       1.0  0.513408374980919  0.28164653170966153  0.0706441948464729  1.0000
  C   C24       1.0  0.48674410106277566  0.37765477693532296  0.2626572120057419  1.0000
  C   C25       1.0  0.4994046829125052  0.37509576770698067  0.12027761308565496  1.0000
  C   C26       1.0  0.4834867434475567  0.2828841027998621  0.21434057311172694  1.0000
  C   C27       1.0  0.5008312838786038  0.42148461009628596  0.21304527548180371  1.0000
  C   C28       1.0  0.5165286954772197  0.23517297750408522  0.11894360562831002  1.0000
  C   C29       1.0  0.4988251661475472  0.45966988513858814  0.11348013091700433  1.0000
  C   C30       1.0  0.5011905558608304  0.5128445450354775  0.21977871907522226  1.0000
  N   N1        1.0  0.4522315177770863  0.524788548050566  0.7686941674781667  1.0000
  N   N2        1.0  0.5476674408090715  0.4353551232049213  0.8581471859856722  1.0000
  N   N3        1.0  0.45223761829338815  0.7439071937526904  0.47521222737634633  1.0000
  N   N4        1.0  0.5476773039383004  0.9227938877993368  0.5646459497149368  1.0000
  N   N5        1.0  0.45223282746077575  0.23130602399870528  0.25609293752660284  1.0000
  N   N6        1.0  0.5476711006266725  0.14185242189201833  0.07720668788818592  1.0000
  O   O1        1.0  0.7177696810028206  0.5990966157146788  0.5867208889991746  1.0000
  O   O2        1.0  0.7177632302801196  0.48762421493036356  0.4009027825190615  1.0000
  O   O3        1.0  0.7177672950195625  0.4132775229608256  0.5123760288301471  1.0000
  O   O4        1.0  0.25126086456685925  0.5972915093145874  0.5084505782802256  1.0000
  O   O5        1.0  0.2512545641478495  0.4915502832041198  0.5888418241975445  1.0000
  O   O6        1.0  0.2512556074237792  0.41115746541689896  0.402706781297411  1.0000
  O   O7        1.0  0.7486243514264215  0.1750712793235041  0.9305946120845764  1.0000
  O   O8        1.0  0.7486152142287136  0.2555251356880389  0.8249294282148585  1.0000
  O   O9        1.0  0.7486204194170153  0.06940486362045564  0.7444751345178988  1.0000
  O   O10       1.0  0.28206749203681614  0.2533843864580732  0.9324344060503621  1.0000
  O   O11       1.0  0.2820672759904566  0.06756606307509119  0.820949274247539  1.0000
  O   O12       1.0  0.2820634067947622  0.17905246982586934  0.7466177261369183  1.0000
