data_image0
_chemical_formula_structural       Ag4H28C32O8
_chemical_formula_sum              "Ag4 H28 C32 O8"
_cell_length_a       5.606022048524467
_cell_length_b       6.996677273799136
_cell_length_c       18.211585376482645
_cell_angle_alpha    88.4103301952633
_cell_angle_beta     95.4367950943173
_cell_angle_gamma    89.8499752628883

_space_group_name_H-M_alt    "P 1"
_space_group_IT_number       1

loop_
  _space_group_symop_operation_xyz
  'x, y, z'

loop_
  _atom_site_type_symbol
  _atom_site_label
  _atom_site_symmetry_multiplicity
  _atom_site_fract_x
  _atom_site_fract_y
  _atom_site_fract_z
  _atom_site_occupancy
  Ag  Ag1       1.0  0.8070566665642643  0.0693669988418435  0.0336471885929939  1.0000
  Ag  Ag2       1.0  0.19295788998015698  0.9307071525083188  0.966345200384076  1.0000
  Ag  Ag3       1.0  0.6928921789524479  0.5737157399961531  0.9664147218500007  1.0000
  Ag  Ag4       1.0  0.3070816311325117  0.4262828269313275  0.033590470289880194  1.0000
  H   H1        1.0  0.2618996327815069  0.1432073822863771  0.8337665385923998  1.0000
  H   H2        1.0  0.7381272917391185  0.8568237909559072  0.16622660648743454  1.0000
  H   H3        1.0  0.05093375507252779  0.18023415803576634  0.709013808042755  1.0000
  H   H4        1.0  0.9490683652771421  0.8197792650891528  0.2909853333795667  1.0000
  H   H5        1.0  0.6386089743456509  0.9043675425223796  0.6177614446450761  1.0000
  H   H6        1.0  0.3613609743621566  0.09561609541645312  0.38223869893552387  1.0000
  H   H7        1.0  0.8500872827968706  0.8678069417659416  0.7436402367905544  1.0000
  H   H8        1.0  0.1499103689356431  0.13220176272968587  0.256355274382301  1.0000
  H   H9        1.0  0.19431680538718146  0.2276199123096632  0.5617544798511106  1.0000
  H   H10       1.0  0.8056491127059502  0.7723370287177075  0.4382381460000389  1.0000
  H   H11       1.0  0.2880633740731541  0.9972030548503739  0.5368079448481354  1.0000
  H   H12       1.0  0.7119012120502646  0.0027566366671792  0.46319535561882225  1.0000
  H   H13       1.0  0.013928573364957144  0.027195004724042307  0.5775382090903065  1.0000
  H   H14       1.0  0.9860328633877912  0.9727790712521626  0.42246536256814693  1.0000
  H   H15       1.0  0.2362377531744144  0.6157698038736256  0.1663516360301358  1.0000
  H   H16       1.0  0.763735569922666  0.38426154777734206  0.8336520636898044  1.0000
  H   H17       1.0  0.4482017600578274  0.6328039212407576  0.2910113252141073  1.0000
  H   H18       1.0  0.5518019062823853  0.3672091411097469  0.7089849495140044  1.0000
  H   H19       1.0  0.8631131283556427  0.3421235755073795  0.3821066471678237  1.0000
  H   H20       1.0  0.13690074708846112  0.6578648404731454  0.6178995136365019  1.0000
  H   H21       1.0  0.6508424794276807  0.3250185293530876  0.2563047378153911  1.0000
  H   H22       1.0  0.3491426086076928  0.6749786263151023  0.7437011774656315  1.0000
  H   H23       1.0  0.30424390152555947  0.6578856162286967  0.43849285359737417  1.0000
  H   H24       1.0  0.6957959744902736  0.3420545136694669  0.5615181859229353  1.0000
  H   H25       1.0  0.4857354812319628  0.45978298888385183  0.42255983124902496  1.0000
  H   H26       1.0  0.5142901340548534  0.5401622316441461  0.5774335987231184  1.0000
  H   H27       1.0  0.2115483309061901  0.42366070859598176  0.46292583645250573  1.0000
  H   H28       1.0  0.7884952009870999  0.5762715352311929  0.5370678265002198  1.0000
  C   C1        1.0  0.5713545650139906  0.00419107754604654  0.7967808592524437  1.0000
  C   C2        1.0  0.42865394491450093  0.9958261486655431  0.20321454101763692  1.0000
  C   C3        1.0  0.3446717508891696  0.09083424133770283  0.7864575860417349  1.0000
  C   C4        1.0  0.655353279322007  0.9091829456717448  0.2135382912128847  1.0000
  C   C5        1.0  0.22637181066522066  0.11158821532789892  0.7160583950367894  1.0000
  C   C6        1.0  0.7736413595680816  0.8884320238946087  0.2839384242775012  1.0000
  C   C7        1.0  0.33022632974460464  0.04702381090534403  0.654131983779749  1.0000
  C   C8        1.0  0.6697746966629552  0.9529573776391371  0.3458613741843735  1.0000
  C   C9        1.0  0.5557996333460693  0.958542957447129  0.6650039585482119  1.0000
  C   C10       1.0  0.44418893424779066  0.041448637201241895  0.3349918420824025  1.0000
  C   C11       1.0  0.6752460413520184  0.9367359194667487  0.735403102322934  1.0000
  C   C12       1.0  0.32475430638000796  0.0632797594195935  0.26459097442650403  1.0000
  C   C13       1.0  0.7062314127553436  0.989961459211564  0.871447792758076  1.0000
  C   C14       1.0  0.2937675050361719  0.010078583047580001  0.1285461988073138  1.0000
  C   C15       1.0  0.2007591761110277  0.07512824826475388  0.5785263288774019  1.0000
  C   C16       1.0  0.7992049874955498  0.9248364720924513  0.42147121027920065  1.0000
  C   C17       1.0  0.9280471460134762  0.47069628007688646  0.20326766399013957  1.0000
  C   C18       1.0  0.07193811125942082  0.5293126435141247  0.7967407204610597  1.0000
  C   C19       1.0  0.1542467911693848  0.5557828483308355  0.2136052954634522  1.0000
  C   C20       1.0  0.8457354930518193  0.4442381346676497  0.786396098262074  1.0000
  C   C21       1.0  0.2731013740199942  0.5653414207993563  0.28393096120744593  1.0000
  C   C22       1.0  0.7269034772686283  0.4346787873476218  0.7160768883637944  1.0000
  C   C23       1.0  0.16977451953589204  0.4912667791779768  0.3458000108627815  1.0000
  C   C24       1.0  0.8302323787771114  0.5087096663984454  0.6542017017617638  1.0000
  C   C25       1.0  0.9450128835766449  0.40395781476583176  0.3348938271874361  1.0000
  C   C26       1.0  0.055008579000961816  0.5960372653950471  0.6651202907532792  1.0000
  C   C27       1.0  0.8251538336828119  0.3930472095047435  0.2645392513731579  1.0000
  C   C28       1.0  0.17482733270646378  0.6069613448243701  0.7354659253875084  1.0000
  C   C29       1.0  0.7930088445707923  0.4685302388580723  0.12865453861529372  1.0000
  C   C30       1.0  0.2069918822174943  0.5315010259011287  0.871349774077409  1.0000
  C   C31       1.0  0.2986355112522077  0.5080870386471331  0.42142887009838864  1.0000
  C   C32       1.0  0.7014023487105161  0.4918629549365362  0.5785690087879303  1.0000
  O   O1        1.0  0.6030069238571016  0.0547307711662768  0.92588255482341  1.0000
  O   O2        1.0  0.397029880850468  0.9453182606852764  0.07411644351945061  1.0000
  O   O3        1.0  0.9161754602090895  0.9176330251047133  0.8754318668151913  1.0000
  O   O4        1.0  0.0838475048466307  0.0824224009068857  0.1245601694077791  1.0000
  O   O5        1.0  0.8959532363969629  0.5414195707634519  0.0742685911087548  1.0000
  O   O6        1.0  0.10401740198415148  0.4585892852885395  0.9257268530957745  1.0000
  O   O7        1.0  0.5833033492821684  0.39719143062243495  0.1245964578155494  1.0000
  O   O8        1.0  0.41671072337440057  0.6028050880109248  0.8754173463163754  1.0000
