data_image0
_chemical_formula_structural       Cu4H32C24N8Cl4
_chemical_formula_sum              "Cu4 H32 C24 N8 Cl4"
_cell_length_a       6.5696369392857425
_cell_length_b       9.597885360909542
_cell_length_c       12.95241925935391
_cell_angle_alpha    84.99335945305788
_cell_angle_beta     75.21854026335592
_cell_angle_gamma    69.9783629771736

_space_group_name_H-M_alt    "P 1"
_space_group_IT_number       1

loop_
  _space_group_symop_operation_xyz
  'x, y, z'

loop_
  _atom_site_type_symbol
  _atom_site_label
  _atom_site_symmetry_multiplicity
  _atom_site_fract_x
  _atom_site_fract_y
  _atom_site_fract_z
  _atom_site_occupancy
  Cu  Cu1       1.0  0.2886701616386274  0.922328345835126  0.24995790061872472  1.0000
  Cu  Cu2       1.0  0.9612825437049892  0.5770743868482741  0.2500230617860879  1.0000
  Cu  Cu3       1.0  0.03871499001602521  0.42293500706569626  0.749972363999099  1.0000
  Cu  Cu4       1.0  0.7113332917629832  0.0776743947126306  0.7500458999981703  1.0000
  H   H1        1.0  0.738395023264303  0.8740361803882521  0.119163722101419  1.0000
  H   H2        1.0  0.2305164940754878  0.6268883962120669  0.3804940531404029  1.0000
  H   H3        1.0  0.8876213101978861  0.873804729104819  0.3809870720521645  1.0000
  H   H4        1.0  0.6423486785444438  0.6270668812719152  0.11938652242923806  1.0000
  H   H5        1.0  0.35765155329924847  0.3729336415153028  0.8806121949995358  1.0000
  H   H6        1.0  0.11238720722568019  0.1261824869546118  0.6190225398984167  1.0000
  H   H7        1.0  0.7694771920316797  0.3731232156645845  0.6195009650593661  1.0000
  H   H8        1.0  0.261608207782885  0.12596545130958253  0.8808408505058835  1.0000
  H   H9        1.0  0.964067247734526  0.035928551973263695  0.1277657626123343  1.0000
  H   H10       1.0  0.6279546432822585  0.46397731943250153  0.3726846858084727  1.0000
  H   H11       1.0  0.500050603395202  0.035754523645806606  0.3721651693896603  1.0000
  H   H12       1.0  0.40772308173851  0.4644902697594873  0.12740840214889462  1.0000
  H   H13       1.0  0.5922671240807911  0.5355146891490818  0.8725918161909973  1.0000
  H   H14       1.0  0.4999603222079184  0.96424378084825  0.6278349747726252  1.0000
  H   H15       1.0  0.3720431465522298  0.536028747608938  0.6273043165266613  1.0000
  H   H16       1.0  0.03593001806354566  0.9640553379360811  0.8722410389040007  1.0000
  H   H17       1.0  0.94312700176647  0.1798322219507469  0.028720651988926715  1.0000
  H   H18       1.0  0.6514951404807972  0.3200202867124916  0.47177559676658376  1.0000
  H   H19       1.0  0.377212347870433  0.1797174776376735  0.47118363997144996  1.0000
  H   H20       1.0  0.5285087207103345  0.32038770486749246  0.028391754198111102  1.0000
  H   H21       1.0  0.4714944348987014  0.6796117090013994  0.9716108666214893  1.0000
  H   H22       1.0  0.6227883637846857  0.8202786096837826  0.5288183692485616  1.0000
  H   H23       1.0  0.34850538519543744  0.6799780181166782  0.528217673105992  1.0000
  H   H24       1.0  0.0568659021754955  0.8201638658310841  0.9712828579945593  1.0000
  H   H25       1.0  0.9995157839844918  0.20357771004683664  0.15315343119790006  1.0000
  H   H26       1.0  0.8565088060784235  0.29629976952313797  0.3472907736121443  1.0000
  H   H27       1.0  0.29704795627470987  0.2034136040217334  0.3467485978362603  1.0000
  H   H28       1.0  0.347193159580314  0.2967209465472749  0.1528615851133424  1.0000
  H   H29       1.0  0.6527930146615617  0.7032851216669584  0.8471452171412324  1.0000
  H   H30       1.0  0.7029304440130559  0.7965880289304221  0.6532540537221436  1.0000
  H   H31       1.0  0.14350152588426812  0.7037007524148464  0.6526979074615155  1.0000
  H   H32       1.0  0.0004742001521545303  0.7964250312902408  0.8468528027482451  1.0000
  C   C1        1.0  0.27558447903140854  0.05788280557440119  0.0432003986749478  1.0000
  C   C2        1.0  0.8766334249624773  0.44200975012238797  0.4570777754880524  1.0000
  C   C3        1.0  0.16651565760521683  0.05785164023090061  0.4567319869497695  1.0000
  C   C4        1.0  0.18131847083997593  0.44217662765821325  0.04297974663527532  1.0000
  C   C5        1.0  0.8186831686236785  0.5578238952558008  0.9570253941328134  1.0000
  C   C6        1.0  0.8334847165935458  0.9421311406955585  0.5432769700731441  1.0000
  C   C7        1.0  0.12337283703193684  0.5579918809283626  0.54291126999059  1.0000
  C   C8        1.0  0.7244234480399854  0.9421132812874545  0.9567991339246545  1.0000
  C   C9        1.0  0.6324405547184991  0.9313495396826073  0.06523701452147887  1.0000
  C   C10       1.0  0.12819318804857002  0.5694141922959091  0.43463154668955173  1.0000
  C   C11       1.0  0.9362775798403071  0.931188685850103  0.43484884379753197  1.0000
  C   C12       1.0  0.8022160470774718  0.5694445567062374  0.06529775147885182  1.0000
  C   C13       1.0  0.197780966496559  0.430560401678953  0.9346972664994411  1.0000
  C   C14       1.0  0.0637546207962172  0.06880074659260771  0.5651564697660802  1.0000
  C   C15       1.0  0.8718173662685442  0.43058743849199044  0.5653563623937004  1.0000
  C   C16       1.0  0.3675454719353296  0.06865874623223081  0.9347672678953529  1.0000
  C   C17       1.0  0.030920213532226595  0.12354216596695983  0.09018644424005369  1.0000
  C   C18       1.0  0.7446548909241242  0.3763348500244277  0.41026494783983475  1.0000
  C   C19       1.0  0.345632862917597  0.12344348292401722  0.4097410405552111  1.0000
  C   C20       1.0  0.37891674239486406  0.3767267362006805  0.08987363404050093  1.0000
  C   C21       1.0  0.621069133382669  0.6232771140562647  0.9101267448009408  1.0000
  C   C22       1.0  0.6543694780401377  0.8765548220957344  0.5902613763978621  1.0000
  C   C23       1.0  0.2553479311179812  0.6236689990527894  0.5897264137945868  1.0000
  C   C24       1.0  0.9690813472050192  0.8764494857596148  0.9098153610026927  1.0000
  N   N1        1.0  0.41086313222700693  0.9867592611320433  0.10924287366934489  1.0000
  N   N2        1.0  0.0058433375854533565  0.5139317625245923  0.39104189332799416  1.0000
  N   N3        1.0  0.10238553449762103  0.9866114291283241  0.39077826462238363  1.0000
  N   N4        1.0  0.9800212065782431  0.5141086503042446  0.1089358441478652  1.0000
  N   N5        1.0  0.019972627116970832  0.4859007438718025  0.8910616938896467  1.0000
  N   N6        1.0  0.897634418515011  0.013380221738209701  0.6092271662623503  1.0000
  N   N7        1.0  0.9941496053485319  0.48607541369494095  0.6089482454394499  1.0000
  N   N8        1.0  0.5891238910969885  0.0132423714873084  0.8907637246079645  1.0000
  Cl  Cl1       1.0  0.5916459223223498  0.7500622432670525  0.3154376788701612  1.0000
  Cl  Cl2       1.0  0.15808618181259948  0.7501088162017028  0.18456849105085382  1.0000
  Cl  Cl3       1.0  0.4083567911943361  0.24994271498208318  0.6845626260520561  1.0000
  Cl  Cl4       1.0  0.8419129441637236  0.2499005777745111  0.8154316101893855  1.0000
