data_image0
_chemical_formula_structural       Zn2H36C56N16O4
_chemical_formula_sum              "Zn2 H36 C56 N16 O4"
_cell_length_a       6.032454888941387
_cell_length_b       7.485505713221175
_cell_length_c       26.17239755441795
_cell_angle_alpha    90.00048127801854
_cell_angle_beta     96.44346473957268
_cell_angle_gamma    89.99975684214897

_space_group_name_H-M_alt    "P 1"
_space_group_IT_number       1

loop_
  _space_group_symop_operation_xyz
  'x, y, z'

loop_
  _atom_site_type_symbol
  _atom_site_label
  _atom_site_symmetry_multiplicity
  _atom_site_fract_x
  _atom_site_fract_y
  _atom_site_fract_z
  _atom_site_occupancy
  Zn  Zn1       1.0  0.5000054577362434  0.499994604215246  4.791466423963511e-07  1.0000
  Zn  Zn2       1.0  0.9999997100172988  3.914633374799999e-06  0.5000000108638075  1.0000
  H   H1        1.0  0.03150223912803799  0.6291086388397248  0.953890794977539  1.0000
  H   H2        1.0  0.46849761113329436  0.1291094153687737  0.5461082382236951  1.0000
  H   H3        1.0  0.9684989112720074  0.3708870808907534  0.04611123695965348  1.0000
  H   H4        1.0  0.5314967903480651  0.8708929839534394  0.4538898053471883  1.0000
  H   H5        1.0  0.8321031390699005  0.7200362947560919  0.8690788049660652  1.0000
  H   H6        1.0  0.6679084997068329  0.22004321073557523  0.6309191149990097  1.0000
  H   H7        1.0  0.16790800544331563  0.27995942492558623  0.13092271087273838  1.0000
  H   H8        1.0  0.332089207829739  0.7799712118013605  0.36907748231618587  1.0000
  H   H9        1.0  0.017465850239950998  0.6726108123540798  0.78952599187145  1.0000
  H   H10       1.0  0.48254762981036947  0.17262607859629506  0.7104747079053338  1.0000
  H   H11       1.0  0.9825453246996076  0.3273862432484123  0.21047705306896347  1.0000
  H   H12       1.0  0.5174567658162486  0.8273870079977926  0.28952281959031007  1.0000
  H   H13       1.0  0.5777860853862008  0.45087337179374753  0.885929935677268  1.0000
  H   H14       1.0  0.9222119860928897  0.9508890357067656  0.6140716698179317  1.0000
  H   H15       1.0  0.42220671629661405  0.5491196761434057  0.11407150693698037  1.0000
  H   H16       1.0  0.07778415207548758  0.04911870728101061  0.3859298556451377  1.0000
  H   H17       1.0  0.009533934288476995  0.4365865172338845  0.73776268237453  1.0000
  H   H18       1.0  0.49046772388992815  0.9365933279896766  0.7622357714658321  1.0000
  H   H19       1.0  0.9904705829633185  0.5634051947417549  0.26224096146968623  1.0000
  H   H20       1.0  0.5095400386084918  0.0634224304249997  0.23776336795130246  1.0000
  H   H21       1.0  0.6548993137952406  0.6560502126414322  0.7160785160535638  1.0000
  H   H22       1.0  0.8451069514120844  0.15606332281061702  0.7839197670599914  1.0000
  H   H23       1.0  0.345098340454129  0.34394817890445495  0.28391540530414966  1.0000
  H   H24       1.0  0.15489751262468587  0.8439364046455115  0.21608120087883254  1.0000
  H   H25       1.0  0.527834544623019  0.7058747434156916  0.6240109445015419  1.0000
  H   H26       1.0  0.9721603725348869  0.20587267504102164  0.8759887936591111  1.0000
  H   H27       1.0  0.4721314590300025  0.2941116250484939  0.37598448371679877  1.0000
  H   H28       1.0  0.027839094405194904  0.794113693288658  0.12401243229997048  1.0000
  H   H29       1.0  0.1481379434440981  0.6108594220939524  0.5876366525719945  1.0000
  H   H30       1.0  0.3518518183286545  0.1108507447266476  0.9123635822005908  1.0000
  H   H31       1.0  0.851819810372305  0.38912694642569795  0.41236315590003153  1.0000
  H   H32       1.0  0.6481492940234188  0.8891382954212476  0.08763653834873247  1.0000
  H   H33       1.0  0.8877629159897678  0.47981359475107144  0.6449501174299  1.0000
  H   H34       1.0  0.6122353063477135  0.9798072950712541  0.8550504665632273  1.0000
  H   H35       1.0  0.11220327783090767  0.5201821251545058  0.3550548676756903  1.0000
  H   H36       1.0  0.3877791290095373  0.0202004478222904  0.1449488384705333  1.0000
  C   C1        1.0  0.2340067580153686  0.8154483020990216  0.03931570424483509  1.0000
  C   C2        1.0  0.2660023610677271  0.31545950303680576  0.4606856970900707  1.0000
  C   C3        1.0  0.766009406335101  0.1845353943267938  0.9606867003427694  1.0000
  C   C4        1.0  0.7339970983309313  0.6845482399328023  0.5393151466406252  1.0000
  C   C5        1.0  0.26726383138324644  0.11988120134503084  0.027477046329515493  1.0000
  C   C6        1.0  0.2327457057830955  0.6198907056425966  0.47251972646336776  1.0000
  C   C7        1.0  0.7327538871001805  0.8801011591365582  0.9725196655434942  1.0000
  C   C8        1.0  0.7672420760745096  0.3801183732956802  0.5274808274107627  1.0000
  C   C9        1.0  0.10776666423866738  0.6116397200161074  0.918494499588803  1.0000
  C   C10       1.0  0.3922381010011975  0.1116334673820276  0.581505346696396  1.0000
  C   C11       1.0  0.8922444574979025  0.3883693588121204  0.08150586945489378  1.0000
  C   C12       1.0  0.6077546398650284  0.8883689319492661  0.4184930377406743  1.0000
  C   C13       1.0  0.9970242854947031  0.6600115290272726  0.8710448899871038  1.0000
  C   C14       1.0  0.5029837173424098  0.16002264696395946  0.6289557453391978  1.0000
  C   C15       1.0  0.0029852060089580993  0.33998419066492863  0.1289573489925644  1.0000
  C   C16       1.0  0.49701402822608287  0.8399931114952183  0.3710427633522854  1.0000
  C   C17       1.0  0.0997438626184888  0.6314870958025837  0.8267583176240547  1.0000
  C   C18       1.0  0.40026432022152386  0.13149215972584474  0.6732397861084181  1.0000
  C   C19       1.0  0.9002606090439114  0.3685193112304006  0.17324303260391358  1.0000
  C   C20       1.0  0.5997384223795023  0.868515583218418  0.3267584645165158  1.0000
  C   C21       1.0  0.31021855540221566  0.5501248906515955  0.8312550486874599  1.0000
  C   C22       1.0  0.18978923027303543  0.050137235725621614  0.6687472898944689  1.0000
  C   C23       1.0  0.6897926043342011  0.44987483677819995  0.1687472317093821  1.0000
  C   C24       1.0  0.8102069002937637  0.9498718431758137  0.3312538532968146  1.0000
  C   C25       1.0  0.4118919279539596  0.5102114696447302  0.880816909172921  1.0000
  C   C26       1.0  0.0881205390816291  0.010216371221417804  0.6191811756912671  1.0000
  C   C27       1.0  0.5881241603928017  0.48978959366287006  0.11918167270550838  1.0000
  C   C28       1.0  0.9118872461934371  0.9897860280467016  0.38081911052097434  1.0000
  C   C29       1.0  0.4381515539068061  0.5082111222877117  0.7871939928611978  1.0000
  C   C30       1.0  0.061842573539564676  0.008226340308411302  0.7128047746903972  1.0000
  C   C31       1.0  0.5618578995769566  0.49178726922749416  0.21280633475085856  1.0000
  C   C32       1.0  0.9381518736434769  0.9917987695788356  0.2871955625777574  1.0000
  C   C33       1.0  0.342201867511271  0.5420754755104795  0.7330829421780081  1.0000
  C   C34       1.0  0.1578058318230191  0.0420915459169606  0.7669174501683925  1.0000
  C   C35       1.0  0.6578009282767069  0.45791490054771344  0.26691798433206765  1.0000
  C   C36       1.0  0.8421952805851943  0.9579161970421243  0.23308267042144584  1.0000
  C   C37       1.0  0.12404152215496107  0.4954609997048394  0.7130697053285358  1.0000
  C   C38       1.0  0.3759588516665957  0.9954650651982322  0.7869304912413781  1.0000
  C   C39       1.0  0.8759630255432284  0.5045387277670416  0.28693546763176403  1.0000
  C   C40       1.0  0.6240455743462688  0.004535998165820802  0.21306856532693527  1.0000
  C   C41       1.0  0.48748190465310864  0.6159814992613805  0.700290582346369  1.0000
  C   C42       1.0  0.0125245701320722  0.11599116716469382  0.799710088739829  1.0000
  C   C43       1.0  0.5125091071397064  0.38401822823594506  0.2997047024789765  1.0000
  C   C44       1.0  0.9874815621214167  0.8840072243686949  0.2002909206045942  1.0000
  C   C45       1.0  0.41641018883225206  0.642774746487774  0.648547754239608  1.0000
  C   C46       1.0  0.08358144798848599  0.14277078674387408  0.8514534247587873  1.0000
  C   C47       1.0  0.5835591360670945  0.35721696561856936  0.3514469922579408  1.0000
  C   C48       1.0  0.9164180493859602  0.8572195893367865  0.14854933030769493  1.0000
  C   C49       1.0  0.20138743027681738  0.5913175633942773  0.6284286049762073  1.0000
  C   C50       1.0  0.2986022065804405  0.09131174353184694  0.8715711628722216  1.0000
  C   C51       1.0  0.7985819706583113  0.40866746915096297  0.3715699642536662  1.0000
  C   C52       1.0  0.7014005664068321  0.9086839761823812  0.12842861682538845  1.0000
  C   C53       1.0  0.05598850320434679  0.5181088858462034  0.660692647081454  1.0000
  C   C54       1.0  0.4440073898513929  0.01810412775088111  0.8393081160860375  1.0000
  C   C55       1.0  0.943994365193923  0.4818788184908699  0.3393123698170442  1.0000
  C   C56       1.0  0.5559970437750722  0.981899607444767  0.16069132276274437  1.0000
  N   N1        1.0  0.31988909188095244  0.25839658358660966  0.011141545738979599  1.0000
  N   N2        1.0  0.18012796494291902  0.7584040345245598  0.4888567572838198  1.0000
  N   N3        1.0  0.6801354364219634  0.7415978001259023  0.98886221273829  1.0000
  N   N4        1.0  0.8198731246766184  0.24161305983582076  0.511142216502236  1.0000
  N   N5        1.0  0.2599656694004864  0.660280287773837  0.034186794792489594  1.0000
  N   N6        1.0  0.24004584696849207  0.16028909946757605  0.4658136348890451  1.0000
  N   N7        1.0  0.7400420854161637  0.3397100882527866  0.9658119622949923  1.0000
  N   N8        1.0  0.7599536276373298  0.8397173075898084  0.5341879733881213  1.0000
  N   N9        1.0  0.31506658102024687  0.5414524613370661  0.9234897816726004  1.0000
  N   N10       1.0  0.18494275995258389  0.041460135813714806  0.5765095025411638  1.0000
  N   N11       1.0  0.6849411433941198  0.45854459425925853  0.07650744633063059  1.0000
  N   N12       1.0  0.8150467053369113  0.9585489431197732  0.42349185729081995  1.0000
  N   N13       1.0  0.193354811899269  0.9800506349685637  0.048972151413494196  1.0000
  N   N14       1.0  0.3066418735260327  0.48005603726017654  0.45102580895422745  1.0000
  N   N15       1.0  0.806644571371379  0.019933061515196502  0.9510248695183208  1.0000
  N   N16       1.0  0.6933374759649595  0.5199543776142905  0.5489699505841585  1.0000
  O   O1        1.0  0.6313497057186055  0.4495128115075601  0.79534261120245  1.0000
  O   O2        1.0  0.8686482967593817  0.9495323446988594  0.704655930209718  1.0000
  O   O3        1.0  0.3686564037341639  0.5504909236818706  0.2046572513295146  1.0000
  O   O4        1.0  0.1313427911413925  0.0504847497088861  0.2953431774000421  1.0000
