data_image0
_chemical_formula_structural       Ni6H44C60N12O28
_chemical_formula_sum              "Ni6 H44 C60 N12 O28"
_cell_length_a       6.844687470461139
_cell_length_b       20.219530595245285
_cell_length_c       20.470911070704958
_cell_angle_alpha    117.3832209236948
_cell_angle_beta     89.99950579784864
_cell_angle_gamma    89.99914774142059

_space_group_name_H-M_alt    "P 1"
_space_group_IT_number       1

loop_
  _space_group_symop_operation_xyz
  'x, y, z'

loop_
  _atom_site_type_symbol
  _atom_site_label
  _atom_site_symmetry_multiplicity
  _atom_site_fract_x
  _atom_site_fract_y
  _atom_site_fract_z
  _atom_site_occupancy
  Ni  Ni1       1.0  0.5108989673424275  0.12985861480571972  0.42227191150991683  1.0000
  Ni  Ni2       1.0  0.5109137004181362  0.370133765218391  0.5777214595245326  1.0000
  Ni  Ni3       1.0  0.48910935691834806  0.8701363611003147  0.5777255729850239  1.0000
  Ni  Ni4       1.0  0.4890858578740306  0.6298628814862611  0.4222768055405768  1.0000
  Ni  Ni5       1.0  0.3957087963035448  0.250010755204734  6.639191823909159e-06  1.0000
  Ni  Ni6       1.0  0.6042790737171871  0.74999924946723  0.9999983549693143  1.0000
  H   H1        1.0  0.5099737953998583  0.4083167577060465  0.43763611569058725  1.0000
  H   H2        1.0  0.50996442566327  0.0916827799833015  0.5623659759165491  1.0000
  H   H3        1.0  0.4900257628923085  0.5916798889986056  0.562362149374529  1.0000
  H   H4        1.0  0.49003659357921947  0.9083149723753294  0.43763329423287445  1.0000
  H   H5        1.0  0.4471923669260247  0.39529154781185133  0.22312169896706283  1.0000
  H   H6        1.0  0.4471915459077707  0.10470903757414621  0.7768825233179798  1.0000
  H   H7        1.0  0.5528042694841416  0.6047017573795088  0.7768750050255236  1.0000
  H   H8        1.0  0.552822622154295  0.8952903609478042  0.2231189815142046  1.0000
  H   H9        1.0  0.47193094862404905  0.19375340936460364  0.24516419778961315  1.0000
  H   H10       1.0  0.4719263699207588  0.30624699750966766  0.7548384062665292  1.0000
  H   H11       1.0  0.5280729926513243  0.806241533832278  0.7548352256335349  1.0000
  H   H12       1.0  0.528068805370097  0.6937513281573972  0.24516015462580762  1.0000
  H   H13       1.0  0.1967545828428428  0.1361537381803331  0.5271684535078407  1.0000
  H   H14       1.0  0.1967810428796354  0.3638245292612936  0.4728182258962832  1.0000
  H   H15       1.0  0.8032464364605472  0.8638429412454516  0.47282787263875303  1.0000
  H   H16       1.0  0.8032243596039377  0.6361626252190506  0.5271770702684364  1.0000
  H   H17       1.0  0.824441379358859  0.1364782113312089  0.5271779708694951  1.0000
  H   H18       1.0  0.8244678534827798  0.3635060011034953  0.4728121732231544  1.0000
  H   H19       1.0  0.17555963993520857  0.8635190331972425  0.47281813072905277  1.0000
  H   H20       1.0  0.17553900980955459  0.6364878446032023  0.5271857603727241  1.0000
  H   H21       1.0  0.8240411254587413  0.12228103739481362  0.31869722004953627  1.0000
  H   H22       1.0  0.8240557979178431  0.3777265690508714  0.6813038543120629  1.0000
  H   H23       1.0  0.17596135474888536  0.8777184184475927  0.6813008917224791  1.0000
  H   H24       1.0  0.17594522121106587  0.6222750735721334  0.3186977218283644  1.0000
  H   H25       1.0  0.19771449615952005  0.12243054574229012  0.31880653816283205  1.0000
  H   H26       1.0  0.1977306389195022  0.37757498662157485  0.6811938532046683  1.0000
  H   H27       1.0  0.8022909061144574  0.8775655685628436  0.6811900125172771  1.0000
  H   H28       1.0  0.802271841181138  0.6224272129163142  0.31880798311127734  1.0000
  H   H29       1.0  0.08457952659713186  0.3419656819845899  0.10283180266685583  1.0000
  H   H30       1.0  0.08458500589208029  0.1580675113204464  0.8971818276583435  1.0000
  H   H31       1.0  0.9154171093252683  0.65804371663981  0.8971758396553612  1.0000
  H   H32       1.0  0.915394098079396  0.8419486767896629  0.10282263541699173  1.0000
  H   H33       1.0  0.7118704271282182  0.33977288327599103  0.1046244621589025  1.0000
  H   H34       1.0  0.711877318612572  0.16025778990800885  0.8953955189679377  1.0000
  H   H35       1.0  0.28812620864110267  0.6602409298065268  0.8953876852483659  1.0000
  H   H36       1.0  0.28810324628562967  0.8397583163782658  0.10461379138673986  1.0000
  H   H37       1.0  0.407199382612248  0.3551082518357589  0.9688753005262641  1.0000
  H   H38       1.0  0.4071954871269483  0.14490056511024113  0.031126528041738828  1.0000
  H   H39       1.0  0.5927972535241322  0.6448956593976761  0.03112489270807833  1.0000
  H   H40       1.0  0.5928099150757049  0.8550994967317608  0.9688689355304376  1.0000
  H   H41       1.0  0.4705600438262678  0.3971574486315462  0.05530607770619164  1.0000
  H   H42       1.0  0.4705491577617876  0.1028564992588059  0.9446930852226245  1.0000
  H   H43       1.0  0.529433670283268  0.6028492799454171  0.9446934775260092  1.0000
  H   H44       1.0  0.5294343295720266  0.8971480998580221  0.055299612580981344  1.0000
  C   C1        1.0  0.4865926953871948  0.49291614704434755  0.36713834505052034  1.0000
  C   C2        1.0  0.4865968609477845  0.0070813384716431  0.6328638303009413  1.0000
  C   C3        1.0  0.5134083239535129  0.5070782719707836  0.6328588792882713  1.0000
  C   C4        1.0  0.5134129241744247  0.992917511329196  0.36713692963699157  1.0000
  C   C5        1.0  0.482244095071671  0.41009274671395  0.3335554425658174  1.0000
  C   C6        1.0  0.4822423611854844  0.08990592109167042  0.6664453430904018  1.0000
  C   C7        1.0  0.5177540023283312  0.5899011399376448  0.6664400674170353  1.0000
  C   C8        1.0  0.5177659629095855  0.9100946076595945  0.33355571266506695  1.0000
  C   C9        1.0  0.49662040060836415  0.37468833315080735  0.37819114823356875  1.0000
  C   C10       1.0  0.4966095155911887  0.12530907829395233  0.6218104759397606  1.0000
  C   C11       1.0  0.5033806186983226  0.6253077729905314  0.6218058871894954  1.0000
  C   C12       1.0  0.5033929645862613  0.8746903366395318  0.37819005947434914  1.0000
  C   C13       1.0  0.46134510611875595  0.3675723947220107  0.2575618530930087  1.0000
  C   C14       1.0  0.4613410485876486  0.13242697702296624  0.7424407855300432  1.0000
  C   C15       1.0  0.5386544522315688  0.6324225975835633  0.7424346619741584  1.0000
  C   C16       1.0  0.5386687365038297  0.8675729866196421  0.2575604947686331  1.0000
  C   C17       1.0  0.506536896852232  0.2603700355739845  0.3962289933076307  1.0000
  C   C18       1.0  0.5065215361118474  0.23962676211171197  0.603770850752781  1.0000
  C   C19       1.0  0.49347142737178007  0.7396260459920188  0.6037694962764634  1.0000
  C   C20       1.0  0.49348094413308974  0.7603704333200414  0.39622815921143234  1.0000
  C   C21       1.0  0.49296856019494567  0.2967577366737474  0.3465794212554627  1.0000
  C   C22       1.0  0.4929564205867221  0.20323972111672362  0.6534212576826874  1.0000
  C   C23       1.0  0.507035381131999  0.7032366986929548  0.6534168336168025  1.0000
  C   C24       1.0  0.5070460596000571  0.7967591287141008  0.34657950227946815  1.0000
  C   C25       1.0  0.4740959642304786  0.25434839102938167  0.2700944200693415  1.0000
  C   C26       1.0  0.4740902590627342  0.24565085969035033  0.7299091034575582  1.0000
  C   C27       1.0  0.5259050550762012  0.7456477151119502  0.7299026153537156  1.0000
  C   C28       1.0  0.5259092991438407  0.7543479819706818  0.27009214124270636  1.0000
  C   C29       1.0  0.45657269246884613  0.2897325398267869  0.22549615245157648  1.0000
  C   C30       1.0  0.4565688336075269  0.21026745255909426  0.7745053238146157  1.0000
  C   C31       1.0  0.54342686590617  0.7102613304552392  0.7745003269832651  1.0000
  C   C32       1.0  0.5434365685287331  0.7897325192832839  0.22549547177017362  1.0000
  C   C33       1.0  0.4315158384870301  0.24589987068294766  0.1435823581431279  1.0000
  C   C34       1.0  0.43152259639215623  0.2541019653799736  0.8564220037093975  1.0000
  C   C35       1.0  0.5684822589135193  0.7540928612179628  0.8564150551210761  1.0000
  C   C36       1.0  0.5684857276902945  0.745899701758404  0.14357811822154792  1.0000
  C   C37       1.0  0.11234232226401988  0.1334450943594661  0.4809169145127328  1.0000
  C   C38       1.0  0.11237332352359888  0.36653882917875086  0.5190755746575917  1.0000
  C   C39       1.0  0.887654314038613  0.8665521092780538  0.5190816107424397  1.0000
  C   C40       1.0  0.8876335398548817  0.633451666820875  0.4809212825844967  1.0000
  C   C41       1.0  0.9091924362666784  0.13351554133432592  0.4809032762068669  1.0000
  C   C42       1.0  0.9092146741468167  0.36647464210565783  0.519090397486906  1.0000
  C   C43       1.0  0.09080858299062557  0.8664828088541016  0.5190938304808342  1.0000
  C   C44       1.0  0.09079072815843149  0.6335192036070368  0.4809075361138185  1.0000
  C   C45       1.0  0.9091984766146693  0.12552402486038267  0.3650498713871713  1.0000
  C   C46       1.0  0.9092159383929752  0.37447898409342883  0.6349488169740313  1.0000
  C   C47       1.0  0.09080546459211547  0.8744754473395917  0.6349472709231563  1.0000
  C   C48       1.0  0.09078800277156059  0.6255204308340581  0.36505171843523243  1.0000
  C   C49       1.0  0.11252806173781947  0.1255423402942952  0.36509227483698237  1.0000
  C   C50       1.0  0.11254990846580168  0.374456086245047  0.6349055236362915  1.0000
  C   C51       1.0  0.8874714965329529  0.874454855149452  0.6349067351369159  1.0000
  C   C52       1.0  0.8874540327601891  0.6255411009989232  0.3650939710514934  1.0000
  C   C53       1.0  0.9991749799340468  0.3010957418152671  0.05725954979610748  1.0000
  C   C54       1.0  0.999176064736751  0.19893428465674393  0.942756882963259  1.0000
  C   C55       1.0  0.0008201949184111997  0.6989164332377484  0.9427498781612158  1.0000
  C   C56       1.0  0.0008074222519453999  0.8010785128193948  0.05724892738584237  1.0000
  C   C57       1.0  0.7961752170351204  0.30044825609256526  0.057592948051976144  1.0000
  C   C58       1.0  0.7961835872540489  0.19958453419931035  0.9424263207118244  1.0000
  C   C59       1.0  0.20381411384759926  0.6995644677235335  0.9424172248335198  1.0000
  C   C60       1.0  0.20380428255818825  0.8004321207960814  0.057583734527419425  1.0000
  N   N1        1.0  0.21405704765759026  0.13034133881127022  0.42337625818259994  1.0000
  N   N2        1.0  0.21408643972493016  0.369651798905359  0.5766187855241826  1.0000
  N   N3        1.0  0.7859410496348713  0.8696564462864843  0.5766210730628387  1.0000
  N   N4        1.0  0.7859175015871998  0.6303420386315467  0.42337963280980523  1.0000
  N   N5        1.0  0.8076487956372416  0.13037513395730832  0.4233228193389351  1.0000
  N   N6        1.0  0.8076664997348784  0.369623098472367  0.5766763642956221  1.0000
  N   N7        1.0  0.1923522235498253  0.8696248542666256  0.5766770068035427  1.0000
  N   N8        1.0  0.19234036343456035  0.6303752026013713  0.4233236507432068  1.0000
  N   N9        1.0  0.09973472741078378  0.2500159093463879  7.018201515108725e-06  1.0000
  N   N10       1.0  0.9002528097528566  0.7499956460652158  0.9999988139684676  1.0000
  N   N11       1.0  0.694506953058493  0.2500117074198727  9.597530521393422e-06  1.0000
  N   N12       1.0  0.30548350602499835  0.7499997743436854  5.971855473277282e-07  1.0000
  O   O1        1.0  0.48883795853124906  0.531736738354951  0.4370930358964247  1.0000
  O   O2        1.0  0.48885467667282256  0.968263620136156  0.5629098646563689  1.0000
  O   O3        1.0  0.5111615998064564  0.4682593923377353  0.5629025453462262  1.0000
  O   O4        1.0  0.5111580303988674  0.031736351676237  0.4370909309041906  1.0000
  O   O5        1.0  0.4873478496968602  0.5254554191954883  0.32603591951812677  1.0000
  O   O6        1.0  0.48735560602474237  0.9745410367545805  0.6739661391404256  1.0000
  O   O7        1.0  0.5126473256587402  0.47454010550360703  0.6739623099292019  1.0000
  O   O8        1.0  0.5126527181164207  0.0254578212340419  0.3260341360739361  1.0000
  O   O9        1.0  0.5084950998522615  0.18903156082613043  0.3649776695865441  1.0000
  O   O10       1.0  0.5085328352631322  0.3109586111527634  0.6350146765916165  1.0000
  O   O11       1.0  0.4914986146232394  0.8109612201834793  0.635016835321686  1.0000
  O   O12       1.0  0.49147402794910267  0.6890385924427846  0.3649838486296417  1.0000
  O   O13       1.0  0.5147502488209027  0.30210771345771553  0.4646557153912384  1.0000
  O   O14       1.0  0.5146683178080806  0.19788014725480715  0.5353374878943384  1.0000
  O   O15       1.0  0.485272685390285  0.6978850592501828  0.5353392741485266  1.0000
  O   O16       1.0  0.48532685751953136  0.8021170727522816  0.464660067908838  1.0000
  O   O17       1.0  0.39961037393646137  0.28554291804532284  0.11021470568057624  1.0000
  O   O18       1.0  0.399622371853404  0.2144619563222677  0.889791653368775  1.0000
  O   O19       1.0  0.6003687305063179  0.7144536878343574  0.8897859830944486  1.0000
  O   O20       1.0  0.6003713422632657  0.785542470935127  0.11021122369771774  1.0000
  O   O21       1.0  0.44313551459352846  0.1755897842543064  0.1132892624469761  1.0000
  O   O22       1.0  0.44314284188939  0.32441257061678647  0.8867118894281918  1.0000
  O   O23       1.0  0.5568786535782734  0.8244074520383934  0.8867073238363901  1.0000
  O   O24       1.0  0.5568654822117125  0.6755879663162574  0.11328868159885991  1.0000
  O   O25       1.0  0.37501119992788995  0.36287037310069087  0.02160109102326401  1.0000
  O   O26       1.0  0.37500819566901805  0.13714540748009094  0.9784031037081746  1.0000
  O   O27       1.0  0.6249781312269743  0.6371352089253648  0.9783998827764081  1.0000
  O   O28       1.0  0.6249855184833137  0.8628602236186824  0.0215949617064554  1.0000
