data_image0
_chemical_formula_structural       Zr6H20C52S20O66
_chemical_formula_sum              "Zr6 H20 C52 S20 O66"
_cell_length_a       16.451456269121188
_cell_length_b       16.48610689459569
_cell_length_c       16.584353849124668
_cell_angle_alpha    61.53399681487128
_cell_angle_beta     59.8447400425734
_cell_angle_gamma    60.349838499948014

_space_group_name_H-M_alt    "P 1"
_space_group_IT_number       1

loop_
  _space_group_symop_operation_xyz
  'x, y, z'

loop_
  _atom_site_type_symbol
  _atom_site_label
  _atom_site_symmetry_multiplicity
  _atom_site_fract_x
  _atom_site_fract_y
  _atom_site_fract_z
  _atom_site_occupancy
  Zr  Zr1       1.0  0.8882112151189862  0.8994457889472969  0.601589020924109  1.0000
  Zr  Zr2       1.0  0.11061692432903672  0.10497172293552379  0.3958525848383232  1.0000
  Zr  Zr3       1.0  0.104015720197282  0.895909831725305  0.6041235124029285  1.0000
  Zr  Zr4       1.0  0.8968216263736936  0.10632039516436732  0.39116220618552683  1.0000
  Zr  Zr5       1.0  0.10851417235246452  0.8934192760277565  0.3909622842186024  1.0000
  Zr  Zr6       1.0  0.8912213036044535  0.11038675376831004  0.6052158560821467  1.0000
  H   H1        1.0  0.08088286949356441  0.7527718444610159  0.5778100864915742  1.0000
  H   H2        1.0  0.09050074746522803  0.07934419089845333  0.24939462382526756  1.0000
  H   H3        1.0  0.08241775077986803  0.08434186593397901  0.5866812377270918  1.0000
  H   H4        1.0  0.745707694785047  0.09021247894155232  0.5792168427777183  1.0000
  H   H5        1.0  0.838008061885418  0.6595594935827978  0.8564926872282398  1.0000
  H   H6        1.0  0.14635776943862325  0.35893867087424514  0.15525976599302987  1.0000
  H   H7        1.0  0.8654864111697835  0.24291191645316715  0.7416642760583086  1.0000
  H   H8        1.0  0.18766082012234628  0.674961365259513  0.3822314438561421  1.0000
  H   H9        1.0  0.2543109028817981  0.8853826193742479  0.17154976424806284  1.0000
  H   H10       1.0  0.6278715983943642  0.2897853041526234  0.7591283870092908  1.0000
  H   H11       1.0  0.19488481651422535  0.8779986592080035  0.7476568370083924  1.0000
  H   H12       1.0  0.9008477069368656  0.28737602360251907  0.059405619719647924  1.0000
  H   H13       1.0  0.2491676785965638  0.5635374185538707  0.7843110925994522  1.0000
  H   H14       1.0  0.680167024413713  0.2544759495660216  0.36943506853828717  1.0000
  H   H15       1.0  0.3156990301517838  0.3020764754253804  0.35681856613103946  1.0000
  H   H16       1.0  0.5264336348219277  0.8617660206206281  0.7974301139863015  1.0000
  H   H17       1.0  0.17668747913672436  0.5660164691568853  0.9531121678452974  1.0000
  H   H18       1.0  0.1192316628648486  0.6902353467971308  0.8025217909737562  1.0000
  H   H19       1.0  0.8031699972959602  0.45692469440303557  0.06297360240070296  1.0000
  H   H20       1.0  0.8893322464202175  0.3042134168267123  0.18546580562412623  1.0000
  C   C1        1.0  0.9998349574813267  0.7321054510123871  0.4879883153803489  1.0000
  C   C2        1.0  0.2812310516127997  0.9905181272532319  0.22993199145916068  1.0000
  C   C3        1.0  0.9891556969983387  0.2737789395211434  0.5083970435608761  1.0000
  C   C4        1.0  0.7272019639356558  0.013538014985911754  0.7684389916595504  1.0000
  C   C5        1.0  0.9835010743339728  0.7370007953959146  0.7652249908553725  1.0000
  C   C6        1.0  0.7308162980325723  0.9984051392603775  0.4948129544138381  1.0000
  C   C7        1.0  0.015025261124534953  0.2675371642471234  0.23242304775206424  1.0000
  C   C8        1.0  0.27444504524157076  0.9996619847553133  0.4963761938263144  1.0000
  C   C9        1.0  0.2733557550546807  0.7320574803040074  0.4977928219791678  1.0000
  C   C10       1.0  0.9993126743556007  0.9939418945240776  0.7775526335730519  1.0000
  C   C11       1.0  0.730685722749371  0.28113203495597366  0.4858950266848152  1.0000
  C   C12       1.0  0.9997958533695485  0.9984351566108529  0.2284521875794425  1.0000
  C   C13       1.0  0.9190618986236176  0.4214182682489351  0.5708785330491677  1.0000
  C   C14       1.0  0.06311556924833198  0.5851159285709429  0.42709161633715104  1.0000
  C   C15       1.0  0.9845622342470437  0.365656980879379  0.506473632279139  1.0000
  C   C16       1.0  0.9979811821092286  0.643029560834556  0.48963446137977207  1.0000
  C   C17       1.0  0.03285338945817542  0.5058824339442012  0.4561780877418896  1.0000
  C   C18       1.0  0.9467248661082698  0.5031828136330461  0.541403902419347  1.0000
  C   C19       1.0  0.42455374546069935  0.9311438415176098  0.0817079089461928  1.0000
  C   C20       1.0  0.5867855072961989  0.07661397675742178  0.9164479991224962  1.0000
  C   C21       1.0  0.3699602335386776  0.992921127313593  0.1403281331184445  1.0000
  C   C22       1.0  0.641048044540213  0.012816362498370005  0.8599861317374715  1.0000
  C   C23       1.0  0.5076873849723215  0.04618002785816345  0.9989590246302382  1.0000
  C   C24       1.0  0.5039479482894437  0.961201367285895  0.001478906332231282  1.0000
  C   C25       1.0  0.06308427076199803  0.9242499857674886  0.9212394878439124  1.0000
  C   C26       1.0  0.9288887532704495  0.06600326250565296  0.09019178680711797  1.0000
  C   C27       1.0  0.9980980541676134  0.9899077362225766  0.8689682952542268  1.0000
  C   C28       1.0  0.9943817308033762  0.9991963639764025  0.14205356798807134  1.0000
  C   C29       1.0  0.952641568504042  0.036341284265276344  0.011240238715778613  1.0000
  C   C30       1.0  0.036559378074564206  0.9505346235713926  0.003080258876295431  1.0000
  C   C31       1.0  0.41553131068909743  0.5914603617998963  0.5641445525772112  1.0000
  C   C32       1.0  0.5913456511244495  0.42599325623056933  0.41833690974620896  1.0000
  C   C33       1.0  0.3644763893349605  0.6453278068426656  0.4977502502293518  1.0000
  C   C34       1.0  0.6438314465489653  0.3721778481863396  0.48316596558643  1.0000
  C   C35       1.0  0.5097296716037009  0.5072011017999927  0.4463896646348501  1.0000
  C   C36       1.0  0.5002808163228708  0.5130760983125741  0.5329639981231152  1.0000
  C   C37       1.0  0.05383536254873903  0.5947788842040183  0.889543306242018  1.0000
  C   C38       1.0  0.8969580445490313  0.6166662799098858  0.8875893529846122  1.0000
  C   C39       1.0  0.8891605074526442  0.5335214639561626  0.966549979497401  1.0000
  C   C40       1.0  0.9653804250188289  0.4782779669670205  0.010138579023731581  1.0000
  C   C41       1.0  0.9619384471984205  0.3923161973742351  0.0907292421939444  1.0000
  C   C42       1.0  0.09902397433145184  0.3902884802146715  0.11252789607198813  1.0000
  C   C43       1.0  0.11057675921500743  0.4696355122254231  0.029786135772575068  1.0000
  C   C44       1.0  0.04558722462591907  0.5136322989259838  0.9749444642486578  1.0000
  C   C45       1.0  0.9793235422736758  0.6474240718149743  0.8479545497530906  1.0000
  C   C46       1.0  0.02568141855029188  0.35054031776877537  0.14311540948348517  1.0000
  C   C47       1.0  0.41940459282756865  0.06418863369506062  0.42674140178981895  1.0000
  C   C48       1.0  0.5898214429280842  0.9300328772974495  0.5603388369178218  1.0000
  C   C49       1.0  0.3660543216282411  0.9993485961886247  0.4918112819143233  1.0000
  C   C50       1.0  0.6435788160438138  0.9944253233811294  0.4948982205870037  1.0000
  C   C51       1.0  0.5087011164384525  0.9547725689805799  0.5343702692673202  1.0000
  C   C52       1.0  0.5022005226023439  0.03777268111069522  0.4510174842308316  1.0000
  S   S1        1.0  0.07876430565647048  0.4107803863308633  0.4118387853920423  1.0000
  S   S2        1.0  0.9019696720712748  0.599125458933379  0.584439337225781  1.0000
  S   S3        1.0  0.415018645338698  0.08776512388742928  0.09632947720356796  1.0000
  S   S4        1.0  0.5965832181692439  0.9179972126384967  0.9053822620626021  1.0000
  S   S5        1.0  0.9045099897336333  0.08224551650344128  0.9210957303484616  1.0000
  S   S6        1.0  0.08395132863559962  0.9032323391059549  0.0939348099797357  1.0000
  S   S7        1.0  0.41824871899348204  0.5994934793359619  0.40040145898457513  1.0000
  S   S8        1.0  0.5934878656338045  0.42165997825419754  0.5771773826580214  1.0000
  S   S9        1.0  0.4158392374137993  0.9076776044870909  0.5812052900125336  1.0000
  S   S10       1.0  0.5961592731270431  0.0837988611302124  0.40317387907009555  1.0000
  S   S11       1.0  0.816386154457732  0.3987430774433988  0.6803714268370695  1.0000
  S   S12       1.0  0.17277271278077688  0.5976928593102002  0.3234259305625073  1.0000
  S   S13       1.0  0.40615760643866133  0.8272859378342261  0.09478398451973641  1.0000
  S   S14       1.0  0.6054981075686855  0.18204021451126817  0.8999357352480926  1.0000
  S   S15       1.0  0.16793800915147747  0.818756870724364  0.8988636367559621  1.0000
  S   S16       1.0  0.8343034428605878  0.1831940920368566  0.09610699083946635  1.0000
  S   S17       1.0  0.3866594216891885  0.5947102312218319  0.6822941320220721  1.0000
  S   S18       1.0  0.6135233105366428  0.4057523552082787  0.3120851359738452  1.0000
  S   S19       1.0  0.40069809736737494  0.1670892966184496  0.32281824073518806  1.0000
  S   S20       1.0  0.6094882976015442  0.8263631910242781  0.6633706769613352  1.0000
  O   O1        1.0  0.928418020075036  0.7729087278989651  0.5521933621001264  1.0000
  O   O2        1.0  0.24737350683877687  0.05474567062636035  0.27082144455032153  1.0000
  O   O3        1.0  0.05904335269088534  0.23897305016404863  0.4389580897253821  1.0000
  O   O4        1.0  0.7607464777398368  0.9438223054396745  0.7340992523223732  1.0000
  O   O5        1.0  0.05379734573875819  0.7709743235133714  0.7349997721329371  1.0000
  O   O6        1.0  0.766838464036198  0.0654554040992891  0.42608324558911176  1.0000
  O   O7        1.0  0.9413715941440163  0.23687703391763648  0.26601659873327327  1.0000
  O   O8        1.0  0.2395899500726134  0.9313534366437891  0.5639923317123204  1.0000
  O   O9        1.0  0.24164628391256604  0.7651382147880096  0.4274347982516744  1.0000
  O   O10       1.0  0.9312598148742454  0.06300462748762928  0.7437723999437792  1.0000
  O   O11       1.0  0.76513332974006  0.2486377300694257  0.5531799695930173  1.0000
  O   O12       1.0  0.06909559263232294  0.928323271026457  0.2613227817214039  1.0000
  O   O13       1.0  0.07105526826143216  0.9278354920120009  0.735921051678872  1.0000
  O   O14       1.0  0.7652839000482179  0.23873623402778307  0.4208407367323871  1.0000
  O   O15       1.0  0.9354045885285701  0.06849223899011021  0.2646663147108868  1.0000
  O   O16       1.0  0.23124352052250427  0.7681937366831094  0.5678738611530818  1.0000
  O   O17       1.0  0.917042968373956  0.7776683507489608  0.7265099341351016  1.0000
  O   O18       1.0  0.23555197698721037  0.06942480119631972  0.4330935423942605  1.0000
  O   O19       1.0  0.07927046466287639  0.22913782237058905  0.27331225171609924  1.0000
  O   O20       1.0  0.7629754862602953  0.9353054007343146  0.5647772015394066  1.0000
  O   O21       1.0  0.7612895790936349  0.08385454465862112  0.7294626508300508  1.0000
  O   O22       1.0  0.07446044126852083  0.7625042995716739  0.4227406235189831  1.0000
  O   O23       1.0  0.24195679042409085  0.9248794591419763  0.2605608527805501  1.0000
  O   O24       1.0  0.9240960544357083  0.23453723587761738  0.5801689326999763  1.0000
  O   O25       1.0  0.8180834563508629  0.0658178154001448  0.5555389234554866  1.0000
  O   O26       1.0  0.058684169236812564  0.06050782326675377  0.5619927874843638  1.0000
  O   O27       1.0  0.06549818717306266  0.05730168677145287  0.32035049778293967  1.0000
  O   O28       1.0  0.05685114811716158  0.8237801656625406  0.5551822157349376  1.0000
  O   O29       1.0  0.13491397772038027  0.954846940678202  0.4547661975621509  1.0000
  O   O30       1.0  0.9564858447136833  0.9570729987434418  0.4515104150839732  1.0000
  O   O31       1.0  0.9572081724915479  0.13290212326202067  0.45593524034723726  1.0000
  O   O32       1.0  0.9522809133084142  0.9605970110840757  0.6297655509571739  1.0000
  O   O33       1.0  0.8690282253444439  0.2973934294761093  0.7479839899795165  1.0000
  O   O34       1.0  0.7477226597357289  0.3848062854940295  0.6625912322711754  1.0000
  O   O35       1.0  0.7846291900537071  0.4722505258436629  0.722771674185253  1.0000
  O   O36       1.0  0.23174637083307215  0.6129642312865113  0.3637850528976897  1.0000
  O   O37       1.0  0.14470810752263932  0.6832503840646923  0.24666394708128794  1.0000
  O   O38       1.0  0.22919037819330873  0.502847137062922  0.30836228847264374  1.0000
  O   O39       1.0  0.2915045915992353  0.8679636235258315  0.10914646500688015  1.0000
  O   O40       1.0  0.4245254888665218  0.7508489602977163  0.1808152440927841  1.0000
  O   O41       1.0  0.46033994290662184  0.81148892870808  0.000349507288540036  1.0000
  O   O42       1.0  0.5786955382395153  0.25558147522758645  0.8030577050147583  1.0000
  O   O43       1.0  0.7079755464072052  0.16376222268109336  0.8793021247416843  1.0000
  O   O44       1.0  0.5274226654593905  0.21584577212536246  0.9817566433107456  1.0000
  O   O45       1.0  0.23312502668902405  0.8593598884351791  0.7885413609837925  1.0000
  O   O46       1.0  0.1335534346072083  0.7487304718164509  0.9079290596439618  1.0000
  O   O47       1.0  0.2232683835027985  0.7936742063207944  0.956889017524915  1.0000
  O   O48       1.0  0.9019364499322792  0.250798796251658  0.024359447921895712  1.0000
  O   O49       1.0  0.7866753730985823  0.1957853601258464  0.19135479278872933  1.0000
  O   O50       1.0  0.776206637427535  0.19720375575857932  0.04573907842289057  1.0000
  O   O51       1.0  0.3190160956013275  0.5269584182420175  0.7475032787423215  1.0000
  O   O52       1.0  0.32994110491832634  0.6903395609157741  0.6947051666118111  1.0000
  O   O53       1.0  0.4802261882556496  0.5394765589048305  0.6985902249533353  1.0000
  O   O54       1.0  0.6193595701015869  0.29524980378588594  0.35104420669841824  1.0000
  O   O55       1.0  0.7084146331320587  0.4161325381242306  0.24174775623112046  1.0000
  O   O56       1.0  0.52439067533836  0.4639964140458516  0.28835082959312786  1.0000
  O   O57       1.0  0.29985941221690393  0.24490434662074284  0.37222241458132294  1.0000
  O   O58       1.0  0.38036467448297645  0.14391437108796626  0.2635444829707936  1.0000
  O   O59       1.0  0.48157879489608063  0.2029394461058659  0.2829356043730797  1.0000
  O   O60       1.0  0.5846367177576189  0.8758695653727742  0.7402663712408142  1.0000
  O   O61       1.0  0.7121771936980681  0.7661278486251601  0.6398870604466181  1.0000
  O   O62       1.0  0.5316838974481193  0.7873281041329603  0.7003156159261792  1.0000
  O   O63       1.0  0.18080590654422937  0.5045999340105353  0.007490681663703876  1.0000
  O   O64       1.0  0.13660207085535372  0.6214228769855978  0.8485096705584566  1.0000
  O   O65       1.0  0.806280197764295  0.5112046412579117  0.0015011586815346849  1.0000
  O   O66       1.0  0.8939624209586586  0.350999304231344  0.11708503649786914  1.0000
