data_image0
_chemical_formula_structural       Zn2H11C36I5N2O8F4
_chemical_formula_sum              "Zn2 H11 C36 I5 N2 O8 F4"
_cell_length_a       9.684779948662717
_cell_length_b       10.768724033565881
_cell_length_c       13.307906003791663
_cell_angle_alpha    93.9732064122064
_cell_angle_beta     66.44565891602626
_cell_angle_gamma    88.45886572147595

_space_group_name_H-M_alt    "P 1"
_space_group_IT_number       1

loop_
  _space_group_symop_operation_xyz
  'x, y, z'

loop_
  _atom_site_type_symbol
  _atom_site_label
  _atom_site_symmetry_multiplicity
  _atom_site_fract_x
  _atom_site_fract_y
  _atom_site_fract_z
  _atom_site_occupancy
  Zn  Zn1       1.0  0.6698868010839902  0.5069037129606214  0.45439806559993173  1.0000
  Zn  Zn2       1.0  0.34771437282361006  0.5223547083193623  0.5137853298122719  1.0000
  H   H1        1.0  0.14862293433725426  0.3089571340879757  0.8113344149315437  1.0000
  H   H2        1.0  0.9117045143587177  0.434763023668566  0.9232697899117068  1.0000
  H   H3        1.0  0.29300543743850943  0.9145869056664538  0.5470702099174999  1.0000
  H   H4        1.0  0.8353928277865492  0.20088239049629653  0.47795860922282424  1.0000
  H   H5        1.0  0.3260868883257261  0.14035240698807164  0.5153642600777459  1.0000
  H   H6        1.0  0.059234024149844806  0.40611659883776235  0.6038459132258537  1.0000
  H   H7        1.0  0.29895657132090053  0.7427932864245294  0.4264438872274851  1.0000
  H   H8        1.0  0.25737749590171427  0.8830564385722893  0.29912337662351257  1.0000
  H   H9        1.0  0.8213478765756292  0.3952705965443855  0.5678294722650249  1.0000
  H   H10       1.0  0.5521496034811618  0.46024645416152044  0.8076670022210164  1.0000
  H   H11       1.0  0.8166691574159161  0.5058205902168639  0.12156191250659984  1.0000
  C   C1        1.0  0.49636167181616736  0.7477016906213692  0.5434351100269623  1.0000
  C   C2        1.0  0.5927302984886823  0.44911493210197045  0.16063221478763978  1.0000
  C   C3        1.0  0.7317931105344542  0.8855293384355175  0.6083532928215829  1.0000
  C   C4        1.0  0.5627699269389056  0.48485064597787897  0.27948500894859035  1.0000
  C   C5        1.0  0.8682093563885969  0.9350744033060321  0.5923047387659179  1.0000
  C   C6        1.0  0.9069844715627937  0.04572372623749738  0.5396300762558679  1.0000
  C   C7        1.0  0.806603072449107  0.11202726190496999  0.5123109013639249  1.0000
  C   C8        1.0  0.6637620923927302  0.06565379992117928  0.5285871889975978  1.0000
  C   C9        1.0  0.6322921142225937  0.9428795406486682  0.5667437714180322  1.0000
  C   C10       1.0  0.5026192067667878  0.8861207811040541  0.5620338113638039  1.0000
  C   C11       1.0  0.39301893808499244  0.9585595871579426  0.5471097225463166  1.0000
  C   C12       1.0  0.5355710883019852  0.3867693536577617  0.9996780613968425  1.0000
  C   C13       1.0  0.41363949479638507  0.08378182212516798  0.5256333869106838  1.0000
  C   C14       1.0  0.5493030395956282  0.13625420175510777  0.5093904521995538  1.0000
  C   C15       1.0  0.20740246189262018  0.7299962114809588  0.3999636564845233  1.0000
  C   C16       1.0  0.5616273882047479  0.2691152349003474  0.47871902426201274  1.0000
  C   C17       1.0  0.18419294870270872  0.8068052752199361  0.32918454970778294  1.0000
  C   C18       1.0  0.0675057660608473  0.7870060600241118  0.29206867584665724  1.0000
  C   C19       1.0  0.9715770323366968  0.6924377663841879  0.3310909790672269  1.0000
  C   C20       1.0  0.9847277790564987  0.6166212679081154  0.41042509023358775  1.0000
  C   C21       1.0  0.11044710999303226  0.6326574306663842  0.44027768855394794  1.0000
  C   C22       1.0  0.0365602051242746  0.46846387832563613  0.5503593354189532  1.0000
  C   C23       1.0  0.48941227631511447  0.4020287920796974  0.11657626334324078  1.0000
  C   C24       1.0  0.9065509360714262  0.46049506021678593  0.5282576849769426  1.0000
  C   C25       1.0  0.37755530204028537  0.45355495465102524  0.6958876086929278  1.0000
  C   C26       1.0  0.18993690504047578  0.2891836996727831  0.9572396542310598  1.0000
  C   C27       1.0  0.3471570852397932  0.4007592076079759  0.8035220296533153  1.0000
  C   C28       1.0  0.7392614988447759  0.468693461905417  0.08770946476322906  1.0000
  C   C29       1.0  0.7921319423143488  0.4320834144991962  0.9753235460643236  1.0000
  C   C30       1.0  0.6921695302756916  0.38733735173131817  0.9327929278906734  1.0000
  C   C31       1.0  0.42322580947585203  0.3695232133919219  0.9541482434404284  1.0000
  C   C32       1.0  0.2799445955683879  0.32174500701215447  0.017386686824551096  1.0000
  C   C33       1.0  0.24271701693207598  0.3192388385112039  0.13340280779929256  1.0000
  C   C34       1.0  0.342130761332875  0.359660913807943  0.17784787474109007  1.0000
  C   C35       1.0  0.4507275912207189  0.4120225354323138  0.8506737547225426  1.0000
  C   C36       1.0  0.22025822198740036  0.3316159662859803  0.8548802020347706  1.0000
  I   I1        1.0  0.6666068194718519  0.7459804946226426  0.718314545359206  1.0000
  I   I2        1.0  0.04402168759605731  0.9030366429972146  0.17947587495900305  1.0000
  I   I3        1.0  0.02540840126145129  0.289479525115965  0.2492461266733486  1.0000
  I   I4        1.0  0.024170215671780723  0.15406053419758337  0.9975302686478569  1.0000
  I   I5        1.0  0.789708997649825  0.2832351083995093  0.7772509681135273  1.0000
  N   N1        1.0  0.13610450746127611  0.552148780661021  0.5067368093477781  1.0000
  N   N2        1.0  0.8833456887656935  0.529984101822393  0.45743100740649817  1.0000
  O   O1        1.0  0.6241068260592897  0.6882932116057956  0.49293050560198276  1.0000
  O   O2        1.0  0.3689152453598794  0.701980580699967  0.5662564042299463  1.0000
  O   O3        1.0  0.677541505898013  0.47152329844970337  0.3024614591558147  1.0000
  O   O4        1.0  0.43402970724564227  0.5313305637026956  0.3463860668218428  1.0000
  O   O5        1.0  0.6854380727125927  0.32172516321372047  0.4637540295791637  1.0000
  O   O6        1.0  0.4483658081571916  0.3230837513046225  0.47214263950952057  1.0000
  O   O7        1.0  0.5093731105016203  0.4866252881213881  0.6412503085135909  1.0000
  O   O8        1.0  0.2671441824499325  0.4603007380563183  0.6657073229786618  1.0000
  F   F1        1.0  0.9645791380741429  0.8841654607354029  0.6309964655576789  1.0000
  F   F2        1.0  0.0446750619628133  0.08971699144369438  0.5225107938919749  1.0000
  F   F3        1.0  0.8641364138068325  0.6698361776868254  0.2930802019173626  1.0000
  F   F4        1.0  0.3004267316914095  0.35445023085563315  0.2873490420032425  1.0000
