data_image0
_chemical_formula_structural       AlH12C27N7O9
_chemical_formula_sum              "Al1 H12 C27 N7 O9"
_cell_length_a       3.9293127374730505
_cell_length_b       18.036858052315264
_cell_length_c       18.115381751228494
_cell_angle_alpha    119.71950377492577
_cell_angle_beta     90.94873345692768
_cell_angle_gamma    90.48108612933781

_space_group_name_H-M_alt    "P 1"
_space_group_IT_number       1

loop_
  _space_group_symop_operation_xyz
  'x, y, z'

loop_
  _atom_site_type_symbol
  _atom_site_label
  _atom_site_symmetry_multiplicity
  _atom_site_fract_x
  _atom_site_fract_y
  _atom_site_fract_z
  _atom_site_occupancy
  Al  Al1       1.0  0.034100116938525084  0.00010522325573699943  0.500138709480943  1.0000
  H   H1        1.0  0.807062408527706  0.3024560491239753  0.40542910334724513  1.0000
  H   H2        1.0  0.8193097649758412  0.0937838459092788  0.8955721640322948  1.0000
  H   H3        1.0  0.7705688323904524  0.6077096382126542  0.19605096706185074  1.0000
  H   H4        1.0  0.2879393604140148  0.30089670172701927  0.8926922149748576  1.0000
  H   H5        1.0  0.8351359590640824  0.0177513179466686  0.7362838453507763  1.0000
  H   H6        1.0  0.7947093194736752  0.7676983553564511  0.2815466135289029  1.0000
  H   H7        1.0  0.2505453269636178  0.6010988984142854  0.4008723808479998  1.0000
  H   H8        1.0  0.25924836711493526  0.0927137325200107  0.19676696066759547  1.0000
  H   H9        1.0  0.8267840038598987  0.2189889448982854  0.48239883542377976  1.0000
  H   H10       1.0  0.1751204135511628  0.9853471117555158  0.31449010891233087  1.0000
  H   H11       1.0  0.1783965119796918  0.8259829583371355  0.5118921166257805  1.0000
  H   H12       1.0  0.20353924614363453  0.1849598539687065  0.6685793881716292  1.0000
  C   C1        1.0  0.5361838761001678  0.06699881881037578  0.433934557227225  1.0000
  C   C2        1.0  0.5492103134705317  0.0659538934845116  0.6323139202777384  1.0000
  C   C3        1.0  0.5270085666448094  0.8673131396607658  0.4330780663148842  1.0000
  C   C4        1.0  0.687536135646539  0.23940685544357623  0.3784133800412021  1.0000
  C   C5        1.0  0.534321180020676  0.20171989826026498  0.29647305412506597  1.0000
  C   C6        1.0  0.7026256284619591  0.12069111277719463  0.8593816941182195  1.0000
  C   C7        1.0  0.5543703331885154  0.201898932013556  0.9028840029160179  1.0000
  C   C8        1.0  0.5119744875394403  0.5956379174743773  0.2943072351295369  1.0000
  C   C9        1.0  0.6575463404176033  0.6419871286662088  0.258432226358309  1.0000
  C   C10       1.0  0.4025662277504195  0.2383127293483156  0.858555550852543  1.0000
  C   C11       1.0  0.38162149830255737  0.19264239066559694  0.7696503274569365  1.0000
  C   C12       1.0  0.5447878270761137  0.1126075465960028  0.7253332714590357  1.0000
  C   C13       1.0  0.7079548646493236  0.0786066839614605  0.7715711152824198  1.0000
  C   C14       1.0  0.6674595729645176  0.7301329861840385  0.3053790527041044  1.0000
  C   C15       1.0  0.5106395090288273  0.7738736953852268  0.38488877163847945  1.0000
  C   C16       1.0  0.34638434911744304  0.7266766740907329  0.4182350894595075  1.0000
  C   C17       1.0  0.36296258978303797  0.6374881540758751  0.37385568757363064  1.0000
  C   C18       1.0  0.37771585977784367  0.1211980728760551  0.2599479715045518  1.0000
  C   C19       1.0  0.35694298377303096  0.0782047818042315  0.3063205678916816  1.0000
  C   C20       1.0  0.5271410378137912  0.11357097667045223  0.38686925148734014  1.0000
  C   C21       1.0  0.694923709704959  0.19360914670639323  0.4210084842521979  1.0000
  C   C22       1.0  0.5259129527418409  0.3777962644430488  0.25391132214902257  1.0000
  C   C23       1.0  0.5499604210240534  0.2430333641768314  0.11997964777302168  1.0000
  C   C24       1.0  0.5370694558001289  0.2485376816126674  0.24883949077956655  1.0000
  C   C25       1.0  0.5199368877135909  0.5014487341910082  0.24767547751254426  1.0000
  C   C26       1.0  0.5398441070586414  0.37814352902825726  0.11940220090387743  1.0000
  C   C27       1.0  0.5546347914264301  0.24907676493721448  0.9967415474614397  1.0000
  N   N1        1.0  0.5384675214009248  0.33297411564888796  0.16443158837488164  1.0000
  N   N2        1.0  0.5417539558488044  0.20125560309529078  0.16348438763986184  1.0000
  N   N3        1.0  0.5333777327049702  0.33426551579468367  0.29570122827204404  1.0000
  N   N4        1.0  0.5065004272086427  0.46264913251075496  0.294774668564699  1.0000
  N   N5        1.0  0.5410652744008075  0.4632833099766814  0.16255452245960814  1.0000
  N   N6        1.0  0.5679321488514048  0.20179765877337988  0.035419254025200075  1.0000
  N   N7        1.0  0.5389578921818624  0.33470936075400465  0.03468189575201558  1.0000
  O   O1        1.0  0.30195325685802743  0.9067003948747826  0.49088196382971455  1.0000
  O   O2        1.0  0.30031333014719047  0.0093896580667945  0.4165917608973686  1.0000
  O   O3        1.0  0.31619529454608397  0.08345659242323927  0.591798994508224  1.0000
  O   O4        1.0  0.7627175781689673  0.9066621273223061  0.4177707443881075  1.0000
  O   O5        1.0  0.7796911881745102  0.0112815780600286  0.5942254349052121  1.0000
  O   O6        1.0  0.7749729964871577  0.08315942397381092  0.488818511355717  1.0000
  O   O7        1.0  0.18235282552895876  0.0032388477501470005  0.2708300620077395  1.0000
  O   O8        1.0  0.1824073016175021  0.7640521988590122  0.49257411676003915  1.0000
  O   O9        1.0  0.21261534072870347  0.2282506971429612  0.7299492755570609  1.0000
