data_image0
_chemical_formula_structural       Mn2H44C64S2N8O12
_chemical_formula_sum              "Mn2 H44 C64 S2 N8 O12"
_cell_length_a       10.071553025298558
_cell_length_b       12.307798555430265
_cell_length_c       13.798610984445808
_cell_angle_alpha    73.04325123957356
_cell_angle_beta     68.59492393488785
_cell_angle_gamma    65.85209168856059

_space_group_name_H-M_alt    "P 1"
_space_group_IT_number       1

loop_
  _space_group_symop_operation_xyz
  'x, y, z'

loop_
  _atom_site_type_symbol
  _atom_site_label
  _atom_site_symmetry_multiplicity
  _atom_site_fract_x
  _atom_site_fract_y
  _atom_site_fract_z
  _atom_site_occupancy
  Mn  Mn1       1.0  0.04643867232362445  0.39628441700043043  0.38711793890613677  1.0000
  Mn  Mn2       1.0  0.17018937347584276  0.896224489077625  0.8869985674826424  1.0000
  H   H1        1.0  0.4715576639564249  0.3398345449431944  0.3089848822299573  1.0000
  H   H2        1.0  0.8794251502231629  0.840132806642295  0.8091225490397919  1.0000
  H   H3        1.0  0.7442736368208218  0.44426934119516664  0.9333615939153931  1.0000
  H   H4        1.0  0.8779567437061785  0.9439905817532761  0.4335358747856547  1.0000
  H   H5        1.0  0.9276272669355238  0.08563383063397371  0.1437326342893146  1.0000
  H   H6        1.0  0.8433541613290176  0.5854754742959403  0.6438636476738039  1.0000
  H   H7        1.0  0.3677540308350515  0.5431156070118066  0.8470053005478632  1.0000
  H   H8        1.0  0.24207415279850852  0.04322375246911751  0.34707475370262836  1.0000
  H   H9        1.0  0.5227175090840036  0.14748185422028834  0.7629903568821419  1.0000
  H   H10       1.0  0.5667407930474297  0.6474171990138732  0.26298289460418534  1.0000
  H   H11       1.0  0.3983487018645846  0.5505520816041028  0.21834185211885426  1.0000
  H   H12       1.0  0.8325208201831131  0.050768807625551915  0.7182683100829125  1.0000
  H   H13       1.0  0.3584049298470261  0.13655384631259443  0.668909317939935  1.0000
  H   H14       1.0  0.8361509439823462  0.6363047855845921  0.16886827176400493  1.0000
  H   H15       1.0  0.4347316508001385  0.17077816875718815  0.12034842781756086  1.0000
  H   H16       1.0  0.2742303810696854  0.670588751198224  0.6201097555315583  1.0000
  H   H17       1.0  0.8189754549342112  0.232406173914967  0.024294051208066568  1.0000
  H   H18       1.0  0.9244503128486629  0.732157598955219  0.5245718748696221  1.0000
  H   H19       1.0  0.9878980520150549  0.6818484097211056  0.2617158774374461  1.0000
  H   H20       1.0  0.06888205635031144  0.18187455261125512  0.7616400810181929  1.0000
  H   H21       1.0  0.5770103778099692  0.7906244336588206  0.5042125308143283  1.0000
  H   H22       1.0  0.1282057109449966  0.2902793025354455  0.004507985455390415  1.0000
  H   H23       1.0  0.9805713481721765  0.8724145430682669  0.22376492293935984  1.0000
  H   H24       1.0  0.9236340271751404  0.37228098435041806  0.723878038277377  1.0000
  H   H25       1.0  0.19248700505658423  0.5460366226564874  0.0311429333895319  1.0000
  H   H26       1.0  0.23021631842804174  0.04594431642693311  0.5312873529183123  1.0000
  H   H27       1.0  0.7295369358635782  0.6534554794158968  0.9140388079513784  1.0000
  H   H28       1.0  0.7028869607135776  0.15344043404321892  0.41391460635015426  1.0000
  H   H29       1.0  0.5088554423400637  0.9505201171607857  0.4010905064940928  1.0000
  H   H30       1.0  0.13981861762004408  0.4504583645437848  0.9012722000268383  1.0000
  H   H31       1.0  0.2738289681225653  0.6714381575546043  0.07350336254803846  1.0000
  H   H32       1.0  0.981178440801209  0.17133798098914352  0.5733939022434954  1.0000
  H   H33       1.0  0.4541324312503079  0.16285288400809617  0.3168835338340301  1.0000
  H   H34       1.0  0.06622146156216498  0.6628167368361559  0.8171159299032098  1.0000
  H   H35       1.0  0.715426631007979  0.5431494097084696  0.5452996627172341  1.0000
  H   H36       1.0  0.19595832044683453  0.04286216731521361  0.045390349786856604  1.0000
  H   H37       1.0  0.33681865057395305  0.48951028665675284  0.4912118255048057  1.0000
  H   H38       1.0  0.6826616259304072  0.9891894412588587  0.9910254061409276  1.0000
  H   H39       1.0  0.5336240022411687  0.863895508120628  0.8290194900630253  1.0000
  H   H40       1.0  0.7736715199285484  0.36374783579704945  0.3287730138493431  1.0000
  H   H41       1.0  0.6095153238284253  0.16546264054443335  0.9343856888503839  1.0000
  H   H42       1.0  0.2908664199151048  0.6654878468707539  0.4340321667940755  1.0000
  H   H43       1.0  0.4967307760588967  0.5052746075438534  0.5875022839572067  1.0000
  H   H44       1.0  0.4106516787518614  0.0051701995841071016  0.08731873559072062  1.0000
  C   C1        1.0  0.3032046830388282  0.3576428450397344  0.08505116955409166  1.0000
  C   C2        1.0  0.25398265953288773  0.857509106625841  0.5850290022716321  1.0000
  C   C3        1.0  0.3361853853866989  0.31416974594188224  0.5764729139634285  1.0000
  C   C4        1.0  0.773261780140615  0.8138652361847749  0.07628325407487327  1.0000
  C   C5        1.0  0.5164075392070513  0.32825529897502304  0.6809065595657771  1.0000
  C   C6        1.0  0.47448458861254034  0.8281772334397959  0.18082729249969992  1.0000
  C   C7        1.0  0.5343400090768354  0.3613319086740533  0.22703956719571755  1.0000
  C   C8        1.0  0.8770594538846481  0.8614666039745632  0.7272094754197268  1.0000
  C   C9        1.0  0.5683897309990515  0.5102184289546586  0.07062863024260943  1.0000
  C   C10       1.0  0.8506177790095608  0.010170374922829205  0.5706696305186727  1.0000
  C   C11       1.0  0.6869580657900086  0.14151836513934773  0.22403582910057912  1.0000
  C   C12       1.0  0.9474926337665296  0.6414966449131614  0.7243527261839233  1.0000
  C   C13       1.0  0.6890159192476302  0.4212788384273766  0.01681665130205805  1.0000
  C   C14       1.0  0.8727867704500198  0.9211081209483325  0.5169711928913757  1.0000
  C   C15       1.0  0.8339975385740602  0.05652290525095791  0.19835988819805567  1.0000
  C   C16       1.0  0.9113856720070501  0.5564354628985058  0.698562973278584  1.0000
  C   C17       1.0  0.3806646664465843  0.46123991964172734  0.9063295040060951  1.0000
  C   C18       1.0  0.2517305827265517  0.9612941154091104  0.40633672948990096  1.0000
  C   C19       1.0  0.4812546961855234  0.2227969927321993  0.7039734223851114  1.0000
  C   C20       1.0  0.5919703658714612  0.7226859544075169  0.20392615233797085  1.0000
  C   C21       1.0  0.6525006209933224  0.2695486923083693  0.17370775033236904  1.0000
  C   C22       1.0  0.9041158369369168  0.7695416651620663  0.6739889335753659  1.0000
  C   C23       1.0  0.4918049037205633  0.48083587217497853  0.17644455244546733  1.0000
  C   C24       1.0  0.8506999149695889  0.9809461091775521  0.6764919563270412  1.0000
  C   C25       1.0  0.3905239989482611  0.21626155707969028  0.6515435372326053  1.0000
  C   C26       1.0  0.7417087403187852  0.7160216769997236  0.15145689707821228  1.0000
  C   C27       1.0  0.4198014400919874  0.250073143718062  0.05883070458160235  1.0000
  C   C28       1.0  0.27131422612352896  0.749966507129166  0.5586765323925534  1.0000
  C   C29       1.0  0.7304721962843105  0.3023300132282145  0.06839004038798908  1.0000
  C   C30       1.0  0.8987297085615892  0.8021871727448655  0.5686481526494448  1.0000
  C   C31       1.0  0.747715868856261  0.8967329380588185  0.31815878185027213  1.0000
  C   C32       1.0  0.0377880524233803  0.3965968534100526  0.8182888653837138  1.0000
  C   C33       1.0  0.22753803209991458  0.3129584846091619  0.5259155375476611  1.0000
  C   C34       1.0  0.9337121671183652  0.8126490377927809  0.025762598921965016  1.0000
  C   C35       1.0  0.49497032884427483  0.35225380330751227  0.8817081590335435  1.0000
  C   C36       1.0  0.27102359627680506  0.8523525612131596  0.38159538161251305  1.0000
  C   C37       1.0  0.8983415527944131  0.6766905226200494  0.33473171263257484  1.0000
  C   C38       1.0  0.09049559004278518  0.1766257904031932  0.8347190986303515  1.0000
  C   C39       1.0  0.6813686692262947  0.7314017255391863  0.4603357986515493  1.0000
  C   C40       1.0  0.12695404740206584  0.23116948357175474  0.9605032218992234  1.0000
  C   C41       1.0  0.865025522509889  0.9352544661959074  0.24429026173453397  1.0000
  C   C42       1.0  0.9558636203092522  0.4351371813807391  0.7444038101695796  1.0000
  C   C43       1.0  0.20413625284961506  0.3605440391097617  0.19639362868093002  1.0000
  C   C44       1.0  0.23883244537675094  0.8603438924974188  0.6963539223906208  1.0000
  C   C45       1.0  0.2837452567338729  0.46297606005801145  0.008838118122938011  1.0000
  C   C46       1.0  0.2443809236719759  0.962906678659536  0.508877910464726  1.0000
  C   C47       1.0  0.607010346117889  0.6891625081798766  0.9334594931034844  1.0000
  C   C48       1.0  0.7703541709866785  0.18910555064636014  0.4333564707238652  1.0000
  C   C49       1.0  0.6011052165397782  0.9799120390515204  0.3451133620438044  1.0000
  C   C50       1.0  0.07413957811254347  0.47982404768887227  0.845320143518279  1.0000
  C   C51       1.0  0.369712740289721  0.6969720029128866  0.019604390825918576  1.0000
  C   C52       1.0  0.9137008338944527  0.19691459017256116  0.5194771369440332  1.0000
  C   C53       1.0  0.5707987373396008  0.10063763064567871  0.2984062311322333  1.0000
  C   C54       1.0  0.030240795386845074  0.6005973205388673  0.7986808852792961  1.0000
  C   C55       1.0  0.7510334159937958  0.6088581876493324  0.47960719011823744  1.0000
  C   C56       1.0  0.1604785301256725  0.10865454357667662  0.9796834359961295  1.0000
  C   C57       1.0  0.37797444307400235  0.4164629978909178  0.5515128924760617  1.0000
  C   C58       1.0  0.6541728745238728  0.9161524136015162  0.05130062490697912  1.0000
  C   C59       1.0  0.5085183721431858  0.7928044825001167  0.8929221328550697  1.0000
  C   C60       1.0  0.805810484990964  0.29269766176064854  0.39277050217813075  1.0000
  C   C61       1.0  0.515698071608597  0.24682519607088696  0.9566419412981872  1.0000
  C   C62       1.0  0.28091995881813125  0.7468274543537702  0.45642895331687333  1.0000
  C   C63       1.0  0.4666902135533706  0.4249059025073052  0.6042755941217309  1.0000
  C   C64       1.0  0.5042208811495144  0.9247569705471864  0.10411845722699554  1.0000
  S   S1        1.0  0.6205327574766598  0.34500684107634083  0.75250373638103  1.0000
  S   S2        1.0  0.28198060420127996  0.8451158902483444  0.2524093897201141  1.0000
  N   N1        1.0  0.7758290880629417  0.7741068954873502  0.3681968646249985  1.0000
  N   N2        1.0  0.08215090853090609  0.27397095950692574  0.8682971756178403  1.0000
  N   N3        1.0  0.8857796008314978  0.5758957540716808  0.40094077049718635  1.0000
  N   N4        1.0  0.137485053526568  0.07577674405816741  0.9009283516102897  1.0000
  N   N5        1.0  0.5175032524456852  0.6291096452841246  0.013980378057510687  1.0000
  N   N6        1.0  0.8393302357023273  0.12905513981230143  0.5139076049754295  1.0000
  N   N7        1.0  0.36072672203383876  0.7963765462702811  0.9467335777100772  1.0000
  N   N8        1.0  0.896260614388915  0.29627135800693355  0.44656438931987463  1.0000
  O   O1        1.0  0.6423800365761637  0.4610193064309272  0.7085769639590042  1.0000
  O   O2        1.0  0.18816950613381778  0.9611589395442551  0.2084594144586092  1.0000
  O   O3        1.0  0.75182903159525  0.23615835643937544  0.7588300952447683  1.0000
  O   O4        1.0  0.25313149580404815  0.7363135076191869  0.25868542693222446  1.0000
  O   O5        1.0  0.10084849072212172  0.4609828245519482  0.21936447079298915  1.0000
  O   O6        1.0  0.21832803133803236  0.960902835086799  0.719325739957199  1.0000
  O   O7        1.0  0.22595063348769875  0.2660539042282154  0.26609687044486213  1.0000
  O   O8        1.0  0.2422875229699741  0.7657702228949361  0.766002233931509  1.0000
  O   O9        1.0  0.15933686023085877  0.23796382071121516  0.5658999032493525  1.0000
  O   O10       1.0  0.03679232560654796  0.7377194093623988  0.06588779256384922  1.0000
  O   O11       1.0  0.20871082435962765  0.39448002990707215  0.4432791451165841  1.0000
  O   O12       1.0  0.9537617117206669  0.8940897189536302  0.9430746771168331  1.0000
