data_image0
_chemical_formula_structural       Co2H28C28N8O8
_chemical_formula_sum              "Co2 H28 C28 N8 O8"
_cell_length_a       7.42070563090462
_cell_length_b       9.96046799817883
_cell_length_c       10.10659956713345
_cell_angle_alpha    89.9986632642788
_cell_angle_beta     108.03502523092115
_cell_angle_gamma    90.0014789440949

_space_group_name_H-M_alt    "P 1"
_space_group_IT_number       1

loop_
  _space_group_symop_operation_xyz
  'x, y, z'

loop_
  _atom_site_type_symbol
  _atom_site_label
  _atom_site_symmetry_multiplicity
  _atom_site_fract_x
  _atom_site_fract_y
  _atom_site_fract_z
  _atom_site_occupancy
  Co  Co1       1.0  0.9999965402696775  0.4999992421152941  0.5000005024332806  1.0000
  Co  Co2       1.0  3.025278331798508e-06  1.3465879007000013e-06  0.9999969200694068  1.0000
  H   H1        1.0  0.19900601385265307  0.6575633619298106  0.4291361389973075  1.0000
  H   H2        1.0  0.8009950968160171  0.157557619533165  0.07086866446019256  1.0000
  H   H3        1.0  0.8009900903050282  0.3424356499782065  0.5708680595102748  1.0000
  H   H4        1.0  0.19900505710047867  0.8424423964647408  0.9291284875737202  1.0000
  H   H5        1.0  0.9769662595916699  0.71832833538398  0.3959735210008899  1.0000
  H   H6        1.0  0.023033284299202702  0.2183281002744267  0.1040127306377343  1.0000
  H   H7        1.0  0.02302969367787  0.2816726845302568  0.6040247074035745  1.0000
  H   H8        1.0  0.9769654023091265  0.781670911767485  0.8959821268260695  1.0000
  H   H9        1.0  0.910822765900221  0.643189083668148  0.7034265600980872  1.0000
  H   H10       1.0  0.0891934957455547  0.14318961524389817  0.7965691922506648  1.0000
  H   H11       1.0  0.08917890561581743  0.3568109322940388  0.29657487654314707  1.0000
  H   H12       1.0  0.9108124268068283  0.8568154205924831  0.20343315799780726  1.0000
  H   H13       1.0  0.10702863529027701  0.5554065173247198  0.783092453019435  1.0000
  H   H14       1.0  0.89298505227719  0.055401114006599514  0.7168998085560003  1.0000
  H   H15       1.0  0.8929729355309991  0.44458747486975636  0.21690500361529527  1.0000
  H   H16       1.0  0.1070236287526782  0.9446009099771545  0.28310016577464836  1.0000
  H   H17       1.0  0.9063323926913256  0.8684621196519519  0.572272928238547  1.0000
  H   H18       1.0  0.09367327346111409  0.36844862259759764  0.9277203357323669  1.0000
  H   H19       1.0  0.09367072120419102  0.13155496377987674  0.42772980782264364  1.0000
  H   H20       1.0  0.9063296137941778  0.6315493855279829  0.072273445360878  1.0000
  H   H21       1.0  0.4604027864340949  0.704932919382273  0.6161600053129417  1.0000
  H   H22       1.0  0.5395730901852431  0.2049460001895938  0.8838414866833587  1.0000
  H   H23       1.0  0.5395919005948003  0.2950560528269223  0.383843888729622  1.0000
  H   H24       1.0  0.46041461276252  0.7950610433644346  0.1161648645143956  1.0000
  H   H25       1.0  0.5993699213645486  0.5301401909747201  0.6208235549868774  1.0000
  H   H26       1.0  0.4006516891704451  0.030130658325489914  0.8791759362035946  1.0000
  H   H27       1.0  0.40062868964570714  0.46984878141250885  0.3791683175187257  1.0000
  H   H28       1.0  0.5993656194715626  0.9698653418473743  0.12083084054911099  1.0000
  C   C1        1.0  0.05909010413983402  0.8680970505309207  0.6236347606229201  1.0000
  C   C2        1.0  0.9409027989634284  0.36808581418389974  0.8763557685525284  1.0000
  C   C3        1.0  0.9409158687599302  0.1319109971893155  0.37636957962880035  1.0000
  C   C4        1.0  0.059086044167514715  0.6319121937855032  0.12363994211358427  1.0000
  C   C5        1.0  0.17471573972190413  0.7761421033776091  0.5830055503430528  1.0000
  C   C6        1.0  0.8252647050679727  0.27613474389097104  0.9169853967606298  1.0000
  C   C7        1.0  0.8252759626372851  0.22386293238245267  0.4169917643777905  1.0000
  C   C8        1.0  0.17473137397901442  0.7238672799351281  0.08301780670713299  1.0000
  C   C9        1.0  0.37062087812696387  0.7759313692920957  0.6479432031907421  1.0000
  C   C10       1.0  0.6293682137716561  0.2759338507224741  0.8520555447783733  1.0000
  C   C11       1.0  0.6293794267616734  0.22407266251292415  0.35205991889536387  1.0000
  C   C12       1.0  0.3706278905680236  0.7240782127811162  0.14794865361886878  1.0000
  C   C13       1.0  0.6643092329363683  0.865620727016534  0.8181830537440856  1.0000
  C   C14       1.0  0.3356852448588583  0.3656376701983677  0.6818167767424936  1.0000
  C   C15       1.0  0.3356951467237792  0.1343742691780677  0.18181401696758565  1.0000
  C   C16       1.0  0.6643065077077139  0.6343603377566467  0.3181825280664724  1.0000
  C   C17       1.0  0.14146747838786666  0.9609396205662509  0.7296247924525472  1.0000
  C   C18       1.0  0.8585491936380123  0.46094235013511314  0.7703657500061138  1.0000
  C   C19       1.0  0.8585483630159774  0.039060395495070614  0.2703796896876014  1.0000
  C   C20       1.0  0.1414452168792835  0.539058669826254  0.22962719877667576  1.0000
  C   C21       1.0  0.45292633632433177  0.8680310042895986  0.7537089794270597  1.0000
  C   C22       1.0  0.5470824538217869  0.3680323880994366  0.7462968409795179  1.0000
  C   C23       1.0  0.5470781439885783  0.13196700376604303  0.24629207131658148  1.0000
  C   C24       1.0  0.4529164340640791  0.6319706397267811  0.2537059765651789  1.0000
  C   C25       1.0  0.6615627429826318  0.4600105633828236  0.7049116888791075  1.0000
  C   C26       1.0  0.33844135139536047  0.960009044846459  0.7950840884900143  1.0000
  C   C27       1.0  0.3384260246902358  0.5399874446208063  0.29508103674393027  1.0000
  C   C28       1.0  0.661568821983359  0.039985951330763214  0.2049191754930106  1.0000
  N   N1        1.0  0.0968541270607446  0.6831911885832157  0.47351898911965395  1.0000
  N   N2        1.0  0.9031404373339385  0.18318441270020006  0.026476893175306777  1.0000
  N   N3        1.0  0.9031475696079811  0.31680882736756655  0.5264834425359337  1.0000
  N   N4        1.0  0.0968569077716879  0.8168166072353604  0.9735206447646969  1.0000
  N   N5        1.0  0.029588873424948797  0.049472760206491315  0.7801712715829223  1.0000
  N   N6        1.0  0.9704205235131341  0.5494719746296756  0.7198251517049454  1.0000
  N   N7        1.0  0.9704214007185358  0.9505332795828922  0.21983597236416588  1.0000
  N   N8        1.0  0.0295711032199861  0.4505210135379231  0.28016917807467917  1.0000
  O   O1        1.0  0.7585268507698829  0.7792265845104966  0.7754523582077864  1.0000
  O   O2        1.0  0.24146425332073557  0.2792467585221203  0.7245665387325102  1.0000
  O   O3        1.0  0.24147596098533344  0.22076841174263964  0.22453843786785646  1.0000
  O   O4        1.0  0.7585334438945638  0.7207522533159507  0.27544492942546117  1.0000
  O   O5        1.0  0.7356326638789528  0.954460498182499  0.9130462280851075  1.0000
  O   O6        1.0  0.2643713512967807  0.4544682656808592  0.586952628090394  1.0000
  O   O7        1.0  0.2643788007530929  0.045536505999450624  0.08695236535905337  1.0000
  O   O8        1.0  0.7356174414167712  0.5455217105602373  0.41304109261491095  1.0000
