data_image0
_chemical_formula_structural       Al6H47C88N3O30
_chemical_formula_sum              "Al6 H47 C88 N3 O30"
_cell_length_a       13.012866064374245
_cell_length_b       12.928464010240061
_cell_length_c       30.44169039606518
_cell_angle_alpha    81.2508357735833
_cell_angle_beta     81.77003859014691
_cell_angle_gamma    61.90278486977995

_space_group_name_H-M_alt    "P 1"
_space_group_IT_number       1

loop_
  _space_group_symop_operation_xyz
  'x, y, z'

loop_
  _atom_site_type_symbol
  _atom_site_label
  _atom_site_symmetry_multiplicity
  _atom_site_fract_x
  _atom_site_fract_y
  _atom_site_fract_z
  _atom_site_occupancy
  Al  Al1       1.0  0.3989407376875393  0.4290134716146667  0.5104742817080421  1.0000
  Al  Al2       1.0  0.6498576749829468  0.423213366437949  0.49529903866168457  1.0000
  Al  Al3       1.0  0.435271498598553  0.658097142976736  0.4931881784367604  1.0000
  Al  Al4       1.0  0.9243126374300206  0.9273239586175496  0.9767242572999135  1.0000
  Al  Al5       1.0  0.9138089923682887  0.6823485975651453  0.9952770293723461  1.0000
  Al  Al6       1.0  0.6864345365287434  0.9056099169219327  0.9942122249444265  1.0000
  H   H1        1.0  0.7136790758918397  0.46777139316915156  0.28717300370713866  1.0000
  H   H2        1.0  0.14499235119910744  0.8516055790936862  0.16310157093541727  1.0000
  H   H3        1.0  0.09516426554647235  0.8717006033276747  0.08459954512753139  1.0000
  H   H4        1.0  0.2527202107151538  0.8045549897246789  0.29597710036727415  1.0000
  H   H5        1.0  0.8750357783615855  0.07852190380948092  0.08567678933356859  1.0000
  H   H6        1.0  0.8552370240096537  0.1259409653908392  0.1642957500539879  1.0000
  H   H7        1.0  0.8298647264522788  0.11114908408379884  0.3187957556387531  1.0000
  H   H8        1.0  0.4306342349939883  0.3606612632792832  0.3849552699693461  1.0000
  H   H9        1.0  0.52061567890771  0.12530508336146803  0.1854880159540215  1.0000
  H   H10       1.0  0.5441553740463406  0.07353218885555891  0.10744238692279137  1.0000
  H   H11       1.0  0.7244162389430145  0.4887299510968931  0.2042540490408982  1.0000
  H   H12       1.0  0.4586535436496888  0.3111672765649517  0.30654848593908207  1.0000
  H   H13       1.0  0.8897375595822156  0.5516940272557778  0.8892374015909823  1.0000
  H   H14       1.0  0.8711172828289121  0.526633863710906  0.8114740522146561  1.0000
  H   H15       1.0  0.8402409609524714  0.5045984331683757  0.6688455357890957  1.0000
  H   H16       1.0  0.8100653800519101  0.4812394706169983  0.5923311336445706  1.0000
  H   H17       1.0  0.46088399851744544  0.7650202785535288  0.603888282866805  1.0000
  H   H18       1.0  0.5296735874194028  0.8280131705632671  0.8139907920916584  1.0000
  H   H19       1.0  0.5505914210406928  0.85325645536134  0.8914837146142743  1.0000
  H   H20       1.0  0.48754121135315415  0.7843802599082252  0.6813246960179669  1.0000
  H   H21       1.0  0.24991023741770146  0.49291987252987485  0.7115685390090503  1.0000
  H   H22       1.0  0.6500327185257081  0.8518361431797815  0.20247840199694878  1.0000
  H   H23       1.0  0.19895814228927836  0.5055157439450896  0.7936197365253149  1.0000
  H   H24       1.0  0.10692264561810551  0.87088485354861  0.6919556797477  1.0000
  H   H25       1.0  0.7807335043465288  0.2080946614396454  0.7800652880539045  1.0000
  H   H26       1.0  0.5103868371099126  0.10022421974913702  0.7926062213120844  1.0000
  H   H27       1.0  0.49874895678879494  0.1391427093474107  0.7098237178183169  1.0000
  H   H28       1.0  0.6388943542499561  0.8309687105171906  0.28542946580400036  1.0000
  H   H29       1.0  0.0578503956321511  0.5549918020113511  0.11236921349122038  1.0000
  H   H30       1.0  0.10649596526157269  0.5339748906615969  0.19091758028290678  1.0000
  H   H31       1.0  0.16172586194974767  0.5208571412915293  0.33147977511448795  1.0000
  H   H32       1.0  0.301233940088764  0.7857201894409442  0.3743697442077192  1.0000
  H   H33       1.0  0.9848806740439928  0.10295028977491683  0.40462343159114766  1.0000
  H   H34       1.0  0.017285600209717658  0.9762013502190431  0.7492617607722706  1.0000
  H   H35       1.0  0.9059061153900243  0.9134807309321791  0.8240487776611471  1.0000
  H   H36       1.0  0.9253846283957049  0.04218235094108991  0.8147120742371425  1.0000
  H   H37       1.0  0.02586283173392441  0.9148552568765925  0.8452325174398111  1.0000
  H   H38       1.0  0.7774684695486445  0.26737651539090024  0.6579376139700341  1.0000
  H   H39       1.0  0.9238479556107109  0.295271255791306  0.6801391577014186  1.0000
  H   H40       1.0  0.9358508780674628  0.1927312038840512  0.727601013496617  1.0000
  H   H41       1.0  0.8319670131787051  0.34391045953715604  0.7299324543038563  1.0000
  H   H42       1.0  0.23313583822121586  0.4726054193741336  0.4472610798808603  1.0000
  H   H43       1.0  0.17845178702239647  0.33831779748492613  0.4351805476942373  1.0000
  H   H44       1.0  0.23144958743951347  0.34629874127357146  0.3780375791887279  1.0000
  H   H45       1.0  0.08337449650710477  0.44289629367527544  0.3951861948030952  1.0000
  H   H46       1.0  0.3185009563150984  0.2993606416710933  0.5378578692280911  1.0000
  H   H47       1.0  0.03244876842463642  0.016726341881977205  0.9354842186725633  1.0000
  C   C1        1.0  0.5888464817162601  0.3084042638811654  0.4405517042652106  1.0000
  C   C2        1.0  0.6633971040818313  0.7682251083361112  0.22121085010903835  1.0000
  C   C3        1.0  0.6574895926652932  0.756545647887336  0.2674395572785143  1.0000
  C   C4        1.0  0.6757353906935253  0.6480542271534874  0.2917587442899787  1.0000
  C   C5        1.0  0.6876450759040226  0.6716159036529562  0.19792536628665397  1.0000
  C   C6        1.0  0.6953681812371005  0.6834017309573144  0.1507285706057786  1.0000
  C   C7        1.0  0.6673675905171592  0.6359625812880767  0.3389541644605174  1.0000
  C   C8        1.0  0.7036652392229923  0.6942335069859812  0.1100534946890903  1.0000
  C   C9        1.0  0.2582461395750854  0.6451401301630073  0.3975108490018968  1.0000
  C   C10       1.0  0.2689935497193758  0.7293981429703963  0.36451801798284567  1.0000
  C   C11       1.0  0.24278671117676956  0.7398654960771155  0.32120020943592203  1.0000
  C   C12       1.0  0.6311239711203954  0.6003435226752672  0.4262250251909662  1.0000
  C   C13       1.0  0.2036985078799488  0.662951408349791  0.3094432941425467  1.0000
  C   C14       1.0  0.19212772173200687  0.5783948651837676  0.3414546564061069  1.0000
  C   C15       1.0  0.2190519614441513  0.5660581717873826  0.3860728681222199  1.0000
  C   C16       1.0  0.10471796472242531  0.6072554729689374  0.1674501421265333  1.0000
  C   C17       1.0  0.0781403970875232  0.61855425079186  0.1238777536508735  1.0000
  C   C18       1.0  0.09909440678327283  0.7979139224306525  0.10827806974548079  1.0000
  C   C19       1.0  0.12626955873216864  0.7867500925188794  0.15174181285184568  1.0000
  C   C20       1.0  0.1290381744778912  0.6913732578412992  0.18214897189549353  1.0000
  C   C21       1.0  0.1550871880762585  0.6806869319856618  0.2266319339667362  1.0000
  C   C22       1.0  0.17718900073859337  0.6715648878975248  0.265121148968916  1.0000
  C   C23       1.0  0.29565572772094134  0.6351172395599959  0.4415573886374062  1.0000
  C   C24       1.0  0.07482186462929956  0.7139839252832023  0.09402360691314729  1.0000
  C   C25       1.0  0.6126966302164902  0.26420532602907815  0.39581253948069406  1.0000
  C   C26       1.0  0.5174420144364903  0.3052339092640821  0.3700203330215928  1.0000
  C   C27       1.0  0.533200197839257  0.27790824525747854  0.32641239962182306  1.0000
  C   C28       1.0  0.6464528085195556  0.20814922712592232  0.3071668372589683  1.0000
  C   C29       1.0  0.7423181104178769  0.16661229311143447  0.33312566692021045  1.0000
  C   C30       1.0  0.7258982435551644  0.19293546519718768  0.3771554112800288  1.0000
  C   C31       1.0  0.7868917639568451  0.1155371347153178  0.1515545660821971  1.0000
  C   C32       1.0  0.7980997138777683  0.08933686765642082  0.10802804266797489  1.0000
  C   C33       1.0  0.6106422695783281  0.08693478517915311  0.12017333528886098  1.0000
  C   C34       1.0  0.6049876297330032  0.2862767777859858  0.5659320924001462  1.0000
  C   C35       1.0  0.5981461287207424  0.1147879172935902  0.1635532011620242  1.0000
  C   C36       1.0  0.6865134338220855  0.1289625066657365  0.1800097908321732  1.0000
  C   C37       1.0  0.6743109374310094  0.15609159627965144  0.22440961815654245  1.0000
  C   C38       1.0  0.6629072638530218  0.1797826193043761  0.2627155094790368  1.0000
  C   C39       1.0  0.710386283210383  0.07443684842709081  0.09207661778980028  1.0000
  C   C40       1.0  0.6339847027335637  0.6222433339683991  0.5935228529088761  1.0000
  C   C41       1.0  0.5435749847352512  0.7086775491224344  0.6184893151464479  1.0000
  C   C42       1.0  0.5584456161410075  0.7192838895474339  0.6615285555325555  1.0000
  C   C43       1.0  0.6654460183189953  0.6448410174600527  0.6804788156199775  1.0000
  C   C44       1.0  0.7569528764534538  0.5602597564226741  0.6546452694342548  1.0000
  C   C45       1.0  0.6118308391870785  0.6044102221593378  0.5495169104542155  1.0000
  C   C46       1.0  0.7407100874905341  0.5480324883313444  0.6120188118910477  1.0000
  C   C47       1.0  0.8006092635473581  0.5971694440012599  0.8292721209252888  1.0000
  C   C48       1.0  0.8109214140329332  0.6106306764270858  0.8725382423953149  1.0000
  C   C49       1.0  0.6192183125319844  0.7811621838356827  0.873815364619446  1.0000
  C   C50       1.0  0.6081231231496462  0.7675359108119153  0.8306604157760586  1.0000
  C   C51       1.0  0.6990700471487588  0.6756506251592357  0.8075161085333207  1.0000
  C   C52       1.0  0.688905055847947  0.6634525455079868  0.7631335552854424  1.0000
  C   C53       1.0  0.6795244096235394  0.6543335275818266  0.7246947686711421  1.0000
  C   C54       1.0  0.7206087576826903  0.7029019105053325  0.8951133044558404  1.0000
  C   C55       1.0  0.24609387261870816  0.6606251278293628  0.6114686367091551  1.0000
  C   C56       1.0  0.2980788245594115  0.624936376546458  0.5679507370020502  1.0000
  C   C57       1.0  0.20743962935608098  0.577334898157851  0.7255662360510796  1.0000
  C   C58       1.0  0.17880354956652417  0.584890545648726  0.7707690271574349  1.0000
  C   C59       1.0  0.09542127695969789  0.8007630337855646  0.7606998815668006  1.0000
  C   C60       1.0  0.12695733623288422  0.7910172666948798  0.7146128217915759  1.0000
  C   C61       1.0  0.18225877240903537  0.6823282962217976  0.6969632179429722  1.0000
  C   C62       1.0  0.1250105067700388  0.6939622330310088  0.7895998598228218  1.0000
  C   C63       1.0  0.10623294100735589  0.6925790181391137  0.8363308807157848  1.0000
  C   C64       1.0  0.21450419838744494  0.6747745253812527  0.6507108971176477  1.0000
  C   C65       1.0  0.09197902005963232  0.6904465935010793  0.8769628390792049  1.0000
  C   C66       1.0  0.6253012723895282  0.2366966261865785  0.6111236777158877  1.0000
  C   C67       1.0  0.6583162387966581  0.6240448075324778  0.3796351631745408  1.0000
  C   C68       1.0  0.7170776636616979  0.21198764187752767  0.7174463804408759  1.0000
  C   C69       1.0  0.7209605650709252  0.19182201602917812  0.7640023586194002  1.0000
  C   C70       1.0  0.5665097677567063  0.13187903278048205  0.7714127361437659  1.0000
  C   C71       1.0  0.5606753636307503  0.15304777078677032  0.7256213564141659  1.0000
  C   C72       1.0  0.6345464083332006  0.19212688017496762  0.6979708373925533  1.0000
  C   C73       1.0  0.6477142190820546  0.15108219253638572  0.7908166075129229  1.0000
  C   C74       1.0  0.6599044704174946  0.12535545841853243  0.8372210515567173  1.0000
  C   C75       1.0  0.6278849577505528  0.21417349213764686  0.6515647863175146  1.0000
  C   C76       1.0  0.6778746878364291  0.0982876742950296  0.8765410353605032  1.0000
  C   C77       1.0  0.036815658401387466  0.7318331248383247  0.04860044917474939  1.0000
  C   C78       1.0  0.7001518016787359  0.5514205310710169  0.2684487749846411  1.0000
  C   C79       1.0  0.727752551619723  0.7190224772047102  0.06325724465597202  1.0000
  C   C80       1.0  0.7287441288718599  0.03652249050259121  0.046655959133694594  1.0000
  C   C81       1.0  0.047085715114775314  0.718516731139964  0.9215885609438387  1.0000
  C   C82       1.0  0.737684008080649  0.7238261366155925  0.9394578465021437  1.0000
  C   C83       1.0  0.7138723756624331  0.04587751903465429  0.9204193101868297  1.0000
  C   C84       1.0  0.7059750024723571  0.563100749382521  0.2222318657950879  1.0000
  C   C85       1.0  0.828325300582776  0.13324659703513225  0.4048877945545043  1.0000
  C   C86       1.0  0.9716965627547298  0.9458541992974505  0.8170333328090178  1.0000
  C   C87       1.0  0.8737483828706306  0.2714631335370187  0.7081586633435251  1.0000
  C   C88       1.0  0.17362959871100972  0.39859895856217537  0.40518583052067203  1.0000
  N   N1        1.0  0.04044734374522102  0.911390602518431  0.7747549584928348  1.0000
  N   N2        1.0  0.7894493545432298  0.24873046227244094  0.6909702433673387  1.0000
  N   N3        1.0  0.20952431494804818  0.4811621137533565  0.41578765841165216  1.0000
  O   O1        1.0  0.293755672300584  0.5542126688648283  0.47099985215508156  1.0000
  O   O2        1.0  0.6835729099928757  0.5092907910734966  0.5321349180067328  1.0000
  O   O3        1.0  0.5180035990386643  0.6835059317936399  0.5325942888403361  1.0000
  O   O4        1.0  0.3146986617763617  0.7006844094810206  0.5389375523826487  1.0000
  O   O5        1.0  0.49697502301560814  0.5033590812516239  0.4997226803188538  1.0000
  O   O6        1.0  0.8209460710661178  0.02475629541801541  0.0230299418289164  1.0000
  O   O7        1.0  0.021412876028122602  0.8260767611885245  0.024693193249923702  1.0000
  O   O8        1.0  0.017327946880321597  0.6506495291585568  0.03712500539749898  1.0000
  O   O9        1.0  0.8245871769148537  0.6459870940820879  0.044788923941339875  1.0000
  O   O10       1.0  0.6533799686752675  0.8157930596165529  0.04423751606216801  1.0000
  O   O11       1.0  0.6505510973794985  0.013343577425629905  0.03510329179742659  1.0000
  O   O12       1.0  0.48589908985852764  0.34339685887619015  0.4584890476943783  1.0000
  O   O13       1.0  0.8162859331964116  0.02085032521185331  0.9279795332657483  1.0000
  O   O14       1.0  0.02042778568630887  0.8218961216238085  0.9298312597705588  1.0000
  O   O15       1.0  0.03223015921970778  0.6396989425567484  0.949458239825354  1.0000
  O   O16       1.0  0.8320204542040417  0.6498684230826797  0.957196318017459  1.0000
  O   O17       1.0  0.6604068747205222  0.817739155607214  0.9563654647839214  1.0000
  O   O18       1.0  0.6390830214199357  0.024458324699409704  0.9478381575584578  1.0000
  O   O19       1.0  0.8402849499224916  0.8375990927293914  0.9887545527979427  1.0000
  O   O20       1.0  0.6724184586456802  0.31438604041394314  0.45638615939900967  1.0000
  O   O21       1.0  0.698034450355465  0.4983095837941321  0.4447461517118398  1.0000
  O   O22       1.0  0.5396082369005697  0.6790548445218366  0.44516835683837286  1.0000
  O   O23       1.0  0.3337647007120737  0.706820189316524  0.4492736272676224  1.0000
  O   O24       1.0  0.32654937100740267  0.5195309451723064  0.5623173897686868  1.0000
  O   O25       1.0  0.5098583869396691  0.30686513513536084  0.551599404449874  1.0000
  O   O26       1.0  0.6850106362141731  0.31059375554551855  0.543947545824885  1.0000
  O   O27       1.0  0.8316300657633066  0.07187165317073153  0.4397355078487237  1.0000
  O   O28       1.0  0.9212785931413023  0.14944651139409612  0.3851325703470039  1.0000
  O   O29       1.0  0.3018207728050797  0.36693828147154056  0.5161624806005065  1.0000
  O   O30       1.0  0.9989750641238974  0.01257693969433401  0.9657463533691267  1.0000
