data_image0
_chemical_formula_structural       Zn2H28C46N6O10
_chemical_formula_sum              "Zn2 H28 C46 N6 O10"
_cell_length_a       16.246967590845642
_cell_length_b       17.21848118343001
_cell_length_c       19.170645517917738
_cell_angle_alpha    89.21487154443916
_cell_angle_beta     87.5268455755065
_cell_angle_gamma    87.78581427087259

_space_group_name_H-M_alt    "P 1"
_space_group_IT_number       1

loop_
  _space_group_symop_operation_xyz
  'x, y, z'

loop_
  _atom_site_type_symbol
  _atom_site_label
  _atom_site_symmetry_multiplicity
  _atom_site_fract_x
  _atom_site_fract_y
  _atom_site_fract_z
  _atom_site_occupancy
  Zn  Zn1       1.0  0.5840325920177989  0.505436645646867  0.5018260951959234  1.0000
  Zn  Zn2       1.0  0.4143563605538744  0.5014043578643381  0.5071358842665177  1.0000
  H   H1        1.0  0.6304575659743107  0.47937694155024957  0.7204864955582548  1.0000
  H   H2        1.0  0.3702814188653392  0.48279371382226804  0.2876629866473478  1.0000
  H   H3        1.0  0.28446766254367617  0.5633698293374819  0.41999095591299346  1.0000
  H   H4        1.0  0.7201575852899397  0.4409649850675947  0.5876311736933387  1.0000
  H   H5        1.0  0.7089944583727644  0.5885994185437795  0.4157397956880047  1.0000
  H   H6        1.0  0.28362943061927126  0.4109613179628155  0.5877604714648044  1.0000
  H   H7        1.0  0.9919600058380736  0.5851686282968416  0.4685151924894271  1.0000
  H   H8        1.0  0.0059790603246341  0.417853623746467  0.5261966914486392  1.0000
  H   H9        1.0  0.13111817674590043  0.3965185483301071  0.5836523427588246  1.0000
  H   H10       1.0  0.8627849447962389  0.6025560857250483  0.4108068005310912  1.0000
  H   H11       1.0  0.6340508511611632  0.4537167694221438  0.8492136065198748  1.0000
  H   H12       1.0  0.37149257435260796  0.45090819102929913  0.16018859901116395  1.0000
  H   H13       1.0  0.3691194821689692  0.44838479245545676  0.8612652700769489  1.0000
  H   H14       1.0  0.6362470841095417  0.4594207001660778  0.1495639198338239  1.0000
  H   H15       1.0  0.36642473103450607  0.47387503071726655  0.7322829004331766  1.0000
  H   H16       1.0  0.633860119798598  0.4902719877221742  0.27728566809277305  1.0000
  H   H17       1.0  0.3940849286996269  0.27069116751759026  0.43141571171403825  1.0000
  H   H18       1.0  0.611250425673056  0.747866602533726  0.4744998005616949  1.0000
  H   H19       1.0  0.3481622886247706  0.7461092659764006  0.4645537843629555  1.0000
  H   H20       1.0  0.6509907149423101  0.25815055598349795  0.47469314380063565  1.0000
  H   H21       1.0  0.4081711294278421  0.0063248870156016  0.4199376249139846  1.0000
  H   H22       1.0  0.5978337827697261  0.003964531427016  0.4165382577452519  1.0000
  H   H23       1.0  0.6588601288395493  0.11817487420582039  0.4420107190842869  1.0000
  H   H24       1.0  0.34491616392650565  0.8858964533872467  0.42864160112461747  1.0000
  H   H25       1.0  0.6095747097361511  0.886707248235581  0.4399485041191865  1.0000
  H   H26       1.0  0.4008053519663406  0.13195619572253042  0.397028883245376  1.0000
  H   H27       1.0  0.9386134198731283  0.469530144690964  0.6263100163986549  1.0000
  H   H28       1.0  0.18475158232919847  0.5913648874815747  0.3541850389838999  1.0000
  C   C1        1.0  0.5147220846080032  0.3537277052859267  0.4832809789684588  1.0000
  C   C2        1.0  0.4833602615888067  0.6545797002305065  0.494156585724653  1.0000
  C   C3        1.0  0.5211751258597772  0.27185653056626075  0.45809124436963344  1.0000
  C   C4        1.0  0.47993345599638104  0.7383369592287891  0.4722511007695473  1.0000
  C   C5        1.0  0.45151897844851163  0.23617458323595733  0.4341269074316542  1.0000
  C   C6        1.0  0.5532800517216997  0.77877173871925  0.46387876361492886  1.0000
  C   C7        1.0  0.4556982600674928  0.1585667841802874  0.41521766294762585  1.0000
  C   C8        1.0  0.551790261759564  0.8565150589050885  0.4441924539825877  1.0000
  C   C9        1.0  0.5296384094030627  0.11354242060470911  0.4208562701333561  1.0000
  C   C10       1.0  0.47661436689821823  0.8973556725388291  0.432084868639194  1.0000
  C   C11       1.0  0.6005968885294949  0.151700397362454  0.4395967647840208  1.0000
  C   C12       1.0  0.403610872769562  0.8555509706226446  0.43855276530235426  1.0000
  C   C13       1.0  0.5965529215818889  0.22950136578580782  0.45823536992913455  1.0000
  C   C14       1.0  0.40504061129590246  0.7775372040108195  0.45857727410955107  1.0000
  C   C15       1.0  0.5350531074213477  0.029250103794993293  0.4158993272682281  1.0000
  C   C16       1.0  0.4710291649783258  0.9810508495623367  0.4198157975866152  1.0000
  C   C17       1.0  0.24702241653011472  0.5289443580204959  0.4566351296592046  1.0000
  C   C18       1.0  0.7541505065627874  0.4752497086106331  0.5486080958808798  1.0000
  C   C19       1.0  0.1616064829328039  0.5263681055734962  0.4500303665913136  1.0000
  C   C20       1.0  0.8399054256309457  0.47981958952590975  0.5508791969909976  1.0000
  C   C21       1.0  0.11617241523286738  0.47959621518101864  0.498896880070454  1.0000
  C   C22       1.0  0.8815212822455295  0.5254622365577788  0.49954997997271255  1.0000
  C   C23       1.0  0.4971874683025419  0.48956218259322526  0.6409393728274679  1.0000
  C   C24       1.0  0.5008345209343973  0.5040727767235182  0.3663452680969925  1.0000
  C   C25       1.0  0.16242836515057493  0.4354059485872952  0.5467760313489264  1.0000
  C   C26       1.0  0.8332421239550598  0.5665665288468915  0.4510853233651844  1.0000
  C   C27       1.0  0.24701870678835997  0.4428674785700437  0.5496606394953503  1.0000
  C   C28       1.0  0.748562915660024  0.5587685973048123  0.4529739464849243  1.0000
  C   C29       1.0  0.0267937131909761  0.47352768924307054  0.5052968877671231  1.0000
  C   C30       1.0  0.9707175313337824  0.5309886729171114  0.49156748526058885  1.0000
  C   C31       1.0  0.573659481605297  0.47243210108457145  0.7518456288086383  1.0000
  C   C32       1.0  0.4278838112507089  0.4779691867751623  0.25652600241096474  1.0000
  C   C33       1.0  0.5756819206412801  0.4583878625635265  0.8232894711321705  1.0000
  C   C34       1.0  0.428606687139208  0.46030087917329604  0.18604634905471326  1.0000
  C   C35       1.0  0.5017961618795966  0.44898511750287173  0.8630063608649577  1.0000
  C   C36       1.0  0.5039655995961426  0.45341963005009933  0.14720365024722776  1.0000
  C   C37       1.0  0.4260503041619117  0.4552687275838493  0.8300339431556907  1.0000
  C   C38       1.0  0.5782348826664431  0.4649990317226838  0.18006901674667117  1.0000
  C   C39       1.0  0.4245885537954591  0.4692095332521334  0.7584997606709223  1.0000
  C   C40       1.0  0.5769632432507736  0.48228641539908057  0.2506745099289702  1.0000
  C   C41       1.0  0.49829447211749317  0.4772669186715674  0.7186423626739822  1.0000
  C   C42       1.0  0.501904997609877  0.48882627251241195  0.28945907087017275  1.0000
  C   C43       1.0  0.5048759473999952  0.4353480881652131  0.07274327837478009  1.0000
  C   C44       1.0  0.5037386160509741  0.43351121439753365  0.9382813543030365  1.0000
  C   C45       1.0  0.8804961970626836  0.4427739652286248  0.6115070464226591  1.0000
  C   C46       1.0  0.1324247040363531  0.5678748047177039  0.3867271468342395  1.0000
  N   N1        1.0  0.43227323935938955  0.41974214149900047  0.9746350693513149  1.0000
  N   N2        1.0  0.5782982629351494  0.42652253772843807  0.036863379529613396  1.0000
  N   N3        1.0  0.4328638635519439  0.42070878280291873  0.0432404600195611  1.0000
  N   N4        1.0  0.5776869435945075  0.425631351631381  0.9682806576708456  1.0000
  N   N5        1.0  0.2885916904370874  0.49045042316068066  0.5058098604118867  1.0000
  N   N6        1.0  0.7098641521314947  0.5133616584074473  0.5009165919161731  1.0000
  O   O1        1.0  0.5815464213879339  0.3865324989317784  0.4955650911913168  1.0000
  O   O2        1.0  0.41538093339936916  0.6209210708427834  0.5057798107824212  1.0000
  O   O3        1.0  0.4423770295258649  0.38509228994188044  0.4906260997547562  1.0000
  O   O4        1.0  0.555026032010815  0.6222921793232458  0.4988439907409088  1.0000
  O   O5        1.0  0.5663949549506809  0.49863147165487465  0.6087244222045739  1.0000
  O   O6        1.0  0.4304983784023618  0.5116366918420426  0.39806181521661427  1.0000
  O   O7        1.0  0.42734233978927705  0.4893380781328601  0.6128551128268853  1.0000
  O   O8        1.0  0.5704487408232811  0.5064783559146376  0.39425942241386736  1.0000
  O   O9        1.0  0.8519299377240939  0.3887940829065925  0.6455880647003978  1.0000
  O   O10       1.0  0.0618442983389542  0.5763923243041161  0.367320577363948  1.0000
