data_image0
_chemical_formula_structural       AlH12C24N3O9
_chemical_formula_sum              "Al1 H12 C24 N3 O9"
_cell_length_a       3.953665654248121
_cell_length_b       15.767598741342542
_cell_length_c       15.811599574374466
_cell_angle_alpha    60.114684597135984
_cell_angle_beta     87.6550927883287
_cell_angle_gamma    87.12870585615369

_space_group_name_H-M_alt    "P 1"
_space_group_IT_number       1

loop_
  _space_group_symop_operation_xyz
  'x, y, z'

loop_
  _atom_site_type_symbol
  _atom_site_label
  _atom_site_symmetry_multiplicity
  _atom_site_fract_x
  _atom_site_fract_y
  _atom_site_fract_z
  _atom_site_occupancy
  Al  Al1       1.0  0.932426976076755  0.5015613380920101  0.4996749601050963  1.0000
  H   H1        1.0  0.10748768274697083  0.750364712172093  0.5270437567837547  1.0000
  H   H2        1.0  0.138158388993503  0.8468387089267537  0.6134283729695938  1.0000
  H   H3        1.0  0.6940933867642939  0.6054622945839299  0.8441419809977974  1.0000
  H   H4        1.0  0.7572248455685013  0.044782197449897906  0.6088341541739839  1.0000
  H   H5        1.0  0.16315594107701506  0.23512802570869698  0.7474900679173189  1.0000
  H   H6        1.0  0.19068920205022272  0.05154595052965759  0.8446123492487274  1.0000
  H   H7        1.0  0.7132948457612471  0.8470843216080726  0.0467879290619207  1.0000
  H   H8        1.0  0.1901280598606974  0.5217850261356317  0.231654768384594  1.0000
  H   H9        1.0  0.21861960489351154  0.6085763901131145  0.048579948607681306  1.0000
  H   H10       1.0  0.7551044605859474  0.47917565130454415  0.7119433429071975  1.0000
  H   H11       1.0  0.8211708213571356  0.3024882506182749  0.48274230551563585  1.0000
  H   H12       1.0  0.7712315141946108  0.7160800680578846  0.3040501934929977  1.0000
  C   C1        1.0  0.4395958063730703  0.5791881880712495  0.3482597668171366  1.0000
  C   C2        1.0  0.40365417844636653  0.5754587167976695  0.5780706032323623  1.0000
  C   C3        1.0  0.44774519181168415  0.34954964038316666  0.5737330501999338  1.0000
  C   C4        1.0  0.46433172496475084  0.9300862467178707  0.785601013115368  1.0000
  C   C5        1.0  0.4342071831265457  0.7860395052402538  0.7868230953539737  1.0000
  C   C6        1.0  0.46095812845661743  0.7869142638824227  0.9297443809176756  1.0000
  C   C7        1.0  0.24313336111634234  0.7210360951012263  0.5951164965316945  1.0000
  C   C8        1.0  0.25710622758819573  0.7740882704627552  0.6430057734783716  1.0000
  C   C9        1.0  0.41781592007721013  0.7312943868682138  0.7337676107675222  1.0000
  C   C10       1.0  0.5689335790325883  0.6378294406853157  0.7742027770447776  1.0000
  C   C11       1.0  0.5797389745942354  0.5871991663210209  0.7223478771399385  1.0000
  C   C12       1.0  0.4087120357165404  0.6284690192567269  0.6322115912781355  1.0000
  C   C13       1.0  0.6324207788236366  0.08617096598449339  0.6402202715160925  1.0000
  C   C14       1.0  0.6463537442496586  0.1884361010107511  0.5897771934775591  1.0000
  C   C15       1.0  0.46856976827853464  0.24238723012697957  0.6285215068652192  1.0000
  C   C16       1.0  0.30071843633159995  0.192171019237442  0.7197725551932592  1.0000
  C   C17       1.0  0.3128309771728084  0.09108998586064841  0.7730632393624718  1.0000
  C   C18       1.0  0.4721586083347802  0.038128267147577305  0.7315086490413949  1.0000
  C   C19       1.0  0.6035937348540017  0.7752119850696528  0.08702513311492042  1.0000
  C   C20       1.0  0.6149192208336133  0.723628564313735  0.18906407814528567  1.0000
  C   C21       1.0  0.4582581949359863  0.6318177391431661  0.24145782764835394  1.0000
  C   C22       1.0  0.3115592425752923  0.5918247939291491  0.18990635731328337  1.0000
  C   C23       1.0  0.32428069988420555  0.6397338405781737  0.0891529191105036  1.0000
  C   C24       1.0  0.464578381790787  0.7330887524275695  0.03756509694375857  1.0000
  N   N1        1.0  0.4437044163216228  0.884226502222333  0.733540789213542  1.0000
  N   N2        1.0  0.44132179944092087  0.7340042730142217  0.8847808899757509  1.0000
  N   N3        1.0  0.47441316740278683  0.8850939942490115  0.8834903694230005  1.0000
  O   O1        1.0  0.2004651865574232  0.3937930182883491  0.5917225584770023  1.0000
  O   O2        1.0  0.20908570587133107  0.5171211780936886  0.39177024522687987  1.0000
  O   O3        1.0  0.17108662966882796  0.59484905472641  0.5167952560590763  1.0000
  O   O4        1.0  0.68042952657332  0.3952837599848209  0.5079687831726715  1.0000
  O   O5        1.0  0.6411151804767454  0.5087558452385039  0.5961501224387787  1.0000
  O   O6        1.0  0.6580860722040355  0.5989379233672167  0.3947003598497929  1.0000
  O   O7        1.0  0.7494741012536678  0.4998304546595734  0.7619089979698899  1.0000
  O   O8        1.0  0.8210380521369488  0.23169242724198819  0.5042234199377518  1.0000
  O   O9        1.0  0.7677618479893199  0.7652473379458088  0.23349360945419306  1.0000
