data_image0
_chemical_formula_structural       Cu4H28C24N28
_chemical_formula_sum              "Cu4 H28 C24 N28"
_cell_length_a       6.599625410633627
_cell_length_b       13.355974509549474
_cell_length_c       13.355831245448448
_cell_angle_alpha    61.21613732790927
_cell_angle_beta     81.00479675032088
_cell_angle_gamma    81.00456256538496

_space_group_name_H-M_alt    "P 1"
_space_group_IT_number       1

loop_
  _space_group_symop_operation_xyz
  'x, y, z'

loop_
  _atom_site_type_symbol
  _atom_site_label
  _atom_site_symmetry_multiplicity
  _atom_site_fract_x
  _atom_site_fract_y
  _atom_site_fract_z
  _atom_site_occupancy
  Cu  Cu1       1.0  0.3471137270275975  0.9956205232251276  0.867524554904698  1.0000
  Cu  Cu2       1.0  0.1528930920233904  0.13247421192725986  0.004374974125866501  1.0000
  Cu  Cu3       1.0  0.6531466435771094  0.004676504071170499  0.13238105807921133  1.0000
  Cu  Cu4       1.0  0.8468773264371734  0.8675988928250432  0.9953456161253913  1.0000
  H   H1        1.0  0.12874745194280726  0.12946400652246126  0.6625928847669799  1.0000
  H   H2        1.0  0.3712418546578675  0.3374080986072485  0.8705349637816157  1.0000
  H   H3        1.0  0.8717721079107147  0.8706046350415663  0.3377750968585502  1.0000
  H   H4        1.0  0.6282197006704991  0.6622119906464973  0.12941318335064983  1.0000
  H   H5        1.0  0.5760625078313524  0.18060084519929376  0.37356500857082153  1.0000
  H   H6        1.0  0.9239225028631421  0.6264339534916062  0.8194115187446516  1.0000
  H   H7        1.0  0.42393581201968517  0.8193021345844826  0.626624627601899  1.0000
  H   H8        1.0  0.07605615908765628  0.3733672887694509  0.18069064457952075  1.0000
  H   H9        1.0  0.8323252901396784  0.0555837273560016  0.5128755818234367  1.0000
  H   H10       1.0  0.667662263660489  0.48711706308474584  0.9444237582074207  1.0000
  H   H11       1.0  0.1678257253354616  0.9441231217522769  0.4872615320099103  1.0000
  H   H12       1.0  0.33218144065220656  0.5127290311225537  0.05589942507630499  1.0000
  H   H13       1.0  0.7233047475285374  0.9760228646983861  0.7238060513906961  1.0000
  H   H14       1.0  0.776688266513787  0.2761863523581454  0.02397415426803916  1.0000
  H   H15       1.0  0.27699686811480717  0.023837271827645192  0.2763590060262474  1.0000
  H   H16       1.0  0.22302225891301927  0.7236310349965224  0.9761993630507105  1.0000
  H   H17       1.0  0.24106823712731537  0.31602815632780323  0.3528410975972491  1.0000
  H   H18       1.0  0.25892723102526105  0.6471653442034935  0.6839879593942018  1.0000
  H   H19       1.0  0.7589528693659557  0.6838668029829974  0.6474614387806525  1.0000
  H   H20       1.0  0.7410205208889876  0.352527852036971  0.3161429348626328  1.0000
  H   H21       1.0  0.048488778548374994  0.2792058770014236  0.4712334552261197  1.0000
  H   H22       1.0  0.4515154880114665  0.528773669497383  0.7208175401090389  1.0000
  H   H23       1.0  0.9518273331203059  0.7207589196782604  0.5292075030381798  1.0000
  H   H24       1.0  0.5481412259593057  0.4707895795015772  0.2792206667281506  1.0000
  H   H25       1.0  0.09961035607356909  0.1981150384459269  0.3945339644563007  1.0000
  H   H26       1.0  0.4003596830933134  0.6054660026780779  0.8019121862002979  1.0000
  H   H27       1.0  0.9003354180452945  0.8017621654813283  0.60600377633633  1.0000
  H   H28       1.0  0.5996806804316676  0.39397777292646907  0.19823006571449756  1.0000
  C   C1        1.0  0.28329128074657456  0.11589796863162152  0.6252134528037773  1.0000
  C   C2        1.0  0.21670133760053284  0.37478750505190567  0.8840999679003545  1.0000
  C   C3        1.0  0.7170951952335473  0.8841504297731431  0.3750442244559552  1.0000
  C   C4        1.0  0.7829026895903366  0.6249430556573684  0.11586508243230749  1.0000
  C   C5        1.0  0.3302897029718821  0.16730972990011136  0.5064227915367284  1.0000
  C   C6        1.0  0.16969649460563827  0.4935784733159848  0.8326990089094083  1.0000
  C   C7        1.0  0.6699470911390365  0.8326709344185516  0.4938594451131593  1.0000
  C   C8        1.0  0.830056742180048  0.5061313173669076  0.1673303735246492  1.0000
  C   C9        1.0  0.5314402320987809  0.1442725639080678  0.4655579290870548  1.0000
  C   C10       1.0  0.9685400641818088  0.5344386777689607  0.8557356007957041  1.0000
  C   C11       1.0  0.468730816415153  0.8556431280277577  0.5346714324705104  1.0000
  C   C12       1.0  0.031268430855782  0.46531634002616334  0.1443606766315568  1.0000
  C   C13       1.0  0.6752708879930154  0.07464679144194969  0.5428947539280105  1.0000
  C   C14       1.0  0.8247123538848342  0.4571036596449147  0.9253574466005788  1.0000
  C   C15       1.0  0.3249518371517297  0.9251807026696995  0.45730551945666054  1.0000
  C   C16       1.0  0.17504421161506656  0.5426862359762127  0.07483842708124665  1.0000
  C   C17       1.0  0.6165770356882658  0.029351585776318204  0.6598246326690997  1.0000
  C   C18       1.0  0.88340709078291  0.3401734419399959  0.9706453907222325  1.0000
  C   C19       1.0  0.3837198222515781  0.9705367314724214  0.34037744617996424  1.0000
  C   C20       1.0  0.11630066537266256  0.6596149287739904  0.029483850704821263  1.0000
  C   C21       1.0  0.1705918081280515  0.24432211839592097  0.42751773280578936  1.0000
  C   C22       1.0  0.3294023660919265  0.5724837110436454  0.755698290940579  1.0000
  C   C23       1.0  0.8295239593963615  0.7556300123752067  0.5728683881056112  1.0000
  C   C24       1.0  0.6704605227875149  0.4271214138633325  0.2443668212531449  1.0000
  N   N1        1.0  0.2500170912652493  0.9718037916424223  0.028192816423803967  1.0000
  N   N2        1.0  0.750010689662666  0.028581527554734996  0.9714016479826173  1.0000
  N   N3        1.0  0.24999976286625983  0.8822635256791428  0.11772717597110466  1.0000
  N   N4        1.0  0.7500266600083166  0.1180660141655423  0.8818963828355708  1.0000
  N   N5        1.0  0.249984892929298  0.7970186659666253  0.20296767949700004  1.0000
  N   N6        1.0  0.7500414003442231  0.2032843045117403  0.7966573968981763  1.0000
  N   N7        1.0  0.2500256640800629  0.1568623329245042  0.8431379788508266  1.0000
  N   N8        1.0  0.7499953849762944  0.8434808370294817  0.15651614792245278  1.0000
  N   N9        1.0  0.2500142619486354  0.24650058377057593  0.7534967124428392  1.0000
  N   N10       1.0  0.7500085931691346  0.7538683538974453  0.24613518703118584  1.0000
  N   N11       1.0  0.250004475320786  0.3316913318274572  0.6683042715058677  1.0000
  N   N12       1.0  0.7500130399378051  0.6687093597493714  0.331310569456619  1.0000
  N   N13       1.0  0.5480093597588294  0.856925090326392  0.9213198870022907  1.0000
  N   N14       1.0  0.952005910166086  0.0786739084089376  0.14307778362453402  1.0000
  N   N15       1.0  0.45279920897623077  0.1436243021863604  0.07838648360026922  1.0000
  N   N16       1.0  0.04720605776400791  0.921600476103144  0.8564044624906657  1.0000
  N   N17       1.0  0.5586026747187702  0.7871146557366017  0.887099335175698  1.0000
  N   N18       1.0  0.9414051427979047  0.11290689880699027  0.21288777819124502  1.0000
  N   N19       1.0  0.4409333066548625  0.2134305173589084  0.1126795655768831  1.0000
  N   N20       1.0  0.059064158646819506  0.8873072847991349  0.7865787096355988  1.0000
  N   N21       1.0  0.5741591441190292  0.7166717179895697  0.8576336165843301  1.0000
  N   N22       1.0  0.9258370983143039  0.1423728963089914  0.28332184330261617  1.0000
  N   N23       1.0  0.4239342920101238  0.28403171496207585  0.14203847301141784  1.0000
  N   N24       1.0  0.07607284525710867  0.8579682950793808  0.7159680783646325  1.0000
  N   N25       1.0  0.42285994817576966  0.049332097710440295  0.7000973386037757  1.0000
  N   N26       1.0  0.07713353142129618  0.29990212944787237  0.9506627017519096  1.0000
  N   N27       1.0  0.5775494040281544  0.9506898965476437  0.30009860500832275  1.0000
  N   N28       1.0  0.9224616448703317  0.6998900477592045  0.04933413747955484  1.0000
