data_image0
_chemical_formula_structural       Zn2H28C24N8O8
_chemical_formula_sum              "Zn2 H28 C24 N8 O8"
_cell_length_a       8.871130261412276
_cell_length_b       8.87103783287815
_cell_length_c       9.229584257613453
_cell_angle_alpha    92.25941423307584
_cell_angle_beta     92.2600115081735
_cell_angle_gamma    102.24148198204689

_space_group_name_H-M_alt    "P 1"
_space_group_IT_number       1

loop_
  _space_group_symop_operation_xyz
  'x, y, z'

loop_
  _atom_site_type_symbol
  _atom_site_label
  _atom_site_symmetry_multiplicity
  _atom_site_fract_x
  _atom_site_fract_y
  _atom_site_fract_z
  _atom_site_occupancy
  Zn  Zn1       1.0  0.8874275928920313  0.11257092273634584  0.750005269816512  1.0000
  Zn  Zn2       1.0  0.11256693053182691  0.887423174176675  0.2500065558926963  1.0000
  H   H1        1.0  0.5119448277117727  0.018575794809429207  0.6419968901588504  1.0000
  H   H2        1.0  0.9814007569016708  0.4880618377875267  0.8580022103575614  1.0000
  H   H3        1.0  0.48804741416181213  0.9813955981774714  0.35797867513309  1.0000
  H   H4        1.0  0.01859557264805291  0.5119622969264627  0.14201891073822276  1.0000
  H   H5        1.0  0.2999068402977514  0.13518312398905155  0.8004922302397262  1.0000
  H   H6        1.0  0.8648068523156879  0.7001069019333813  0.6995175461189049  1.0000
  H   H7        1.0  0.7000839085726085  0.8647977126204016  0.1994986663671341  1.0000
  H   H8        1.0  0.1351900270888891  0.29992066514367377  0.3005025689888186  1.0000
  H   H9        1.0  0.517799085480341  0.29913525624962745  0.16212975429645837  1.0000
  H   H10       1.0  0.7008736994255996  0.4822101468654054  0.3378663241411175  1.0000
  H   H11       1.0  0.482198406905944  0.700868290639413  0.8378411236343695  1.0000
  H   H12       1.0  0.2991401370940139  0.5177907338705838  0.6621514325803375  1.0000
  H   H13       1.0  0.32538976644266165  0.22258669923961352  0.0968086549972398  1.0000
  H   H14       1.0  0.7774033899667927  0.6746231945481401  0.403197385158613  1.0000
  H   H15       1.0  0.6746107893883249  0.7773932334892707  0.9031726602445006  1.0000
  H   H16       1.0  0.2226022033267938  0.3253760655134884  0.5968169264393808  1.0000
  H   H17       1.0  0.733608796356151  0.22275316219442948  0.0355377592030806  1.0000
  H   H18       1.0  0.7772592652603763  0.266410449795103  0.4644589658140603  1.0000
  H   H19       1.0  0.2664005364364641  0.7772611225855712  0.9644281410642321  1.0000
  H   H20       1.0  0.2227768090841025  0.7336077036549897  0.5355671525560979  1.0000
  H   H21       1.0  0.3696696829739921  0.5029243147113791  0.1059678376884534  1.0000
  H   H22       1.0  0.4970651436207518  0.6303221367534065  0.3940268356205294  1.0000
  H   H23       1.0  0.6303111240151367  0.49705921261743685  0.8940120771370133  1.0000
  H   H24       1.0  0.5029449881519737  0.36967144095405763  0.6059798657861819  1.0000
  H   H25       1.0  0.3399253187370022  0.43325257211964907  0.9241139452811994  1.0000
  H   H26       1.0  0.566723361265737  0.6600678279778976  0.575878681959523  1.0000
  H   H27       1.0  0.6600548950199182  0.5667206311277513  0.0758657557507689  1.0000
  H   H28       1.0  0.4332802862616277  0.33993453554148817  0.424125896538726  1.0000
  C   C1        1.0  0.5264766429522041  0.0774531120593167  0.7484346810375229  1.0000
  C   C2        1.0  0.9225197925715418  0.47353273642901444  0.7515728504122734  1.0000
  C   C3        1.0  0.4735113028606223  0.9225114698288196  0.2515515064587603  1.0000
  C   C4        1.0  0.07748826611886979  0.5265001031937189  0.2484540907633885  1.0000
  C   C5        1.0  0.9150335349002177  0.9709462603720597  0.468788933016647  1.0000
  C   C6        1.0  0.029048270425470007  0.08496049213769652  0.031222530640008  1.0000
  C   C7        1.0  0.08495895405725656  0.029071396359633208  0.5312081385791885  1.0000
  C   C8        1.0  0.9709237322208749  0.9150337115995557  0.9687910239771753  1.0000
  C   C9        1.0  0.4203597210625745  0.13510040968850492  0.8264459414114285  1.0000
  C   C10       1.0  0.8648762062955698  0.5796571329293416  0.6735566513154082  1.0000
  C   C11       1.0  0.5796344892386358  0.8648542058010025  0.17354125759629113  1.0000
  C   C12       1.0  0.13512894461382532  0.4203730439639203  0.32646042499929  1.0000
  C   C13       1.0  0.4377202300782344  0.2889810873270165  0.06650325588551452  1.0000
  C   C14       1.0  0.7110150746677206  0.5622885565852943  0.4334911283141167  1.0000
  C   C15       1.0  0.5622740348351128  0.7110097462438036  0.93346839383873  1.0000
  C   C16       1.0  0.2889920418262051  0.43771306500681123  0.5665232593650629  1.0000
  C   C17       1.0  0.6455198323952586  0.18104973415405823  0.9500403901728376  1.0000
  C   C18       1.0  0.8189642998688952  0.35450275841383666  0.5499552754658268  1.0000
  C   C19       1.0  0.35449506977315076  0.8189696299414849  0.0499354744133171  1.0000
  C   C20       1.0  0.1810544514481691  0.6455133612664598  0.4500682958121232  1.0000
  C   C21       1.0  0.42326530289780345  0.448428000839293  0.018174637578262307  1.0000
  C   C22       1.0  0.5515658900239798  0.576724888554644  0.48182063315935153  1.0000
  C   C23       1.0  0.5767159718840844  0.5515588768047907  0.9818010161247841  1.0000
  C   C24       1.0  0.4484416782393907  0.42327321898364545  0.518189358660635  1.0000
  N   N1        1.0  0.6663674306553559  0.10664805933579662  0.8268496369988227  1.0000
  N   N2        1.0  0.8933529414876417  0.33365204556904626  0.6731537782077907  1.0000
  N   N3        1.0  0.3336380851999722  0.8933559276408903  0.17312357465843323  1.0000
  N   N4        1.0  0.10666581452205288  0.6663777755001591  0.3268689774989113  1.0000
  N   N5        1.0  0.4979829851323813  0.2002930864495626  0.9541774930083734  1.0000
  N   N6        1.0  0.7997088757665055  0.5020293549025185  0.545821234290905  1.0000
  N   N7        1.0  0.5020048880036185  0.7996988161685865  0.04580380821105481  1.0000
  N   N8        1.0  0.2003004939301078  0.49798508904783045  0.4541988684868983  1.0000
  O   O1        1.0  0.8069076600821602  0.9952297104465231  0.5463936571917003  1.0000
  O   O2        1.0  0.004765685024558817  0.19309662128891608  0.9536164361286623  1.0000
  O   O3        1.0  0.19309653637528607  0.004775123643355501  0.4536174842797678  1.0000
  O   O4        1.0  0.9952341889428667  0.8069023361455055  0.046396673541082116  1.0000
  O   O5        1.0  0.8972156459776456  0.9020942411414271  0.3446188763548932  1.0000
  O   O6        1.0  0.0978929653653324  0.10277291061751734  0.1553947607862796  1.0000
  O   O7        1.0  0.1027526009816242  0.09790534446510432  0.6553882062480128  1.0000
  O   O8        1.0  0.9020996113675324  0.8972233279606812  0.8446149007844567  1.0000
