data_image0
_chemical_formula_structural       Zn4H44C76N4O16
_chemical_formula_sum              "Zn4 H44 C76 N4 O16"
_cell_length_a       8.184713421068167
_cell_length_b       14.789580647377173
_cell_length_c       15.014859801536806
_cell_angle_alpha    89.99935660448271
_cell_angle_beta     97.72546037860599
_cell_angle_gamma    89.99957310743831

_space_group_name_H-M_alt    "P 1"
_space_group_IT_number       1

loop_
  _space_group_symop_operation_xyz
  'x, y, z'

loop_
  _atom_site_type_symbol
  _atom_site_label
  _atom_site_symmetry_multiplicity
  _atom_site_fract_x
  _atom_site_fract_y
  _atom_site_fract_z
  _atom_site_occupancy
  Zn  Zn1       1.0  0.990367076966578  0.7295714652743683  0.7463188353403182  1.0000
  Zn  Zn2       1.0  0.5096265085682746  0.22956855688271818  0.2536840152628557  1.0000
  Zn  Zn3       1.0  0.009629612369458598  0.27043012934741745  0.2536848864709356  1.0000
  Zn  Zn4       1.0  0.49037796187690214  0.7704310093153098  0.7463113867572273  1.0000
  H   H1        1.0  0.104918837067018  0.8763435162739055  0.6330358570764147  1.0000
  H   H2        1.0  0.39507897306365447  0.37634445329335614  0.3669774362775015  1.0000
  H   H3        1.0  0.8950918477332266  0.1236574021364518  0.36697316295408905  1.0000
  H   H4        1.0  0.60492445950306  0.623650379833805  0.6330199198228073  1.0000
  H   H5        1.0  0.0032855278090124867  0.13193316455562606  0.7520808017481284  1.0000
  H   H6        1.0  0.49672163126120233  0.6319316143857636  0.24792771128942087  1.0000
  H   H7        1.0  0.9967210763177689  0.8680718107974386  0.24792403311918315  1.0000
  H   H8        1.0  0.5032601536508282  0.36806592336862554  0.7520740060218216  1.0000
  H   H9        1.0  0.8754057353773348  0.8755427339039201  0.8610321841236865  1.0000
  H   H10       1.0  0.6245762112927479  0.375542009546848  0.1389744715350787  1.0000
  H   H11       1.0  0.12458842687674829  0.12446291763779269  0.1389707570290426  1.0000
  H   H12       1.0  0.3754297482407125  0.6244629658459359  0.8610236651371892  1.0000
  H   H13       1.0  0.2962456632406827  0.949526008124721  0.5822304998519738  1.0000
  H   H14       1.0  0.20375102380369728  0.44953189928745013  0.4177825708659242  1.0000
  H   H15       1.0  0.703753424242187  0.050473558040145916  0.4177726629664419  1.0000
  H   H16       1.0  0.796258429762034  0.5504615814571777  0.5822263938027916  1.0000
  H   H17       1.0  0.39080220878067007  0.025202858025224394  0.4504759828283582  1.0000
  H   H18       1.0  0.10919022402522667  0.5252123259247625  0.5495284226373867  1.0000
  H   H19       1.0  0.609187357245986  0.9747919751537211  0.5495174146958347  1.0000
  H   H20       1.0  0.890816380205784  0.47477980254612356  0.4504764123082552  1.0000
  H   H21       1.0  0.08634355527896527  0.25467497940465483  0.4859542388289738  1.0000
  H   H22       1.0  0.4136614187158827  0.7546747856915913  0.514050767964342  1.0000
  H   H23       1.0  0.9136513226611528  0.7453225583456201  0.5140433992243343  1.0000
  H   H24       1.0  0.5863450565745226  0.24532004739401708  0.48595272732580236  1.0000
  H   H25       1.0  0.9773002926331315  0.1775762159243897  0.6125069533837646  1.0000
  H   H26       1.0  0.5227081320760192  0.677572351865443  0.3875018294974453  1.0000
  H   H27       1.0  0.022703268797385996  0.8224253787117561  0.38749174231432437  1.0000
  H   H28       1.0  0.4773008058205477  0.32242045275927467  0.6125017766193537  1.0000
  H   H29       1.0  0.6941758599448206  0.9529310600633494  0.9169187820232522  1.0000
  H   H30       1.0  0.8058356778488686  0.45292480595144713  0.0830889849539105  1.0000
  H   H31       1.0  0.3058227762788448  0.04707391534287809  0.08307969202564178  1.0000
  H   H32       1.0  0.1941705395548396  0.547076112515292  0.9169118310211033  1.0000
  H   H33       1.0  0.608851524307738  0.028093882394621496  0.051460702694072276  1.0000
  H   H34       1.0  0.8911402120449309  0.5280820434700786  0.9485423737987657  1.0000
  H   H35       1.0  0.3911384284200423  0.9719077122774208  0.94853671370592  1.0000
  H   H36       1.0  0.1088547948028733  0.47191684657564537  0.05145660388530619  1.0000
  H   H37       1.0  0.9350341674465952  0.24937077450999107  0.021163680099334694  1.0000
  H   H38       1.0  0.5649445213219977  0.7493552247898163  0.9788276025471986  1.0000
  H   H39       1.0  0.0649450903341062  0.7506369055295751  0.9788372565162787  1.0000
  H   H40       1.0  0.4350534703687075  0.2506423129875088  0.02116417335200539  1.0000
  H   H41       1.0  0.0345363662661953  0.1722701556416766  0.8919098475595459  1.0000
  H   H42       1.0  0.4654564717387116  0.6722608727492486  0.10808355335387887  1.0000
  H   H43       1.0  0.9654496346738667  0.8277395528752862  0.10808472329151898  1.0000
  H   H44       1.0  0.5345354923634673  0.32774072194479953  0.8919092851238728  1.0000
  C   C1        1.0  0.056001431511347705  0.9170645657543943  0.683471625602607  1.0000
  C   C2        1.0  0.4440028478155043  0.4170618183824145  0.3165388243649971  1.0000
  C   C3        1.0  0.9440076996919018  0.082937028830429  0.31653398991910814  1.0000
  C   C4        1.0  0.5559970842391521  0.5829336908932276  0.68346037496827  1.0000
  C   C5        1.0  0.06224003417700889  0.0116298311763927  0.681512031221466  1.0000
  C   C6        1.0  0.4377616892466492  0.5116277199563299  0.3184976164179715  1.0000
  C   C7        1.0  0.9377716885236324  0.9883731156980601  0.3184950347453109  1.0000
  C   C8        1.0  0.5622285213842844  0.4883657608795033  0.6815024793095148  1.0000
  C   C9        1.0  0.9994003856468933  0.05826300297159289  0.7505893005969353  1.0000
  C   C10       1.0  0.5006047275694455  0.558267575305891  0.24941736647403448  1.0000
  C   C11       1.0  0.000606089610599302  0.9417358870241728  0.2494141946684678  1.0000
  C   C12       1.0  0.49938276255765857  0.4417353716753425  0.7505799391034242  1.0000
  C   C13       1.0  0.9317437512533644  0.011160004206899998  0.8178556750145416  1.0000
  C   C14       1.0  0.5682545452117722  0.5111555971286066  0.18214922460823144  1.0000
  C   C15       1.0  0.0682514489175787  0.9888456473438368  0.18214531208681706  1.0000
  C   C16       1.0  0.43174130616393575  0.48884464524143567  0.8178457895577153  1.0000
  C   C17       1.0  0.9284292371479878  0.9166610387080567  0.8122752823040925  1.0000
  C   C18       1.0  0.5715636396470103  0.41665930210250934  0.18773672916321968  1.0000
  C   C19       1.0  0.0715673877012861  0.08334393667616519  0.18772776966704185  1.0000
  C   C20       1.0  0.42844368011094497  0.5833443209760392  0.8122628025634524  1.0000
  C   C21       1.0  0.12896136403064423  0.0579694972139038  0.6071635774911498  1.0000
  C   C22       1.0  0.3710396718598972  0.5579742519071615  0.3928461748359665  1.0000
  C   C23       1.0  0.8710416106818711  0.9420341258405002  0.3928417609824705  1.0000
  C   C24       1.0  0.6289602601728177  0.44202396197525207  0.6071530244808087  1.0000
  C   C25       1.0  0.24679624068856756  0.015742489831296804  0.5608167478052265  1.0000
  C   C26       1.0  0.2531958234345453  0.5157458558736394  0.43919508566977317  1.0000
  C   C27       1.0  0.7532048581687008  0.9842570763555755  0.439181837090949  1.0000
  C   C28       1.0  0.7468109096986737  0.4842483010443813  0.5608110889025113  1.0000
  C   C29       1.0  0.3028751707227287  0.058392409429842494  0.48803685794452883  1.0000
  C   C30       1.0  0.1971268962218957  0.5583972054688073  0.5119709351737568  1.0000
  C   C31       1.0  0.6971231432591409  0.941605804479316  0.5119582670480725  1.0000
  C   C32       1.0  0.8028843753566902  0.44159424685467025  0.4880314421265695  1.0000
  C   C33       1.0  0.2456719316258358  0.1446297483253502  0.460859632071866  1.0000
  C   C34       1.0  0.2543338545390341  0.6446339928293415  0.5391493405139727  1.0000
  C   C35       1.0  0.754329882873584  0.855367113283634  0.539133649691905  1.0000
  C   C36       1.0  0.7456767658238163  0.3553642209782168  0.46085900971352334  1.0000
  C   C37       1.0  0.1308146161729056  0.18777901644461542  0.5078913190148953  1.0000
  C   C38       1.0  0.3691856091534619  0.6877772322963551  0.4921175756140314  1.0000
  C   C39       1.0  0.8691839556408067  0.8122198736003413  0.4921064852516038  1.0000
  C   C40       1.0  0.630812569386073  0.3122155723346153  0.5078888809359867  1.0000
  C   C41       1.0  0.0720387855373232  0.14459021696549704  0.5793867473479892  1.0000
  C   C42       1.0  0.42796791028404607  0.6445923860029336  0.4206189320421885  1.0000
  C   C43       1.0  0.9279612754085632  0.8554086730606655  0.4206137916036709  1.0000
  C   C44       1.0  0.5720395384748541  0.35540109479227067  0.5793819393853281  1.0000
  C   C45       1.0  0.30053788761085803  0.19051780000285853  0.38125924875192396  1.0000
  C   C46       1.0  0.19946767617673086  0.6905233913088934  0.6187418516355618  1.0000
  C   C47       1.0  0.6994639913533688  0.809478385450454  0.6187347028354749  1.0000
  C   C48       1.0  0.8005386056808205  0.3094782033055665  0.3812596341548441  1.0000
  C   C49       1.0  0.8710539622733152  0.057133952134094584  0.8942603553017745  1.0000
  C   C50       1.0  0.6289486423263781  0.5571247564630327  0.10574554498757749  1.0000
  C   C51       1.0  0.1289396198413044  0.9428723755950726  0.10573655747128899  1.0000
  C   C52       1.0  0.3710530366648682  0.44287480968808524  0.8942590682841355  1.0000
  C   C53       1.0  0.7501789088869586  0.017187577383843695  0.9400933747464819  1.0000
  C   C54       1.0  0.7498263552163067  0.5171865132558721  0.05990843469789551  1.0000
  C   C55       1.0  0.24981798039463138  0.982814017298601  0.0598996853598521  1.0000
  C   C56       1.0  0.25017137198721423  0.4828211667401662  0.9400933330248902  1.0000
  C   C57       1.0  0.6996790792036264  0.0595829636256084  0.014566180230900685  1.0000
  C   C58       1.0  0.8003279595933677  0.5595771686138491  0.985435223065252  1.0000
  C   C59       1.0  0.3003168366423807  0.940415926437069  0.9854295037627949  1.0000
  C   C60       1.0  0.19968059149784517  0.44042172139995023  0.014564364097417097  1.0000
  C   C61       1.0  0.7658147314685665  0.1433997719792686  0.0440757788831334  1.0000
  C   C62       1.0  0.7341948989642831  0.6433966211482129  0.9559274477906428  1.0000
  C   C63       1.0  0.2341815066740907  0.8565991180635422  0.9559232542080806  1.0000
  C   C64       1.0  0.2658098937885214  0.3566015927265695  0.0440713033352083  1.0000
  C   C65       1.0  0.8839043849586047  0.18429244872400116  0.9976621048301908  1.0000
  C   C66       1.0  0.6160832631668357  0.6842878725630969  0.0023356623472495057  1.0000
  C   C67       1.0  0.1160892616372848  0.8157111743944226  0.0023354777788711016  1.0000
  C   C68       1.0  0.3839055227418767  0.3157116936528013  0.9976623684774708  1.0000
  C   C69       1.0  0.9371129487067691  0.14126178616070453  0.9245147852769193  1.0000
  C   C70       1.0  0.5628788981729969  0.6412565952784277  0.0754816634054407  1.0000
  C   C71       1.0  0.0628780418994808  0.8587445415822046  0.07548067704284728  1.0000
  C   C72       1.0  0.4371087209001914  0.35874297093639024  0.924516981831637  1.0000
  C   C73       1.0  0.7159480054543934  0.1893229598881589  0.1250056813197133  1.0000
  C   C74       1.0  0.7840518095036444  0.6893218793315299  0.8749919087436879  1.0000
  C   C75       1.0  0.28405581382442335  0.8106772824287132  0.8749956936646439  1.0000
  C   C76       1.0  0.2159391166706968  0.31068106765689424  0.125002883777185  1.0000
  N   N1        1.0  0.9902884938105458  0.8708621475433418  0.7470547692395968  1.0000
  N   N2        1.0  0.5097123204919639  0.3708660087094842  0.25295612367341386  1.0000
  N   N3        1.0  0.009714352005247002  0.1291387709122347  0.25294922961150945  1.0000
  N   N4        1.0  0.4902961016860701  0.6291322051605661  0.7470421238543705  1.0000
  O   O1        1.0  0.6017195339011892  0.15223673638067234  0.16324012095447665  1.0000
  O   O2        1.0  0.8982871038027581  0.6522322335892811  0.8367588682336943  1.0000
  O   O3        1.0  0.398292711047155  0.8477655343828872  0.8367596324090129  1.0000
  O   O4        1.0  0.1017107523688026  0.34776936103357764  0.163244239165202  1.0000
  O   O5        1.0  0.787240825959401  0.26271554583895806  0.15118472686353354  1.0000
  O   O6        1.0  0.7127578625769572  0.7627103314552882  0.8488126380572607  1.0000
  O   O7        1.0  0.2127722635113543  0.7372887534006125  0.8488110629777097  1.0000
  O   O8        1.0  0.28723960689347905  0.2372845016744662  0.15118645046583618  1.0000
  O   O9        1.0  0.4154104077778271  0.15281217276253048  0.34406793615441694  1.0000
  O   O10       1.0  0.08457904541329948  0.6528151155760185  0.6559382069072226  1.0000
  O   O11       1.0  0.584582200895717  0.8471921264985623  0.6559316005018871  1.0000
  O   O12       1.0  0.915420106545362  0.34718242212979794  0.3440656257430632  1.0000
  O   O13       1.0  0.23202642709556187  0.2645810473813128  0.3547823569692098  1.0000
  O   O14       1.0  0.26796620207964134  0.7645867238722843  0.6452233145561336  1.0000
  O   O15       1.0  0.7679648214083484  0.73541784267708  0.6452157846739226  1.0000
  O   O16       1.0  0.7320385906786484  0.23541081385080528  0.3547754365738456  1.0000
