data_image0
_chemical_formula_structural       Zn4H48C56N8O20
_chemical_formula_sum              "Zn4 H48 C56 N8 O20"
_cell_length_a       7.145250705
_cell_length_b       11.195390404739205
_cell_length_c       19.9516
_cell_angle_alpha    90.0
_cell_angle_beta     90.0
_cell_angle_gamma    92.70604971634103

_space_group_name_H-M_alt    "P 1"
_space_group_IT_number       1

loop_
  _space_group_symop_operation_xyz
  'x, y, z'

loop_
  _atom_site_type_symbol
  _atom_site_label
  _atom_site_symmetry_multiplicity
  _atom_site_fract_x
  _atom_site_fract_y
  _atom_site_fract_z
  _atom_site_occupancy
  Zn  Zn1       1.0  0.22452085955433182  0.5979080728912933  0.8428090980171987  1.0000
  Zn  Zn2       1.0  0.7754921097641514  0.9020910720090001  0.3428090980171987  1.0000
  Zn  Zn3       1.0  0.7754690898832519  0.4020976165956682  0.1571904007698635  1.0000
  Zn  Zn4       1.0  0.22450870518003535  0.0979101463683705  0.6571919044086698  1.0000
  H   H1        1.0  0.0036776526189541002  0.6068189943153328  0.7011292327432415  1.0000
  H   H2        1.0  0.9963331791205832  0.8931890928041498  0.20113574851139757  1.0000
  H   H3        1.0  0.9963102358045148  0.3931777529524396  0.2988657551274088  1.0000
  H   H4        1.0  0.0036679665651533  0.1068165966828118  0.7988657551274088  1.0000
  H   H5        1.0  0.6804167681354869  0.6535134744879798  0.6879979550512232  1.0000
  H   H6        1.0  0.3195921348865554  0.8464874588561528  0.187998456264161  1.0000
  H   H7        1.0  0.31956912542217714  0.3464752247825231  0.3119995388841019  1.0000
  H   H8        1.0  0.680410079588647  0.1535137595212106  0.8120035485875832  1.0000
  H   H9        1.0  0.6916719667421205  0.5024248448114221  0.7119308727119602  1.0000
  H   H10       1.0  0.30834253440399817  0.9975760885327106  0.2119308727119602  1.0000
  H   H11       1.0  0.3083181254085972  0.4975638544590808  0.2880696285009705  1.0000
  H   H12       1.0  0.6916612118988468  0.0024269182884922  0.7880701297139083  1.0000
  H   H13       1.0  0.1575271339880544  0.8076361991361125  0.9337722287936785  1.0000
  H   H14       1.0  0.8424800387614224  0.692360263098422  0.4337687203031351  1.0000
  H   H15       1.0  0.8424696808080013  0.1923677019070098  0.0662282724192522  1.0000
  H   H16       1.0  0.15752457788596527  0.3076355899474308  0.5662277712063215  1.0000
  H   H17       1.0  0.1392946725532695  0.8443484800256157  0.058743659656372  1.0000
  H   H18       1.0  0.8607280273340336  0.655649770652758  0.5587416548046278  1.0000
  H   H19       1.0  0.8607134707875589  0.1556572094613458  0.9412568415565659  1.0000
  H   H20       1.0  0.1392833885235163  0.344343399727336  0.441256340343628  1.0000
  H   H21       1.0  0.1885982135541369  0.6715874879172432  0.13679805128411  1.0000
  H   H22       1.0  0.8114132900850137  0.8284107627611235  0.6367960464323659  1.0000
  H   H23       1.0  0.8114185254177357  0.3284208842354701  0.8632029511417657  1.0000
  H   H24       1.0  0.18858666493114376  0.171578830731292  0.3632024499288278  1.0000
  H   H25       1.0  0.256128360384352  0.4739921646710528  0.0891607690611309  1.0000
  H   H26       1.0  0.743876433074675  0.0260021849641916  0.589155756931774  1.0000
  H   H27       1.0  0.7438910453529388  0.5260144190378213  0.9108407345776754  1.0000
  H   H28       1.0  0.2561165242863908  0.9739874085282239  0.4108432406423574  1.0000
  H   H29       1.0  0.3194138458495104  0.3149941421198719  0.0420146755147428  1.0000
  H   H30       1.0  0.6805880162508515  0.18499841907153317  0.5420141743018121  1.0000
  H   H31       1.0  0.6805923687738228  0.6850043935917327  0.9579833196335131  1.0000
  H   H32       1.0  0.3194191348653277  0.8149938570866412  0.4579883317628628  1.0000
  H   H33       1.0  0.363685565663701  0.1288502247699483  0.9766144068646126  1.0000
  H   H34       1.0  0.6363096956714287  0.3711477017529816  0.4766169129292877  1.0000
  H   H35       1.0  0.6363211781461118  0.8711554647170132  0.0233810822189682  1.0000
  H   H36       1.0  0.3637063818173445  0.6288517281805497  0.523388600413  1.0000
  H   H37       1.0  0.3539252871021219  0.1372889970206899  0.8492351490607248  1.0000
  H   H38       1.0  0.6460647068504812  0.3627134006118311  0.3492351490607248  1.0000
  H   H39       1.0  0.6460831869802631  0.8627211635758698  0.1507623448745932  1.0000
  H   H40       1.0  0.353937639921341  0.6372896062093716  0.6507683594298186  1.0000
  H   H41       1.0  0.3040413690257894  0.3336672842349557  0.7950610477355227  1.0000
  H   H42       1.0  0.6959583554956339  0.1663342191756456  0.2950585416708407  1.0000
  H   H43       1.0  0.6959642398462408  0.6663419821396843  0.204939954690353  1.0000
  H   H44       1.0  0.3040325304347959  0.8336652107578786  0.7049429619679657  1.0000
  H   H45       1.0  0.9618701947193955  0.4481715067564451  0.776905110367089  1.0000
  H   H46       1.0  0.03812952980202769  0.05182999665415619  0.2769071152188332  1.0000
  H   H47       1.0  0.0381304879281714  0.5518279231770791  0.2230933859941047  1.0000
  H   H48       1.0  0.9618600888940066  0.9481712217232073  0.7230913811423676  1.0000
  C   C1        1.0  0.9209251304610858  0.6165874745598074  0.7477891497423741  1.0000
  C   C2        1.0  0.0790839048575762  0.8834152472281573  0.24779265823292462  1.0000
  C   C3        1.0  0.0790685545313892  0.3834119553737239  0.2522073417670754  1.0000
  C   C4        1.0  0.9209157090005177  0.11658865381495791  0.7522098478317503  1.0000
  C   C5        1.0  0.9724789894781409  0.7436984376970628  0.7718814531165421  1.0000
  C   C6        1.0  0.027528778606118503  0.7563060725347412  0.271883959181217  1.0000
  C   C7        1.0  0.0275011632423059  0.2563072517898988  0.2281110286894261  1.0000
  C   C8        1.0  0.9724734358690837  0.2436951458426222  0.7281190480963957  1.0000
  C   C9        1.0  0.7152222346345666  0.5948891796923377  0.729920407385876  1.0000
  C   C10       1.0  0.2847853350047629  0.9051126478737075  0.2299209085988068  1.0000
  C   C11       1.0  0.2847695877887162  0.40510399068774927  0.2700780889753176  1.0000
  C   C12       1.0  0.7152141465567112  0.0948894647255756  0.7700805950399996  1.0000
  C   C13       1.0  0.5747552736542402  0.6151298928316393  0.7857309689448471  1.0000
  C   C14       1.0  0.4252522298367792  0.8848710405124862  0.2857309689448471  1.0000
  C   C15       1.0  0.425238080596678  0.384865065992294  0.2142690310551529  1.0000
  C   C16       1.0  0.5747443865143467  0.1151301778648772  0.7142720383327656  1.0000
  C   C17       1.0  0.1806841477550734  0.7376391899731018  0.9705211612101294  1.0000
  C   C18       1.0  0.8193174930186374  0.7623581664833523  0.47051815393251667  1.0000
  C   C19       1.0  0.8193127331892923  0.2623656052919401  0.029479841215739103  1.0000
  C   C20       1.0  0.1806827927390771  0.2376358981186613  0.5294793400028084  1.0000
  C   C21       1.0  0.1703360117717239  0.7563883409513039  0.0393888209466908  1.0000
  C   C22       1.0  0.8296669623846925  0.7436081212832305  0.5393868160949467  1.0000
  C   C23       1.0  0.8296665995933381  0.2436182427575773  0.9606106778403712  1.0000
  C   C24       1.0  0.17033172539706945  0.2563832606530241  0.46061017662744064  1.0000
  C   C25       1.0  0.1979237634371529  0.660639528961454  0.0825076685579091  1.0000
  C   C26       1.0  0.8020836077572538  0.8393596159388395  0.5825041600673657  1.0000
  C   C27       1.0  0.802088909238286  0.3393706316351057  0.9174933338679594  1.0000
  C   C28       1.0  0.19791348204856257  0.1606290833316564  0.4174938350808972  1.0000
  C   C29       1.0  0.2350125947926287  0.54927760226375  0.0556271176246526  1.0000
  C   C30       1.0  0.7649878448949892  0.9507224368584559  0.5556251127729084  1.0000
  C   C31       1.0  0.7650027446482284  0.4507307698889704  0.9443728823753473  1.0000
  C   C32       1.0  0.23500364678674399  0.0492662624120399  0.4443753884400223  1.0000
  C   C33       1.0  0.24425771456709813  0.5367504473987879  0.9859104031756872  1.0000
  C   C34       1.0  0.7557408625513345  0.9632433321699877  0.4859058922592681  1.0000
  C   C35       1.0  0.7557433649703282  0.4632543478662541  0.0140905992501885  1.0000
  C   C36       1.0  0.2442565579960316  0.0367498382101061  0.5140941077407319  1.0000
  C   C37       1.0  0.2801409907348784  0.4217105859477428  0.9523792578038837  1.0000
  C   C38       1.0  0.7198596702793978  0.0782846579094212  0.4523777541650773  1.0000
  C   C39       1.0  0.7198641550989888  0.5782924208734599  0.0476207421961163  1.0000
  C   C40       1.0  0.2801421473059449  0.9217111951364245  0.5476242506866598  1.0000
  C   C41       1.0  0.3130632840323457  0.3161172848502929  0.9873889813348313  1.0000
  C   C42       1.0  0.6869375092785504  0.1838797474507174  0.4873889813348313  1.0000
  C   C43       1.0  0.686940594567119  0.683887510414749  0.012610517452237999  1.0000
  C   C44       1.0  0.3130615753930712  0.8161169998170549  0.5126145271557192  1.0000
  C   C45       1.0  0.33894943075486583  0.2122739760485572  0.9504946971671445  1.0000
  C   C46       1.0  0.6610523651971931  0.2877176909209354  0.4504936947412759  1.0000
  C   C47       1.0  0.6610555166340717  0.7877263481068867  0.0495037991940492  1.0000
  C   C48       1.0  0.3389619158707049  0.7122763736810782  0.5495093125363368  1.0000
  C   C49       1.0  0.33442253083993717  0.21566844245354128  0.8805409089997767  1.0000
  C   C50       1.0  0.6655738654329753  0.2843259071817101  0.3805419114256523  1.0000
  C   C51       1.0  0.6655868135869838  0.7843345643676615  0.1194555825096728  1.0000
  C   C52       1.0  0.3344292855350801  0.715669051642223  0.6194641031295731  1.0000
  C   C53       1.0  0.3054500886791871  0.3250317831620038  0.8495774774955365  1.0000
  C   C54       1.0  0.6945493712489962  0.1749661433609191  0.3495804847731492  1.0000
  C   C55       1.0  0.6945511893031693  0.674975694768797  0.1504195152268508  1.0000
  C   C56       1.0  0.3054456471261844  0.8250323923506855  0.6504245273562006  1.0000
  N   N1        1.0  0.21728555180005316  0.630585624481725  0.9447031816997153  1.0000
  N   N2        1.0  0.7827116919356738  0.8694090493089704  0.4447006756350333  1.0000
  N   N3        1.0  0.7827113291443197  0.369419170783317  0.0552973195132225  1.0000
  N   N4        1.0  0.217285860908305  0.1305859095149557  0.555298321939091  1.0000
  N   N5        1.0  0.277155029141305  0.42440577081197256  0.8847696425349341  1.0000
  N   N6        1.0  0.7228513622936603  0.0755912614890306  0.3847671364702592  1.0000
  N   N7        1.0  0.7228459842478117  0.5755981302311497  0.1152313598909345  1.0000
  N   N8        1.0  0.2771505214399923  0.9244054857787347  0.6152343671685472  1.0000
  O   O1        1.0  0.9821174020049241  0.5333685001006714  0.796250927243932  1.0000
  O   O2        1.0  0.017908295389347007  0.966632433243454  0.2962574430120881  1.0000
  O   O3        1.0  0.01788474632196819  0.4666318240547724  0.2037465666913931  1.0000
  O   O4        1.0  0.9820955832101176  0.0333723620215878  0.703744561839649  1.0000
  O   O5        1.0  0.09824863007528249  0.758559511770926  0.8166648288859051  1.0000
  O   O6        1.0  0.9017676674917181  0.7414467869047172  0.3166683373764485  1.0000
  O   O7        1.0  0.9017283928415836  0.24144170660643738  0.1833316626235515  1.0000
  O   O8        1.0  0.0982335443423281  0.258559796804164  0.6833361735399635  1.0000
  O   O9        1.0  0.8921560778700126  0.8259275084917234  0.741111489805327  1.0000
  O   O10       1.0  0.1078542908313551  0.6740743190743217  0.2411134946570712  1.0000
  O   O11       1.0  0.10782907763972098  0.1740701329979615  0.2588794883618348  1.0000
  O   O12       1.0  0.8921381269267172  0.3259268993030418  0.7588895126205415  1.0000
  O   O13       1.0  0.40241116946312167  0.5924041369791055  0.7671755648669816  1.0000
  O   O14       1.0  0.5976006649175785  0.9075985848088592  0.2671755648669816  1.0000
  O   O15       1.0  0.5975797164673153  0.4075952929544187  0.2328254375588941  1.0000
  O   O16       1.0  0.4023958191369346  0.09240084512466501  0.7328289460494375  1.0000
  O   O17       1.0  0.6229003469383017  0.6492390937145771  0.843133883999279  1.0000
  O   O18       1.0  0.37710949257658644  0.8507555800761111  0.3431313779346041  1.0000
  O   O19       1.0  0.37710033570926527  0.3507603362189471  0.1568646123619146  1.0000
  O   O20       1.0  0.6228842585641913  0.1492447440793327  0.65687062691714  1.0000
