data_image0
_chemical_formula_structural       Cd2H36C52N4O16
_chemical_formula_sum              "Cd2 H36 C52 N4 O16"
_cell_length_a       8.293869481428205
_cell_length_b       8.295087281613906
_cell_length_c       17.8667
_cell_angle_alpha    103.41920700106894
_cell_angle_beta     103.42121420579844
_cell_angle_gamma    89.99989758268542

_space_group_name_H-M_alt    "P 1"
_space_group_IT_number       1

loop_
  _space_group_symop_operation_xyz
  'x, y, z'

loop_
  _atom_site_type_symbol
  _atom_site_label
  _atom_site_symmetry_multiplicity
  _atom_site_fract_x
  _atom_site_fract_y
  _atom_site_fract_z
  _atom_site_occupancy
  Cd  Cd1       1.0  0.5000673708315446  0.4999298920078417  0.9999988095598695  1.0000
  Cd  Cd2       1.0  0.7499421975610474  0.2500605325198251  0.5000005180367779  1.0000
  H   H1        1.0  0.848094151203945  0.5200204397140737  0.955773692287714  1.0000
  H   H2        1.0  0.6857103545030654  0.5976962770271328  0.4559427727440664  1.0000
  H   H3        1.0  0.1088113714430463  0.435656029054428  0.9560713526585899  1.0000
  H   H4        1.0  0.7700985055095231  0.8583222230125926  0.45608088821880693  1.0000
  H   H5        1.0  0.4022762492887821  0.3143294299399457  0.5440517253513804  1.0000
  H   H6        1.0  0.5643042378819842  0.8911568119170568  0.04392698287769289  1.0000
  H   H7        1.0  0.1417079010968578  0.2298421223312772  0.5439220051716802  1.0000
  H   H8        1.0  0.480031724122007  0.151931663570096  0.04422788128741929  1.0000
  H   H9        1.0  0.07287303926366208  0.7252409652086342  0.9570798479319363  1.0000
  H   H10       1.0  0.48183642422451095  0.8226088661811062  0.45711931766819447  1.0000
  H   H11       1.0  0.8848510219874299  0.23190157726482843  0.9570794491010093  1.0000
  H   H12       1.0  0.9751002925984193  0.6346261895155649  0.4572698146736159  1.0000
  H   H13       1.0  0.1773601381170024  0.5182018131452679  0.5428813506559251  1.0000
  H   H14       1.0  0.768065509515722  0.1151047858975076  0.042914929632907176  1.0000
  H   H15       1.0  0.36542028183064446  0.024857459668169192  0.5427327672674948  1.0000
  H   H16       1.0  0.2748018108594223  0.9271606524462186  0.042916525552321595  1.0000
  H   H17       1.0  0.9807149761183354  0.4109773285848348  0.11356157946258345  1.0000
  H   H18       1.0  0.9523219774080189  0.7308023624975561  0.6136056969400842  1.0000
  H   H19       1.0  0.1326992184628892  0.7027955133378683  0.1135749290762504  1.0000
  H   H20       1.0  0.6605581089627177  0.8823727835205375  0.6135865126137645  1.0000
  H   H21       1.0  0.2691809953768498  0.0476778093026056  0.3863878974046386  1.0000
  H   H22       1.0  0.2972011376766162  0.8672800450743878  0.8864285205663761  1.0000
  H   H23       1.0  0.1176710004545924  0.3394426145727323  0.38641593217187153  1.0000
  H   H24       1.0  0.5890129042770553  0.0192910968459543  0.886435671761312  1.0000
  H   H25       1.0  0.2765345460118666  0.3950205873455913  0.18063734919111596  1.0000
  H   H26       1.0  0.0356953566667002  0.0264662924553249  0.680741030773561  1.0000
  H   H27       1.0  0.9042220699810455  0.7858589542745731  0.18074580295677825  1.0000
  H   H28       1.0  0.6447184039836173  0.6540426660771812  0.6808280862266827  1.0000
  H   H29       1.0  0.9734745754147908  0.9642941517996917  0.3192485570795753  1.0000
  H   H30       1.0  0.2141347777467999  0.09572803360223497  0.8192525111909249  1.0000
  H   H31       1.0  0.3460272272212777  0.3552752174796368  0.3191730483206285  1.0000
  H   H32       1.0  0.6049672858771726  0.7235166837724023  0.8193628341769424  1.0000
  H   H33       1.0  0.609918678607599  0.3751038333046353  0.2500529603730399  1.0000
  H   H34       1.0  0.1251597971285676  0.3596771627444895  0.7498562703627769  1.0000
  H   H35       1.0  0.6403629951523939  0.8748375867473752  0.25014598358959006  1.0000
  H   H36       1.0  0.6248905991282782  0.3900463643686436  0.7499436807058331  1.0000
  C   C1        1.0  0.8380662515717316  0.6531228010345274  0.9759110117848806  1.0000
  C   C2        1.0  0.5726429096732204  0.5878210726893229  0.4760229387845881  1.0000
  C   C3        1.0  0.13869573914301714  0.3225585599908953  0.9761152679930233  1.0000
  C   C4        1.0  0.9032417295511692  0.888374871889269  0.4761312686394987  1.0000
  C   C5        1.0  0.41216784714889326  0.4273772436705414  0.5239717701737945  1.0000
  C   C6        1.0  0.6774167186463842  0.8612878877722421  0.023882990787150515  1.0000
  C   C7        1.0  0.1116448174009221  0.0967211402609749  0.5238751357318349  1.0000
  C   C8        1.0  0.3469113538742761  0.1619446614568005  0.024088694882515006  1.0000
  C   C9        1.0  0.9608391757591193  0.7671823421737116  0.9760195948671537  1.0000
  C   C10       1.0  0.4587285219903591  0.7106261593420056  0.47605401634388034  1.0000
  C   C11       1.0  0.015764587151714696  0.20870260571675195  0.9760837735476643  1.0000
  C   C12       1.0  0.017180016927788696  0.7655673024699468  0.476179513460366  1.0000
  C   C13       1.0  0.28936317260485117  0.5412977498775005  0.5239469932716645  1.0000
  C   C14       1.0  0.7912709643813824  0.9842071816906781  0.023910224975601562  1.0000
  C   C15       1.0  0.23445710323673544  0.9827920047019774  0.5238267060630122  1.0000
  C   C16       1.0  0.23284771003408616  0.0391792990704687  0.02397600690250099  1.0000
  C   C17       1.0  0.9373258768877689  0.9370718569004026  0.9999772953581  1.0000
  C   C18       1.0  0.3127204273854503  0.6872881528617043  0.5000017080720411  1.0000
  C   C19       1.0  0.06293258654144299  0.0626749612328439  1.4766264840196703e-05  1.0000
  C   C20       1.0  0.1871440860208864  0.8128553174089959  0.5000029581040906  1.0000
  C   C21       1.0  0.7123773268351316  0.3934800306412214  0.1580239913686583  1.0000
  C   C22       1.0  0.014177700727770998  0.4624016327575191  0.6580398441698706  1.0000
  C   C23       1.0  0.44575654057918956  0.7644413677956052  0.1580644734767276  1.0000
  C   C24       1.0  0.6430363942287086  0.1953577349899831  0.6578948960866597  1.0000
  C   C25       1.0  0.5376187534959556  0.9858296696943896  0.3419624748736325  1.0000
  C   C26       1.0  0.2355597027096863  0.5542677228405992  0.8419459800306583  1.0000
  C   C27       1.0  0.8046369482256068  0.35695480911622457  0.3421045907007496  1.0000
  C   C28       1.0  0.6065094285271186  0.2876036883700266  0.8419766333121216  1.0000
  C   C29       1.0  0.882236490232529  0.3842838629813272  0.21032677564647168  1.0000
  C   C30       1.0  0.0760558453382885  0.6321471470186992  0.7103104192329113  1.0000
  C   C31       1.0  0.3281220045033635  0.8263528782845455  0.21024977083110488  1.0000
  C   C32       1.0  0.6335856893424248  0.0778620448115674  0.7101842833527598  1.0000
  C   C33       1.0  0.367853583795906  0.9239442282552375  0.2896895554991445  1.0000
  C   C34       1.0  0.173641957995045  0.6718825858180608  0.7897534136497768  1.0000
  C   C35       1.0  0.9221512494575774  0.3664042189741039  0.28981594977447855  1.0000
  C   C36       1.0  0.6157011024492149  0.1177625875929493  0.7896725125313679  1.0000
  C   C37       1.0  0.0134628997545789  0.3945749307324817  0.17374406121371067  1.0000
  C   C38       1.0  0.029061654124085096  0.7634197093204235  0.6737615378470352  1.0000
  C   C39       1.0  0.16026591706807378  0.7795130027252455  0.1737178082265984  1.0000
  C   C40       1.0  0.6439876774539854  0.9100208728997501  0.6737283021522558  1.0000
  C   C41       1.0  0.23655737727834486  0.9709355525799879  0.32623222220410497  1.0000
  C   C42       1.0  0.220480721171441  0.8397163697611632  0.8262850920780025  1.0000
  C   C43       1.0  0.0900285249822659  0.3560051508738127  0.3262738968312533  1.0000
  C   C44       1.0  0.6054127726762528  0.9865459478720027  0.8262560149328451  1.0000
  C   C45       1.0  0.1789014858252855  0.38550414278824957  0.2113139304458898  1.0000
  C   C46       1.0  0.0758943730118844  0.9287744507666673  0.7113810514122179  1.0000
  C   C47       1.0  0.0325231476987042  0.8261927398358253  0.2113564132424912  1.0000
  C   C48       1.0  0.6350199487931576  0.7823508050025865  0.7114057764720201  1.0000
  C   C49       1.0  0.0711839210247902  0.9240919528707252  0.288613437717288  1.0000
  C   C50       1.0  0.1738001720917808  0.9674410585245639  0.7886399738500955  1.0000
  C   C51       1.0  0.2176959963402254  0.3649741453855242  0.2886001970376455  1.0000
  C   C52       1.0  0.6144747544395912  0.8211539649260615  0.7886913375891496  1.0000
  N   N1        1.0  0.6993512511002109  0.6987423967869049  0.9998636419211522  1.0000
  N   N2        1.0  0.5508015048250456  0.4492082107962076  0.49999791250146325  1.0000
  N   N3        1.0  0.3012683576894801  0.3006419374159108  0.00013723068276050887  1.0000
  N   N4        1.0  0.9490087561954111  0.0509823717095514  0.5000037455467705  1.0000
  O   O1        1.0  0.7057902961850501  0.3985088744843992  0.08735287555493437  1.0000
  O   O2        1.0  0.9380785578574803  0.4559675429922336  0.5874393090804232  1.0000
  O   O3        1.0  0.3816387019353867  0.6888311923327137  0.08736385349494918  1.0000
  O   O4        1.0  0.6480469468038732  0.1311633205692715  0.5872274917166038  1.0000
  O   O5        1.0  0.5440472744527085  0.0619288898554728  0.41255682126690363  1.0000
  O   O6        1.0  0.3111521214497444  0.6183826887286088  0.912644377258772  1.0000
  O   O7        1.0  0.8688416279851265  0.3519532757061653  0.41277351320773187  1.0000
  O   O8        1.0  0.6014803414081695  0.294196675200709  0.9126461258694292  1.0000
  O   O9        1.0  0.5795153462128866  0.3928357526963708  0.1838855423431127  1.0000
  O   O10       1.0  0.0408321111833203  0.3294780306356415  0.6838288226674223  1.0000
  O   O11       1.0  0.6044953534032941  0.7905513832371014  0.1840657872741644  1.0000
  O   O12       1.0  0.6426247988791262  0.3541008688556815  0.6838011870176857  1.0000
  O   O13       1.0  0.6705674958042707  0.9591746869739026  0.3161750240822058  1.0000
  O   O14       1.0  0.2094510373325633  0.39554941664136567  0.8159481406154114  1.0000
  O   O15       1.0  0.6458683453350034  0.3573595000796601  0.3161931325473546  1.0000
  O   O16       1.0  0.6071716863551018  0.4204478419592093  0.816111740604036  1.0000
