data_image0
_chemical_formula_structural       Cu4P4H64C32N4O24
_chemical_formula_sum              "Cu4 P4 H64 C32 N4 O24"
_cell_length_a       6.999009748
_cell_length_b       11.184755605
_cell_length_c       14.25
_cell_angle_alpha    90.0
_cell_angle_beta     90.0
_cell_angle_gamma    90.0

_space_group_name_H-M_alt    "P 1"
_space_group_IT_number       1

loop_
  _space_group_symop_operation_xyz
  'x, y, z'

loop_
  _atom_site_type_symbol
  _atom_site_label
  _atom_site_symmetry_multiplicity
  _atom_site_fract_x
  _atom_site_fract_y
  _atom_site_fract_z
  _atom_site_occupancy
  Cu  Cu1       1.0  0.717355766140308  0.4078551343545413  0.9995831578947332  1.0000
  Cu  Cu2       1.0  0.7826478598012088  0.5921452585910102  0.4995817543859644  1.0000
  Cu  Cu3       1.0  0.2826356972234905  0.907855330827317  0.5004140350877222  1.0000
  Cu  Cu4       1.0  0.21736360639228283  0.0921450621182345  0.0004168421052597  1.0000
  P   P1        1.0  0.9378983936800225  0.6352977437274987  0.965585263157898  1.0000
  P   P2        1.0  0.5620995171672973  0.3647053314402768  0.4655845614035101  1.0000
  P   P3        1.0  0.0620959272308781  0.1353064879954502  0.5344105263157886  1.0000
  P   P4        1.0  0.4379033763848952  0.8646965871723253  0.034412631578945294  1.0000
  H   H1        1.0  0.8754952801360218  0.46676388688065623  0.7412105263157898  1.0000
  H   H2        1.0  0.624508345805495  0.5332365060649025  0.2412049122807005  1.0000
  H   H3        1.0  0.1245018983219737  0.966766765575656  0.758790877192979  1.0000
  H   H4        1.0  0.37549597652024863  0.0332398858884133  0.2587922807017549  1.0000
  H   H5        1.0  0.005422195620006702  0.4386863846901221  0.8471452631578913  1.0000
  H   H6        1.0  0.4945771079957666  0.5613122201072898  0.3471382456140333  1.0000
  H   H7        1.0  0.9945678389702408  0.9386892633851145  0.6528575438596462  1.0000
  H   H8        1.0  0.505427214329977  0.0613164940048776  0.1528610526315788  1.0000
  H   H9        1.0  0.8410304045771683  0.2461886604629129  0.8677228070175431  1.0000
  H   H10       1.0  0.6589775076849946  0.7538045798900583  0.3677221052631552  1.0000
  H   H11       1.0  0.15895820123952834  0.7461906450838356  0.6322785964912256  1.0000
  H   H12       1.0  0.341041102376245  0.2538133241580098  0.1322807017543894  1.0000
  H   H13       1.0  0.9435791973124736  0.2519545441601068  0.755018245614032  1.0000
  H   H14       1.0  0.5564301437232402  0.7480458487854449  0.2550161403508753  1.0000
  H   H15       1.0  0.0564108372777739  0.7519547406328895  0.7449845614035056  1.0000
  H   H16       1.0  0.4435798936967004  0.2480474404608159  0.2449845614035056  1.0000
  H   H17       1.0  0.6046898279016375  0.1751026190616543  0.7477333333333362  1.0000
  H   H18       1.0  0.8953223706811713  0.8248959857357575  0.247734736842105  1.0000
  H   H19       1.0  0.395310208103453  0.6751046036825769  0.7522638596491262  1.0000
  H   H20       1.0  0.10468623796521831  0.3249011537074153  0.2522638596491262  1.0000
  H   H21       1.0  0.6394333143026216  0.3065771055799473  0.6813052631578955  1.0000
  H   H22       1.0  0.8605745979595412  0.6934241814396813  0.1813024561403509  1.0000
  H   H23       1.0  0.3605667217024688  0.8065790902008699  0.8186919298245598  1.0000
  H   H24       1.0  0.1394311531397534  0.1934266671891223  0.3186961403508803  1.0000
  H   H25       1.0  0.3457574838628474  0.3325419107358342  0.7631417543859627  1.0000
  H   H26       1.0  0.1542475348471228  0.66744954146899  0.2631431578947385  1.0000
  H   H27       1.0  0.6542411233686991  0.8325465775789735  0.7368526315789481  1.0000
  H   H28       1.0  0.8457567874786136  0.1674564975888018  0.2368561403508807  1.0000
  H   H29       1.0  0.533999827771062  0.5086137060926887  0.7502975438596522  1.0000
  H   H30       1.0  0.9659980830762507  0.49138132240842936  0.2502947368421076  1.0000
  H   H31       1.0  0.4659916355927294  0.0086152977680527  0.7496989473684224  1.0000
  H   H32       1.0  0.0340090967965878  0.9913877773997156  0.24970315789473566  1.0000
  H   H33       1.0  0.4192878858096449  0.5128310534953329  0.8626021052631572  1.0000
  H   H34       1.0  0.0807099890325773  0.4871603987094915  0.3626000000000005  1.0000
  H   H35       1.0  0.5807021487806026  0.0128353273929207  0.6373929824561415  1.0000
  H   H36       1.0  0.9192986196138122  0.9871677477748547  0.1373957894736861  1.0000
  H   H37       1.0  0.6305477715988488  0.6589334859230503  0.8989522807017565  1.0000
  H   H38       1.0  0.8694472817013692  0.3410633307262145  0.3989473684210552  1.0000
  H   H39       1.0  0.3694436917649498  0.1589332894502675  0.6010477192982435  1.0000
  H   H40       1.0  0.1305556118508235  0.8410688916434309  0.1010512280701761  1.0000
  H   H41       1.0  0.8015148145211555  0.6487329948234475  0.806017543859646  1.0000
  H   H42       1.0  0.6984745236848582  0.3512647158998874  0.3060154385964893  1.0000
  H   H43       1.0  0.198478077616187  0.14873458649881846  0.693982456140354  1.0000
  H   H44       1.0  0.3015255123202323  0.851268488668957  0.19398456140351064  1.0000
  H   H45       1.0  0.33671048974798623  0.4549862491161676  0.1838645614035102  1.0000
  H   H46       1.0  0.1632959577355351  0.5450114616071672  0.6838645614035102  1.0000
  H   H47       1.0  0.6632881174835604  0.9549792929963627  0.3161459649122804  1.0000
  H   H48       1.0  0.8367183660050517  0.0450193118010489  0.8161410526315791  1.0000
  H   H49       1.0  0.2492895513538329  0.43706006395121466  0.0665382456140335  1.0000
  H   H50       1.0  0.2507126098090424  0.5629367526980502  0.5665382456140335  1.0000
  H   H51       1.0  0.7506976256893196  0.93705400190548  0.4334736842105258  1.0000
  H   H52       1.0  0.7492988563844492  0.0629428147437849  0.9334666666666678  1.0000
  H   H53       1.0  0.225313302421192  0.5768315578675569  0.1240996491228046  1.0000
  H   H54       1.0  0.2746860011945813  0.42316525878170796  0.6240989473684238  1.0000
  H   H55       1.0  0.7746910199045516  0.0768242088021935  0.3759080701754414  1.0000
  H   H56       1.0  0.7253140348105163  0.9231735019211413  0.8759038596491209  1.0000
  H   H57       1.0  0.2442845576102499  0.6804377555284091  0.9454856140350856  1.0000
  H   H58       1.0  0.2557118884584213  0.31956353149121947  0.4454863157894735  1.0000
  H   H59       1.0  0.7557097633006435  0.18043755905563327  0.5545157894736832  1.0000
  H   H60       1.0  0.7442895763202202  0.8195619398158482  0.05451438596491439  1.0000
  H   H61       1.0  0.4867359987566076  0.6126132963456925  0.04999087719298249  1.0000
  H   H62       1.0  0.0132604473120708  0.38738709659986625  0.5499908771929825  1.0000
  H   H63       1.0  0.513261179701388  0.1126130998729167  0.4500126315789501  1.0000
  H   H64       1.0  0.9867381599194758  0.8873872930726419  0.9500119298245622  1.0000
  C   C1        1.0  0.8695172916052911  0.4230651224855251  0.8107270175438615  1.0000
  C   C2        1.0  0.6304834767891236  0.5769316941637399  0.3107214035087722  1.0000
  C   C3        1.0  0.1304727429849564  0.9230680011805248  0.6892750877192952  1.0000
  C   C4        1.0  0.369522274310171  0.0769395443576144  0.18927719298245896  1.0000
  C   C5        1.0  0.8307432350214228  0.2906295063386892  0.7991291228070168  1.0000
  C   C6        1.0  0.669263248467189  0.7093682043846526  0.299127719298248  1.0000
  C   C7        1.0  0.1692510858894707  0.7906323850336817  0.7008729824561399  1.0000
  C   C8        1.0  0.3307425026321056  0.20937158420816357  0.2008736842105279  1.0000
  C   C9        1.0  0.6368515204988371  0.2706263871019985  0.7531494736842106  1.0000
  C   C10       1.0  0.8631578205368697  0.7293713236213364  0.253146666666666  1.0000
  C   C11       1.0  0.3631470867327025  0.770628371722921  0.746846315789476  1.0000
  C   C12       1.0  0.1368465017888667  0.22937649159299403  0.24685122807017723  1.0000
  C   C13       1.0  0.4754858358285574  0.3351114796218226  0.8064926315789478  1.0000
  C   C14       1.0  0.0245148965607669  0.6648817607311485  0.3064919298245599  1.0000
  C   C15       1.0  0.5245127714029891  0.8351134642427454  0.6935038596491196  1.0000
  C   C16       1.0  0.9754879969914256  0.1648896109250302  0.1935073684210522  1.0000
  C   C17       1.0  0.527260302938501  0.4662453239182796  0.8203459649122777  1.0000
  C   C18       1.0  0.9727376079088188  0.5337479164346917  0.320343859649121  1.0000
  C   C19       1.0  0.4727340179723925  0.9662464144651253  0.6796498245614018  1.0000
  C   C20       1.0  0.0272652856433737  0.033754872554496294  0.1796547368421031  1.0000
  C   C21       1.0  0.4253730323565748  0.2689777145112657  0.8965150877193011  1.0000
  C   C22       1.0  0.0746319863533955  0.731020890286139  0.396508070175436  1.0000
  C   C23       1.0  0.5746241461014208  0.7689788050581184  0.6034722807017516  1.0000
  C   C24       1.0  0.9253751935194501  0.2310206938133632  0.1034828070175422  1.0000
  C   C25       1.0  0.7590016575584855  0.611633391161611  0.8746245614035075  1.0000
  C   C26       1.0  0.7409905381946303  0.388363425487654  0.3746224561403508  1.0000
  C   C27       1.0  0.240984090711116  0.111634982836982  0.6253733333333358  1.0000
  C   C28       1.0  0.2590109265840113  0.8883671982567235  0.1253761403508804  1.0000
  C   C29       1.0  0.319295168954234  0.4989639646220922  0.1154919298245645  1.0000
  C   C30       1.0  0.1807069922086342  0.5010337461012426  0.6154926315789453  1.0000
  C   C31       1.0  0.6807034382773054  0.9989579025763645  0.3845164912280694  1.0000
  C   C32       1.0  0.8192987588906533  0.0010407022210472  0.8845115789473681  1.0000
  N   N1        1.0  0.7155197921293137  0.4824432638999951  0.8663628070175449  1.0000
  N   N2        1.0  0.7844766899444551  0.517550870527046  0.3663607017543882  1.0000
  N   N3        1.0  0.2844702424609338  0.982445248520925  0.6336343859649105  1.0000
  N   N4        1.0  0.2155262036077374  0.0175569325727807  0.1336371929824551  1.0000
  O   O1        1.0  0.1387310541005391  0.6293458926231068  0.9144835087719301  1.0000
  O   O2        1.0  0.3612668207416831  0.3706518181002281  0.41448491228069867  1.0000
  O   O3        1.0  0.8612646955839054  0.1293465902244009  0.5855150877193012  1.0000
  O   O4        1.0  0.6387346440369583  0.8706538027211579  0.0855150877193012  1.0000
  O   O5        1.0  0.914577951806564  0.7602347606235398  0.0078575438596502  1.0000
  O   O6        1.0  0.585418530267205  0.23977099676645244  0.5078631578947395  1.0000
  O   O7        1.0  0.0854063676894867  0.2602408226692745  0.4921431578947377  1.0000
  O   O8        1.0  0.4145843632849875  0.739761358424424  0.9921424561403498  1.0000
  O   O9        1.0  0.9083542142253336  0.5314510401409862  0.0336554385964902  1.0000
  O   O10       1.0  0.5916508404897272  0.4685520350267893  0.5336547368421023  1.0000
  O   O11       1.0  0.0916358203649139  0.031456208112651  0.466341754385965  1.0000
  O   O12       1.0  0.40835776815666247  0.9685459729810546  0.9663417543859651  1.0000
  O   O13       1.0  0.5141627358110696  0.2892007759699311  0.9734056140350873  1.0000
  O   O14       1.0  0.9858337462626992  0.7107933584571171  0.47340631578947506  1.0000
  O   O15       1.0  0.485844444061776  0.7891920317019725  0.526600000000002  1.0000
  O   O16       1.0  0.014170576063044402  0.2108065730954323  0.0265964912280694  1.0000
  O   O17       1.0  0.293554384688079  0.1909947857103873  0.8893985964912261  1.0000
  O   O18       1.0  0.20644491892769426  0.8089993487166608  0.3893964912280694  1.0000
  O   O19       1.0  0.7064556527318615  0.6910021347757436  0.6105985964912293  1.0000
  O   O20       1.0  0.7935465444361043  0.3090036226142487  0.1105992982456172  1.0000
  O   O21       1.0  0.5039727228566804  0.5347635845816967  0.0824224561403497  1.0000
  O   O22       1.0  0.9960266167641834  0.4652377024379318  0.5824238596491256  1.0000
  O   O23       1.0  0.4960230268277641  0.0347642821829908  0.4175817543859637  1.0000
  O   O24       1.0  0.0039777055615531  0.9652370048366378  0.9175817543859637  1.0000
