data_image0
_chemical_formula_structural       Al6H48C74Cl6O28
_chemical_formula_sum              "Al6 H48 C74 Cl6 O28"
_cell_length_a       12.430576980372923
_cell_length_b       12.30820695797311
_cell_length_c       26.824790162719808
_cell_angle_alpha    82.01352250698619
_cell_angle_beta     82.8619476180102
_cell_angle_gamma    67.34810218398898

_space_group_name_H-M_alt    "P 1"
_space_group_IT_number       1

loop_
  _space_group_symop_operation_xyz
  'x, y, z'

loop_
  _atom_site_type_symbol
  _atom_site_label
  _atom_site_symmetry_multiplicity
  _atom_site_fract_x
  _atom_site_fract_y
  _atom_site_fract_z
  _atom_site_occupancy
  Al  Al1       1.0  0.403142829035545  0.39923748618214444  0.5137334542521044  1.0000
  Al  Al2       1.0  0.6464154709193225  0.4378493790337144  0.49560866834468686  1.0000
  Al  Al3       1.0  0.42286047554654976  0.6536262096611835  0.4960395589719439  1.0000
  Al  Al4       1.0  0.9462593012024244  0.9289204968714913  0.9807892368747273  1.0000
  Al  Al5       1.0  0.9046619184054593  0.6851360497291805  0.994774841679863  1.0000
  Al  Al6       1.0  0.6928573627134398  0.9126935780225549  0.9938442370512488  1.0000
  H   H1        1.0  0.33357186126791316  0.6446317795503232  0.2597170727663424  1.0000
  H   H2        1.0  0.47671743189439303  0.7926982393040019  0.7074025009133036  1.0000
  H   H3        1.0  0.4885619714703397  0.645782991102841  0.7276478895787548  1.0000
  H   H4        1.0  0.49489254042572395  0.6848552005608041  0.8096692586459325  1.0000
  H   H5        1.0  0.5080842993578115  0.8218085628937573  0.7881150277433306  1.0000
  H   H6        1.0  0.8009447035275485  0.7162714858648513  0.6797568838686628  1.0000
  H   H7        1.0  0.6645763836112762  0.8354473352497604  0.6852516757914485  1.0000
  H   H8        1.0  0.8145248364360211  0.5067610558071322  0.7057294997456864  1.0000
  H   H9        1.0  0.8221930452378035  0.5089378198151521  0.791508354920104  1.0000
  H   H10       1.0  0.6913330595385503  0.8410245453617621  0.7682170956324441  1.0000
  H   H11       1.0  0.02304618783157511  0.8299038653815457  0.2889570352710393  1.0000
  H   H12       1.0  0.5255080500546184  0.3231964806933476  0.18383690902907548  1.0000
  H   H13       1.0  0.9890362129018226  0.6328620418653799  0.24627436273505046  1.0000
  H   H14       1.0  0.2798869005202178  0.4742619474548064  0.2952681416536649  1.0000
  H   H15       1.0  0.1295417746815772  0.5000065063953513  0.3029120646377166  1.0000
  H   H16       1.0  0.05378968858776307  0.9131050416480019  0.2243365790311387  1.0000
  H   H17       1.0  0.17933036888860707  0.9331536774942033  0.19382182545631818  1.0000
  H   H18       1.0  0.0905818321999803  0.8939289444794624  0.1592006838008899  1.0000
  H   H19       1.0  0.27977882771774887  0.7512141223270562  0.12930683817945973  1.0000
  H   H20       1.0  0.3513316865088855  0.7898462766598865  0.17295739794358406  1.0000
  H   H21       1.0  0.3761957256013774  0.6397452291177782  0.16986017554590654  1.0000
  H   H22       1.0  0.03668341722176649  0.48760853847819147  0.22682917162699567  1.0000
  H   H23       1.0  0.498321787641302  0.361433171717593  0.26719526161929946  1.0000
  H   H24       1.0  0.13399029917509614  0.45055951215449125  0.17205308384480836  1.0000
  H   H25       1.0  0.17107689574807247  0.3658889886288604  0.23118061275748397  1.0000
  H   H26       1.0  0.17509446904368536  0.8897507879646296  0.29109558404307717  1.0000
  H   H27       1.0  0.30274570895521435  0.787683342238438  0.3185210169113616  1.0000
  H   H28       1.0  0.31306089924447617  0.8564800426971216  0.2563525127809001  1.0000
  H   H29       1.0  0.9685014564635991  0.08470303108595087  0.2852125594483184  1.0000
  H   H30       1.0  0.8703614460656155  0.126458273164765  0.3395565914732614  1.0000
  H   H31       1.0  0.8779822372229591  0.003804198090797701  0.3094768696518527  1.0000
  H   H32       1.0  0.9013164468349686  0.773091853175259  0.7420217845724222  1.0000
  H   H33       1.0  0.8810054338215207  0.7126018186303611  0.8049608703169254  1.0000
  H   H34       1.0  0.5305825176993721  0.13257330280980986  0.20953236432315234  1.0000
  H   H35       1.0  0.9178979423206426  0.6229748938440877  0.7540135568689975  1.0000
  H   H36       1.0  0.923610369576366  0.8811830695629294  0.19277454868255714  1.0000
  H   H37       1.0  0.8778429959720457  0.7667670695604584  0.18431302084139387  1.0000
  H   H38       1.0  0.8341162588029649  0.834545602385212  0.24156543426254007  1.0000
  H   H39       1.0  0.3483219276675414  0.3772961872909518  0.2133724894578178  1.0000
  H   H40       1.0  0.3235966603121554  0.4832460238920148  0.1594108832096524  1.0000
  H   H41       1.0  0.38187141550199044  0.5045640221190907  0.21305798341890633  1.0000
  H   H42       1.0  0.662612327745059  0.009526353592967506  0.21817268528835843  1.0000
  H   H43       1.0  0.8022055684270696  0.26098231616526135  0.2623206083938142  1.0000
  H   H44       1.0  0.626016547807346  0.39469804832409494  0.2604744998895255  1.0000
  H   H45       1.0  0.8390398167812378  0.03540331897067968  0.21958802519220905  1.0000
  H   H46       1.0  0.6863427896447832  0.4750498907775835  0.7202152288113906  1.0000
  H   H47       1.0  0.29054410791717805  0.2959578792378536  0.4974275736620085  1.0000
  H   H48       1.0  0.054119635113409004  0.03733559574720859  0.9381554149434164  1.0000
  C   C1        1.0  0.6012205350268188  0.3018728664756124  0.4334452763120352  1.0000
  C   C2        1.0  0.203943560434837  0.7469928706948818  0.20707818472541814  1.0000
  C   C3        1.0  0.13194411181844862  0.6664860055253568  0.20247800231465618  1.0000
  C   C4        1.0  0.6069024735006822  0.6299805314473941  0.418073208324344  1.0000
  C   C5        1.0  0.19464205813581986  0.5324765872519703  0.2241145697584557  1.0000
  C   C6        1.0  0.19443934494606907  0.533238959326276  0.28211511309142157  1.0000
  C   C7        1.0  0.10855965919860469  0.6752740523642159  0.15031055236019597  1.0000
  C   C8        1.0  0.19234999756849902  0.6491862419553414  0.3493354241939243  1.0000
  C   C9        1.0  0.22402782545677974  0.6336979642650675  0.3917233245519041  1.0000
  C   C10       1.0  0.5916019753979428  0.3280364695621429  0.25479268865777266  1.0000
  C   C11       1.0  0.6047852787852791  0.12011253639861509  0.2804776625581481  1.0000
  C   C12       1.0  0.6554902108027674  0.6784532274570124  0.2687685489047595  1.0000
  C   C13       1.0  0.6172128242985907  0.10332749450842729  0.22376529181401134  1.0000
  C   C14       1.0  0.7143151636268217  0.10961783581862508  0.09939149190228137  1.0000
  C   C15       1.0  0.657131383028414  0.21281415564051537  0.28834272726972887  1.0000
  C   C16       1.0  0.27952593030995854  0.6063961383654826  0.43824994738800166  1.0000
  C   C17       1.0  0.6094493482824819  0.3062160983476757  0.19849186839528696  1.0000
  C   C18       1.0  0.686519226771253  0.17505783821452775  0.19213325697056394  1.0000
  C   C19       1.0  0.8053281487994752  0.13231489315643327  0.21589903144665357  1.0000
  C   C20       1.0  0.7896295842482601  0.17625789280560866  0.2681343621455241  1.0000
  C   C21       1.0  0.7010539064143944  0.14559450002220586  0.14050465064867979  1.0000
  C   C22       1.0  0.6404697550121341  0.23755150478679343  0.340591568861683  1.0000
  C   C23       1.0  0.6447618108616169  0.6698464801833168  0.31929674455235346  1.0000
  C   C24       1.0  0.626553546738066  0.2607539542559606  0.384015411375344  1.0000
  C   C25       1.0  0.7258827178913022  0.5385440271250346  0.7246319671366447  1.0000
  C   C26       1.0  0.5308130832975166  0.709404941233359  0.7277269019318311  1.0000
  C   C27       1.0  0.543068413458535  0.7275160683701214  0.7822223544469437  1.0000
  C   C28       1.0  0.6107431325706186  0.2889456378217473  0.5771668766583317  1.0000
  C   C29       1.0  0.6916317738353895  0.7015606207978918  0.8887250984367367  1.0000
  C   C30       1.0  0.653356688148179  0.6619778171037467  0.699022547488525  1.0000
  C   C31       1.0  0.7316968162656962  0.545530906733859  0.7811400793545358  1.0000
  C   C32       1.0  0.6735193656945385  0.675742874452915  0.7935188801895521  1.0000
  C   C33       1.0  0.736544408997183  0.7498921608224404  0.7579834471700762  1.0000
  C   C34       1.0  0.633184837506846  0.659646767766148  0.3655825670174052  1.0000
  C   C35       1.0  0.716555876182916  0.7469439339453458  0.702283763579814  1.0000
  C   C36       1.0  0.6838960342109884  0.6867065238233322  0.8456360899157146  1.0000
  C   C37       1.0  0.6426112145699819  0.6540210488537069  0.646683447953265  1.0000
  C   C38       1.0  0.6321007345005398  0.6476724111632705  0.6028301555946382  1.0000
  C   C39       1.0  0.101056930220814  0.6993843306352899  0.8631190410243189  1.0000
  C   C40       1.0  0.6080390880959001  0.6232198698827958  0.5558387956323683  1.0000
  C   C41       1.0  0.132193093816781  0.6848653386924752  0.8184905888617774  1.0000
  C   C42       1.0  0.16304424913877816  0.6697604170117443  0.769475896216498  1.0000
  C   C43       1.0  0.18764486073427372  0.657212559410432  0.7240715570579963  1.0000
  C   C44       1.0  0.21538877298725378  0.6421698077519122  0.6749231225688631  1.0000
  C   C45       1.0  0.24632826777968833  0.7158998519067976  0.2616498159775133  1.0000
  C   C46       1.0  0.24208658383520282  0.6273208963253438  0.6300808094286765  1.0000
  C   C47       1.0  0.7197524993688234  0.10455526839929519  0.8617508383252639  1.0000
  C   C48       1.0  0.7046828659619137  0.13279655577348135  0.8167141896817538  1.0000
  C   C49       1.0  0.688889976264413  0.160982103055197  0.7673686900663198  1.0000
  C   C50       1.0  0.6749326996091796  0.18408060646060417  0.7218014627054357  1.0000
  C   C51       1.0  0.6581313836136786  0.21161331156370974  0.6725010027510407  1.0000
  C   C52       1.0  0.2907485344415122  0.6000164467802945  0.5797210997075267  1.0000
  C   C53       1.0  0.6414874263955143  0.2384994253945578  0.6275249041685594  1.0000
  C   C54       1.0  0.0467455837875121  0.7194217789566506  0.0567124058571977  1.0000
  C   C55       1.0  0.7171838171349235  0.7264813057727861  0.07278005683995305  1.0000
  C   C56       1.0  0.03835733710923248  0.7366849593072899  0.287345354664012  1.0000
  C   C57       1.0  0.742895412293727  0.051309938535631296  0.05372281807335356  1.0000
  C   C58       1.0  0.04877871594406711  0.7272857591372028  0.9130355631373842  1.0000
  C   C59       1.0  0.7175689965195674  0.7270729085637411  0.935129097329394  1.0000
  C   C60       1.0  0.7456548991891908  0.052460791368147894  0.912351894399549  1.0000
  C   C61       1.0  0.6877902662684505  0.7016504662219983  0.12544591994549134  1.0000
  C   C62       1.0  0.6751424769512511  0.6922826825649223  0.17172416421679768  1.0000
  C   C63       1.0  0.6636633829048934  0.683832292647672  0.22225601103234274  1.0000
  C   C64       1.0  0.12647721243084942  0.8787587511121796  0.19606200736857454  1.0000
  C   C65       1.0  0.3092209028528218  0.7288612240448128  0.1676780595107132  1.0000
  C   C66       1.0  0.1292052103315982  0.4558617768767802  0.21285810264591729  1.0000
  C   C67       1.0  0.012578488072186604  0.7106813557383517  0.23662806737191028  1.0000
  C   C68       1.0  0.2596025520379753  0.8183414740312784  0.2831234690344289  1.0000
  C   C69       1.0  0.8815674624477481  0.09224418619135116  0.3028328566051499  1.0000
  C   C70       1.0  0.8662422840715894  0.7119381102622383  0.7655120948071639  1.0000
  C   C71       1.0  0.9064716287044446  0.8047889734501937  0.21236476868809007  1.0000
  C   C72       1.0  0.3196260785148369  0.4724208818390422  0.20088706715475263  1.0000
  C   C73       1.0  0.08927673845074223  0.6887802408050376  0.10606376636286538  1.0000
  C   C74       1.0  0.16715736505052084  0.6589866508299663  0.2970976540011917  1.0000
  Cl  Cl1       1.0  0.6749623143985772  0.9813922544502843  0.31645692254645036  1.0000
  Cl  Cl2       1.0  0.45182375403365427  0.17212228541199434  0.3028627728187557  1.0000
  Cl  Cl3       1.0  0.9155559318011797  0.16986718774191434  0.17643900041318966  1.0000
  Cl  Cl4       1.0  0.6619098850414533  0.4102458754696839  0.16053450033641775  1.0000
  Cl  Cl5       1.0  0.6640630898460601  0.4543966536773921  0.820548844406609  1.0000
  Cl  Cl6       1.0  0.936586811355291  0.7077919267196009  0.3365043546359415  1.0000
  O   O1        1.0  0.30007749684292406  0.5047036397356947  0.4614932188333681  1.0000
  O   O2        1.0  0.6496076235565341  0.8236756354706639  0.0509896217981805  1.0000
  O   O3        1.0  0.6613792312700537  0.026169157251274583  0.038487672419755384  1.0000
  O   O4        1.0  0.5030902677828024  0.3131973951228274  0.4561753557803029  1.0000
  O   O5        1.0  0.8469217551914312  0.030074808382167386  0.9250922938513071  1.0000
  O   O6        1.0  0.03641381135617653  0.8266581281631316  0.9256276495136218  1.0000
  O   O7        1.0  0.015271103117036885  0.6488221608202308  0.9397005961948819  1.0000
  O   O8        1.0  0.8091354300923188  0.6519744244662602  0.9552507861411924  1.0000
  O   O9        1.0  0.6516603000656644  0.8254491333812621  0.9520734516187657  1.0000
  O   O10       1.0  0.6627902167886148  0.028835008935878592  0.9396405754447483  1.0000
  O   O11       1.0  0.8466019632568661  0.841457931886417  0.9896446572890979  1.0000
  O   O12       1.0  0.6806231906116833  0.5292422554464123  0.5373566491834437  1.0000
  O   O13       1.0  0.6815099779747271  0.3278874790010987  0.44937388378151866  1.0000
  O   O14       1.0  0.6799536938819131  0.535174383078498  0.4389606162103305  1.0000
  O   O15       1.0  0.5096774709268743  0.6968634082255674  0.4382779600719715  1.0000
  O   O16       1.0  0.30890674673277374  0.6876680861689336  0.45154162663911274  1.0000
  O   O17       1.0  0.3132749811271935  0.4964880203107284  0.5691572640751588  1.0000
  O   O18       1.0  0.510274377315106  0.3037740974688247  0.5659011288229294  1.0000
  O   O19       1.0  0.6882924914336142  0.31899046097961997  0.5485788247033412  1.0000
  O   O20       1.0  0.5129255760930035  0.6930144695079433  0.5368245684429452  1.0000
  O   O21       1.0  0.3107935971445884  0.6838127410766502  0.550519063541266  1.0000
  O   O22       1.0  0.4919733672963035  0.4978609894936596  0.5013785109241765  1.0000
  O   O23       1.0  0.8456888242836273  0.0256146460157822  0.03371611178776128  1.0000
  O   O24       1.0  0.034186814101239825  0.821120846883218  0.03525060414764172  1.0000
  O   O25       1.0  0.02014351507087757  0.6412386136128772  0.038881674638901104  1.0000
  O   O26       1.0  0.8114047076356526  0.6531438788542159  0.05335178724713069  1.0000
  O   O27       1.0  0.3250744100633511  0.30605043989968544  0.5259579475737937  1.0000
  O   O28       1.0  0.03771162110834329  0.008554501434623796  0.9725007601259319  1.0000
