data_image0
_chemical_formula_structural       Zn2H44C58N2O8
_chemical_formula_sum              "Zn2 H44 C58 N2 O8"
_cell_length_a       13.409730309702807
_cell_length_b       18.326113812125335
_cell_length_c       19.528305430963385
_cell_angle_alpha    87.74145558658637
_cell_angle_beta     87.81497348964004
_cell_angle_gamma    69.43210589810947

_space_group_name_H-M_alt    "P 1"
_space_group_IT_number       1

loop_
  _space_group_symop_operation_xyz
  'x, y, z'

loop_
  _atom_site_type_symbol
  _atom_site_label
  _atom_site_symmetry_multiplicity
  _atom_site_fract_x
  _atom_site_fract_y
  _atom_site_fract_z
  _atom_site_occupancy
  Zn  Zn1       1.0  0.4892108869614588  0.5807404593142423  0.5000159382238182  1.0000
  Zn  Zn2       1.0  0.5068571862144251  0.4212744890485639  0.5003619226231495  1.0000
  H   H1        1.0  0.8472840149545176  0.32782165583950035  0.4195528636319424  1.0000
  H   H2        1.0  0.18070883101743357  0.36592849993951404  0.381788694833027  1.0000
  H   H3        1.0  0.5586293274242493  0.5949806335060901  0.8404140486104626  1.0000
  H   H4        1.0  0.5996667170432345  0.817799775095722  0.4193586416853422  1.0000
  H   H5        1.0  0.37343254465928005  0.8523305774930423  0.5888984421859151  1.0000
  H   H6        1.0  0.391613558606046  0.7127390445873804  0.5796694140241672  1.0000
  H   H7        1.0  0.46661123195536863  0.9380274644479347  0.6144920585070042  1.0000
  H   H8        1.0  0.46463244068889503  0.07319636101640013  0.6141592154633317  1.0000
  H   H9        1.0  0.4850112205264594  0.07665331605595331  0.39328898111259053  1.0000
  H   H10       1.0  0.48731925129155196  0.9415787919051655  0.39370615348232024  1.0000
  H   H11       1.0  0.5904780132765879  0.14690839936569944  0.4163759682634238  1.0000
  H   H12       1.0  0.6700698952426548  0.3741072999077631  0.16848014729848873  1.0000
  H   H13       1.0  0.034398926906625535  0.3148461046125136  0.3848159707062068  1.0000
  H   H14       1.0  0.5951730094745782  0.2821075049115437  0.41887502953569833  1.0000
  H   H15       1.0  0.3851402928824825  0.3377240990649214  0.5852170714837259  1.0000
  H   H16       1.0  0.3681590859973766  0.20579884553644942  0.5892072477713415  1.0000
  H   H17       1.0  0.8135893087069518  0.5312002129167369  0.5308412029606021  1.0000
  H   H18       1.0  0.148634068880419  0.6782798084768232  0.5665866487257392  1.0000
  H   H19       1.0  0.8788778310282338  0.6033299511543576  0.5644498143005452  1.0000
  H   H20       1.0  0.9584884879773624  0.6974795675128861  0.5992551904562051  1.0000
  H   H21       1.0  0.2616755845660989  0.4567203940794614  0.42217397864678236  1.0000
  H   H22       1.0  0.6354186405981391  0.3822186184861566  0.2951974698874339  1.0000
  H   H23       1.0  0.682181647226919  0.5366394245765066  0.05543015843936422  1.0000
  H   H24       1.0  0.3173555598385888  0.5662453380439204  0.0822131625101292  1.0000
  H   H25       1.0  0.26880649955676  0.6694434005080296  0.07158230423500812  1.0000
  H   H26       1.0  0.2559568106875716  0.6253864666688997  0.15266429781046756  1.0000
  H   H27       1.0  0.4081603259605941  0.6784258246176339  0.14897601828018744  1.0000
  H   H28       1.0  0.4661282589166616  0.6191915558075962  0.07925812044704372  1.0000
  H   H29       1.0  0.23847033693738937  0.5875175573945557  0.2632396940529063  1.0000
  H   H30       1.0  0.2979194654829555  0.5616209866456574  0.3442303088645816  1.0000
  H   H31       1.0  0.2132337898797657  0.6587505356814277  0.327466106412004  1.0000
  H   H32       1.0  0.4030776816593827  0.6498042707839887  0.32065204914396633  1.0000
  H   H33       1.0  0.3434891787188831  0.6775028518371613  0.24003517883836178  1.0000
  H   H34       1.0  0.6854755718474478  0.5308817332270694  0.9287742894996645  1.0000
  H   H35       1.0  0.7595322794079701  0.7189688205232018  0.40116635497940223  1.0000
  H   H36       1.0  0.8046322539956133  0.6201280234062952  0.37650339279359485  1.0000
  H   H37       1.0  0.7769404458156686  0.6432436521042463  0.4638718081017716  1.0000
  H   H38       1.0  0.6312399410132342  0.6073229992870851  0.40928527685484556  1.0000
  H   H39       1.0  0.6092042926325545  0.6868292588472544  0.3511479451606193  1.0000
  H   H40       1.0  0.45902353487467445  0.4124185190027277  0.9428474260182828  1.0000
  H   H41       1.0  0.45697840821197383  0.4175717775160025  0.06942232017865992  1.0000
  H   H42       1.0  0.5617435400175095  0.35905314302924307  0.843553263843447  1.0000
  H   H43       1.0  0.532771538160432  0.370306927951134  0.7176021858295558  1.0000
  H   H44       1.0  0.5270723218286547  0.6056354528958396  0.7146824470482616  1.0000
  C   C1        1.0  0.5072232350571965  0.4954470539915336  0.6333037443504284  1.0000
  C   C2        1.0  0.17192906753908935  0.5753200517554831  0.510759569945421  1.0000
  C   C3        1.0  0.5919933368794189  0.4303430582120314  0.2608977308859154  1.0000
  C   C4        1.0  0.2898279422218052  0.5584512652951334  0.5040949239347159  1.0000
  C   C5        1.0  0.6111726909995807  0.4260057946926852  0.19046535211745666  1.0000
  C   C6        1.0  0.5539636310259296  0.4879589696054936  0.14709083973382064  1.0000
  C   C7        1.0  0.4779989552517277  0.5560262765637205  0.17475985430751007  1.0000
  C   C8        1.0  0.4578078619553877  0.5603640369441295  0.24641580139718408  1.0000
  C   C9        1.0  0.5160503977145579  0.49669248004955335  0.28897992171753384  1.0000
  C   C10       1.0  0.6329041306032507  0.5094715150063182  0.03075670334299471  1.0000
  C   C11       1.0  0.6342149597585589  0.5066434084121952  0.9594364268172061  1.0000
  C   C12       1.0  0.017455905608940604  0.5329329597551792  0.5053779836522168  1.0000
  C   C13       1.0  0.5704379414812307  0.4729090858175625  0.9263324013570585  1.0000
  C   C14       1.0  0.5094533354969853  0.43871427451108513  0.9673331017877165  1.0000
  C   C15       1.0  0.5077476958532967  0.44198210673861404  0.03847341421055012  1.0000
  C   C16       1.0  0.5018375940237972  0.49595558348076474  0.3656713821267702  1.0000
  C   C17       1.0  0.5672130602002738  0.4791791117215283  0.07136373107804422  1.0000
  C   C18       1.0  0.5537228390557373  0.413466801207612  0.8155801986285458  1.0000
  C   C19       1.0  0.5375427924176035  0.41934438654855927  0.7453628236784982  1.0000
  C   C20       1.0  0.5267454242898707  0.48892500889160595  0.7087439923010594  1.0000
  C   C21       1.0  0.5356190272848735  0.5517189526081269  0.7434909693682459  1.0000
  C   C22       1.0  0.55383154901736  0.5452893899066426  0.8135210898483084  1.0000
  C   C23       1.0  0.12500237797977562  0.5230627814481041  0.485501205985422  1.0000
  C   C24       1.0  0.5614442237454965  0.47652503494780535  0.8510504198153233  1.0000
  C   C25       1.0  0.5590902493026491  0.7189580568744561  0.4537173399488312  1.0000
  C   C26       1.0  0.5508827349668052  0.797063752743945  0.45545240956631283  1.0000
  C   C27       1.0  0.48472006817593155  0.8475787056655976  0.5035065080744802  1.0000
  C   C28       1.0  0.7048060404765265  0.44746281784921393  0.49077488021983856  1.0000
  C   C29       1.0  0.42709256054242656  0.8163579412610462  0.5502577421649236  1.0000
  C   C30       1.0  0.43636244761441373  0.7389849313256465  0.5452568690043905  1.0000
  C   C31       1.0  0.4690198851372994  0.9686843164017775  0.5657904288404441  1.0000
  C   C32       1.0  0.46780676476330996  0.04496315900804151  0.5655815811796503  1.0000
  C   C33       1.0  0.4754688419755481  0.08475086100332165  0.5037315528434904  1.0000
  C   C34       1.0  0.9704057743345799  0.4780255011069344  0.48230374917636726  1.0000
  C   C35       1.0  0.48245895429159447  0.04609392864561101  0.442010004632394  1.0000
  C   C36       1.0  0.4837614702590896  0.969973205109874  0.44223793307035225  1.0000
  C   C37       1.0  0.47814428319332314  0.9295915337729996  0.5041326787681586  1.0000
  C   C38       1.0  0.5424032544938839  0.18742696962284106  0.4543173976314352  1.0000
  C   C39       1.0  0.5467318872186696  0.2618882525740105  0.4556910640040217  1.0000
  C   C40       1.0  0.9861082772455774  0.3620534847628108  0.4174501358428488  1.0000
  C   C41       1.0  0.42938251749620077  0.2930023936172931  0.5492105086762182  1.0000
  C   C42       1.0  0.42101698229211587  0.21945970893168723  0.5511609523613148  1.0000
  C   C43       1.0  0.47900452192162385  0.16425737693331405  0.5031710937098881  1.0000
  C   C44       1.0  0.8207177309601122  0.43194118005808263  0.47645955669832335  1.0000
  C   C45       1.0  0.03141421704042801  0.4162063169654148  0.4389629744655112  1.0000
  C   C46       1.0  0.11110778643267585  0.6385953000931011  0.5491178224452968  1.0000
  C   C47       1.0  0.00493573130470524  0.6488760216746458  0.5675322972651602  1.0000
  C   C48       1.0  0.9600249553540008  0.5959904736151957  0.5473183478371697  1.0000
  C   C49       1.0  0.4178090817162639  0.6222255100110987  0.1264379323803979  1.0000
  C   C50       1.0  0.3085303882150184  0.6208722778838833  0.10729752357905654  1.0000
  C   C51       1.0  0.37064814119096195  0.6290591091022507  0.27770455338156114  1.0000
  C   C52       1.0  0.27451132640453557  0.6080993600579847  0.3045260249692633  1.0000
  C   C53       1.0  0.6354807543190045  0.6657329752839021  0.403410626478582  1.0000
  C   C54       1.0  0.7503754942206128  0.6622531582357002  0.4116339619983267  1.0000
  C   C55       1.0  0.1364714439852007  0.411343370937388  0.41731756371107326  1.0000
  C   C56       1.0  0.18146336291447074  0.46212038377176173  0.4395114706664105  1.0000
  C   C57       1.0  0.8650082113447296  0.48423118423562533  0.4995151323399371  1.0000
  C   C58       1.0  0.8829086848781172  0.3689468963688257  0.43624610379883705  1.0000
  N   N1        1.0  0.5002205483194045  0.6910593048711462  0.4981459874546489  1.0000
  N   N2        1.0  0.49181740483757613  0.3136335326225534  0.5026403938928256  1.0000
  O   O1        1.0  0.47894435992415635  0.5633901174370808  0.6051271838958174  1.0000
  O   O2        1.0  0.5210990323525164  0.4319708319239697  0.6031932068189436  1.0000
  O   O3        1.0  0.3239488491778102  0.6150450866638197  0.49663683970523936  1.0000
  O   O4        1.0  0.34770415356801715  0.486687062925519  0.5098082865635051  1.0000
  O   O5        1.0  0.5013498518209757  0.5558863748593552  0.39698913454247997  1.0000
  O   O6        1.0  0.49485129736017786  0.4342185822087005  0.39406973060445705  1.0000
  O   O7        1.0  0.6496563765565851  0.5163937427732322  0.5089532338459223  1.0000
  O   O8        1.0  0.6687090398904941  0.392841588165645  0.4822441704604758  1.0000
