data_image0
_chemical_formula_structural       Hg2H78C46N6Cl4O4
_chemical_formula_sum              "Hg2 H78 C46 N6 Cl4 O4"
_cell_length_a       9.358707661698098
_cell_length_b       10.786289210504771
_cell_length_c       13.477
_cell_angle_alpha    81.09053682577587
_cell_angle_beta     88.73748404314323
_cell_angle_gamma    88.42804646624637

_space_group_name_H-M_alt    "P 1"
_space_group_IT_number       1

loop_
  _space_group_symop_operation_xyz
  'x, y, z'

loop_
  _atom_site_type_symbol
  _atom_site_label
  _atom_site_symmetry_multiplicity
  _atom_site_fract_x
  _atom_site_fract_y
  _atom_site_fract_z
  _atom_site_occupancy
  Hg  Hg1       1.0  0.2155326491174989  0.7396230954337568  0.39563537911833896  1.0000
  Hg  Hg2       1.0  0.7844689354271208  0.2603784569937417  0.6043641074079602  1.0000
  H   H1        1.0  0.34688984752101243  0.5912328795156796  0.6088298021799332  1.0000
  H   H2        1.0  0.6531127538073632  0.408770550318394  0.39116943607952254  1.0000
  H   H3        1.0  0.30131145891927247  0.1912748756740044  0.6233881345551282  1.0000
  H   H4        1.0  0.6986825661449741  0.8087294928633638  0.3766126025792502  1.0000
  H   H5        1.0  0.09018109292955498  0.464004790543818  0.4021257907129581  1.0000
  H   H6        1.0  0.9098235939656334  0.5360005166968377  0.5978694729024099  1.0000
  H   H7        1.0  0.379142455231701  0.11521550298309789  0.3570832472508769  1.0000
  H   H8        1.0  0.6208581125291628  0.8847841720378183  0.6429157455373656  1.0000
  H   H9        1.0  0.3606525116347256  0.2673286161451713  0.3898461806231452  1.0000
  H   H10       1.0  0.639350141692958  0.7326729362823272  0.6101547735601828  1.0000
  H   H11       1.0  0.28160363590409787  0.193995237805396  0.18811021048929186  1.0000
  H   H12       1.0  0.7183979226408679  0.8060072533253971  0.8118884180750785  1.0000
  H   H13       1.0  0.5442742425065318  0.18920785103172477  0.21963754707557837  1.0000
  H   H14       1.0  0.4557272900387872  0.8107955788023559  0.7803602235268557  1.0000
  H   H15       1.0  0.5301352609307484  0.3445256972222879  0.24808566830881063  1.0000
  H   H16       1.0  0.4698662976142174  0.6554767939085052  0.7519129602555595  1.0000
  H   H17       1.0  0.4963523922918042  0.3163073376529937  0.1245496594733382  1.0000
  H   H18       1.0  0.5036470026873943  0.68369609218108  0.8754488858395322  1.0000
  H   H19       1.0  0.24956041221805944  0.4247904606477064  0.13045950561047454  1.0000
  H   H20       1.0  0.7504390347604399  0.5752110917797921  0.869540755626261  1.0000
  H   H21       1.0  0.2829342003931714  0.4551988149901263  0.2531611999293872  1.0000
  H   H22       1.0  0.7170663153683847  0.5448027374373722  0.7468397869594768  1.0000
  H   H23       1.0  0.1268339103866083  0.375022289673872  0.2295969137813429  1.0000
  H   H24       1.0  0.8731677261573196  0.6249773853470515  0.7704042886688214  1.0000
  H   H25       1.0  0.035680835497238696  0.020199017371744798  0.4009831434272685  1.0000
  H   H26       1.0  0.964320775047028  0.9798015963524661  0.5990164590560668  1.0000
  H   H27       1.0  0.17808402635397869  0.0151196938752065  0.31274919674842755  1.0000
  H   H28       1.0  0.821918626973705  0.9848818585522919  0.6872517574348933  1.0000
  H   H29       1.0  0.05617920932107978  0.1755084152327058  0.19083527048019286  1.0000
  H   H30       1.0  0.9438234700062506  0.8244921984915051  0.8091650576552711  1.0000
  H   H31       1.0  0.0097807071608713  0.945932242983666  0.19550218681327186  1.0000
  H   H32       1.0  0.9902209293830493  0.05406743203725738  0.8044982736319995  1.0000
  H   H33       1.0  0.8591317399422492  0.04221160949774829  0.1528470356781924  1.0000
  H   H34       1.0  0.14087200816813808  0.9577890042264627  0.847154760114293  1.0000
  H   H35       1.0  0.8623660604101456  0.9592834198624799  0.2777297637639933  1.0000
  H   H36       1.0  0.13763661891718468  0.04071719386173099  0.7222698223665704  1.0000
  H   H37       1.0  0.9215263005910541  0.2971587292615965  0.30959275701281536  1.0000
  H   H38       1.0  0.0784764047359303  0.702840945759327  0.6904084290845774  1.0000
  H   H39       1.0  0.8072986653684353  0.168597681619417  0.3440527054674832  1.0000
  H   H40       1.0  0.1927040399585493  0.8314019934015062  0.6559477386250095  1.0000
  H   H41       1.0  0.8096621315948409  0.2503127416262743  0.21837093204361938  1.0000
  H   H42       1.0  0.19033950494907967  0.7496869333946491  0.7816302704065451  1.0000
  H   H43       1.0  0.5325810026985778  0.34848702510167573  0.9263514721904686  1.0000
  H   H44       1.0  0.4674196950605419  0.6515079564027957  0.07364884238784701  1.0000
  H   H45       1.0  0.6435770292184984  0.32175651024538604  0.8233668246759296  1.0000
  H   H46       1.0  0.3564215309745009  0.6782384712590925  0.17663500661771542  1.0000
  H   H47       1.0  0.47641559780517884  0.12189156077415217  0.9630504178530404  1.0000
  H   H48       1.0  0.5235808248216997  0.8781034207303264  0.03694922013145431  1.0000
  H   H49       1.0  0.6030121846587376  0.9667226434274523  0.8716625561098326  1.0000
  H   H50       1.0  0.3969863495346075  0.03327327678031369  0.12833767521699  1.0000
  H   H51       1.0  0.6853628853352376  0.0902037538488827  0.7894583181649751  1.0000
  H   H52       1.0  0.31463671764117146  0.9097921663588833  0.21054189680907603  1.0000
  H   H53       1.0  0.49832379560053397  0.070906830337826  0.7855638122966014  1.0000
  H   H54       1.0  0.5016736438101076  0.9290900285732278  0.2144348354161565  1.0000
  H   H55       1.0  0.7177449683627514  0.044512371258974795  0.020621089891257303  1.0000
  H   H56       1.0  0.2822525230471912  0.9554826102454967  0.9793807577551592  1.0000
  H   H57       1.0  0.688373058888871  0.2018981807951121  0.04147898480668741  1.0000
  H   H58       1.0  0.311622294954951  0.7980968007093665  0.9585221535403718  1.0000
  H   H59       1.0  0.7978871040818445  0.1694800627110311  0.9385067133959737  1.0000
  H   H60       1.0  0.20210827576162424  0.8305139800901529  0.06149602491791479  1.0000
  H   H61       1.0  0.2908614307077642  0.16524744958113757  0.8624920841549726  1.0000
  H   H62       1.0  0.7091347839219109  0.8347550415496556  0.1375081101830347  1.0000
  H   H63       1.0  0.2083192999611397  0.2873398928591229  0.7792653768368397  1.0000
  H   H64       1.0  0.7916780094512391  0.7126616595683757  0.22073343309563853  1.0000
  H   H65       1.0  0.31804162411862785  0.31620408029121444  0.9864225323596117  1.0000
  H   H66       1.0  0.6819567280771607  0.6837984108395787  0.013576145263058904  1.0000
  H   H67       1.0  0.1136309030372118  0.1707116414261449  0.9988642347755887  1.0000
  H   H68       1.0  0.8863695867246973  0.8292908497046412  0.0011351521464461856  1.0000
  H   H69       1.0  0.0121897651501612  0.2852306265688398  0.9188206228861446  1.0000
  H   H70       1.0  0.9878064754791609  0.7147709258586588  0.08117894540399818  1.0000
  H   H71       1.0  0.062225405665543576  0.3151930968490078  0.03915525705017589  1.0000
  H   H72       1.0  0.9377740413129558  0.6848084555784908  0.9608450041865596  1.0000
  H   H73       1.0  0.18038023185262378  0.5206808790210786  0.9591156725648845  1.0000
  H   H74       1.0  0.8196171035594091  0.47931973470312517  0.040883253324629706  1.0000
  H   H75       1.0  0.1325322033226328  0.4928089009654144  0.8377137918021518  1.0000
  H   H76       1.0  0.8674651320894  0.5071917127587895  0.16228513408736234  1.0000
  H   H77       1.0  0.31395728088335056  0.5173813369604048  0.8639207429118445  1.0000
  H   H78       1.0  0.6860400025293812  0.4826211541703812  0.13607795106359794  1.0000
  C   C1        1.0  0.2995506941025567  0.510336368776791  0.5836810291965764  1.0000
  C   C2        1.0  0.7004497696597055  0.4896670610572826  0.41631749976352245  1.0000
  C   C3        1.0  0.33327246746468825  0.38802990114892566  0.6296853898637097  1.0000
  C   C4        1.0  0.6667290130813299  0.6119754060917301  0.3703143748393459  1.0000
  C   C5        1.0  0.274417765059944  0.28797257887588046  0.5914181845277755  1.0000
  C   C6        1.0  0.7255784235700772  0.7120308509582002  0.4085826358580961  1.0000
  C   C7        1.0  0.1857669704395661  0.31365456215841186  0.5082311268908981  1.0000
  C   C8        1.0  0.8142356828881103  0.6863469902690937  0.49176685927283614  1.0000
  C   C9        1.0  0.15688403659827796  0.43868420802753855  0.4679515653309353  1.0000
  C   C10       1.0  0.8431154363798754  0.5613164056966724  0.5320451018383494  1.0000
  C   C11       1.0  0.11279098313094948  0.21249707963070819  0.4650444054251324  1.0000
  C   C12       1.0  0.887211670196727  0.7875044727967903  0.5349558067532953  1.0000
  C   C13       1.0  0.31465469902629195  0.2031785720812422  0.3441467105046101  1.0000
  C   C14       1.0  0.685346885518328  0.7968229803462563  0.6558535180265823  1.0000
  C   C15       1.0  0.3246688563835178  0.2612655316018078  0.23295951349302166  1.0000
  C   C16       1.0  0.6753326761618011  0.7387378982322729  0.7670389991143055  1.0000
  C   C17       1.0  0.4828416898074791  0.2781903519016709  0.20462391868301927  1.0000
  C   C18       1.0  0.517158773954783  0.7218130779324028  0.7953738682721864  1.0000
  C   C19       1.0  0.24095537444927112  0.3856333916522203  0.2106187917340705  1.0000
  C   C20       1.0  0.7590462360950028  0.6143672220719907  0.7893808107492646  1.0000
  C   C21       1.0  0.0949015814535485  0.0764789730610644  0.33960614702324676  1.0000
  C   C22       1.0  0.9051010978737821  0.9235216406631466  0.6603949231171101  1.0000
  C   C23       1.0  0.9930346759892074  0.12515918692300687  0.2535819152779624  1.0000
  C   C24       1.0  0.006969072121179902  0.8748414268012039  0.74641839650473  1.0000
  C   C25       1.0  0.927847959238278  0.011885861044753199  0.21749718079998812  1.0000
  C   C26       1.0  0.07215578887211649  0.9881147526794576  0.7825031309827042  1.0000
  C   C27       1.0  0.8764295112990224  0.2152568673002335  0.2833240810885941  1.0000
  C   C28       1.0  0.12357319402796209  0.7847428077206899  0.7166771050087989  1.0000
  C   C29       1.0  0.4500367130113787  0.3723742076957279  0.7052375060914856  1.0000
  C   C30       1.0  0.5499649235325419  0.6276254673251954  0.29476295435378574  1.0000
  C   C31       1.0  0.5481371313590414  0.2888305536819828  0.8673226876931467  1.0000
  C   C32       1.0  0.4518614548336117  0.7111634891192082  0.13267851755264104  1.0000
  C   C33       1.0  0.5707080552790629  0.15144475642033228  0.9154521151135102  1.0000
  C   C34       1.0  0.4292894621305265  0.8485492863808517  0.08454836448014899  1.0000
  C   C35       1.0  0.5895089399167331  0.0650108349798941  0.8361616215114084  1.0000
  C   C36       1.0  0.4104895942766189  0.934985085227872  0.1638378678105141  1.0000
  C   C37       1.0  0.7009047699310854  0.1415771074468353  0.9830351872366097  1.0000
  C   C38       1.0  0.2990895411293266  0.8584169353543557  0.016966083420257395  1.0000
  C   C39       1.0  0.2867505237477915  0.26778858075675765  0.8392882252669766  1.0000
  C   C40       1.0  0.7132468116642413  0.7322120329674533  0.1607114426274308  1.0000
  C   C41       1.0  0.235578048876711  0.3323150448395538  0.9282330757377367  1.0000
  C   C42       1.0  0.764418191752611  0.6676865075879448  0.07176649255240622  1.0000
  C   C43       1.0  0.09820622227395859  0.2721591832701336  0.9739307466754216  1.0000
  C   C44       1.0  0.9017910871384203  0.727842369157365  0.0260688052619571  1.0000
  C   C45       1.0  0.214871116339225  0.473751346793044  0.8955202266910194  1.0000
  C   C46       1.0  0.7851262190728079  0.5262492669311669  0.104479441203388  1.0000
  N   N1        1.0  0.21186223553696948  0.5344206790615259  0.5058453475139758  1.0000
  N   N2        1.0  0.7881414865737709  0.4655808733659796  0.4941533643018874  1.0000
  N   N3        1.0  0.16958630555668455  0.17351648685354348  0.3818913404366739  1.0000
  N   N4        1.0  0.830416373770646  0.8264841268706675  0.6181089876987826  1.0000
  N   N5        1.0  0.42718361033193714  0.3086409478921013  0.7989645588405809  1.0000
  N   N6        1.0  0.5728170094282277  0.6913568497222471  0.20103466586172664  1.0000
  Cl  Cl1       1.0  0.0707582781689737  0.6805918004045068  0.26830550876910314  1.0000
  Cl  Cl2       1.0  0.9292411688095257  0.31940975202299166  0.7316947524676325  1.0000
  Cl  Cl3       1.0  0.38670907113398556  0.8529123792679201  0.4697017079321598  1.0000
  Cl  Cl4       1.0  0.6132925394102813  0.1470882344562909  0.5302971525462752  1.0000
  O   O1        1.0  0.9985992571409881  0.17036619861580957  0.5054498203282521  1.0000
  O   O2        1.0  0.0014023534032858954  0.8296344151084014  0.49455052415997613  1.0000
  O   O3        1.0  0.5670519299312247  0.4197008114149909  0.6761035370419748  1.0000
  O   O4        1.0  0.43295080139540687  0.5802979249026379  0.3238985070173471  1.0000
