data_image0
_chemical_formula_structural       Cu4H20C28S2I4N4O2
_chemical_formula_sum              "Cu4 H20 C28 S2 I4 N4 O2"
_cell_length_a       4.055179303047876
_cell_length_b       12.550520580030353
_cell_length_c       15.800908287675549
_cell_angle_alpha    100.275994227765
_cell_angle_beta     90.00007955155584
_cell_angle_gamma    89.99950797060397

_space_group_name_H-M_alt    "P 1"
_space_group_IT_number       1

loop_
  _space_group_symop_operation_xyz
  'x, y, z'

loop_
  _atom_site_type_symbol
  _atom_site_label
  _atom_site_symmetry_multiplicity
  _atom_site_fract_x
  _atom_site_fract_y
  _atom_site_fract_z
  _atom_site_occupancy
  Cu  Cu1       1.0  0.6566153720245257  0.055585054780131295  0.5432669879601948  1.0000
  Cu  Cu2       1.0  0.15662206370152634  0.9444195675123979  0.4567327709177108  1.0000
  Cu  Cu3       1.0  0.9818377919740514  0.18390591219711175  0.66150833604803  1.0000
  Cu  Cu4       1.0  0.48184190608055394  0.8160984943974371  0.3384896153580855  1.0000
  H   H1        1.0  0.2096675950121991  0.380384021410741  0.7187582169077161  1.0000
  H   H2        1.0  0.7096785891392869  0.6196090981416519  0.28123613208875053  1.0000
  H   H3        1.0  0.6638143830116476  0.034145374237319  0.7614380956245839  1.0000
  H   H4        1.0  0.1638268547126316  0.9658640851265828  0.23855918806284399  1.0000
  H   H5        1.0  0.45851193957529557  0.2647112135263825  0.04988299056410032  1.0000
  H   H6        1.0  0.958489181441614  0.7352835471197706  0.9501199118788507  1.0000
  H   H7        1.0  0.7552981381036548  0.8235604247472353  0.7603124852506158  1.0000
  H   H8        1.0  0.2553017175214762  0.1764365975472089  0.2396881305903734  1.0000
  H   H9        1.0  0.34934439337902035  0.9604309649131223  0.87380413842876  1.0000
  H   H10       1.0  0.8493605847626288  0.03957305090120399  0.12619117641234115  1.0000
  H   H11       1.0  0.6989826940969054  0.7715353908766429  0.601363618485948  1.0000
  H   H12       1.0  0.19898095828214932  0.22846585725088175  0.39863947463407373  1.0000
  H   H13       1.0  0.5075030592524001  0.7055200590527804  0.8560059518916178  1.0000
  H   H14       1.0  0.007498488588090903  0.294484223275461  0.14399560153181315  1.0000
  H   H15       1.0  0.25302377019460215  0.07312237887888529  0.017195072908791107  1.0000
  H   H16       1.0  0.7529992224634301  0.9268738413418162  0.9828041624931675  1.0000
  H   H17       1.0  0.39561685707570865  0.6050080481682799  0.5381306283628222  1.0000
  H   H18       1.0  0.8956265693244634  0.39499500951341554  0.4618708965718883  1.0000
  H   H19       1.0  0.14870704334424548  0.48858300446142505  0.6323306595163559  1.0000
  H   H20       1.0  0.6487061846120029  0.5114184030115467  0.3676705387697369  1.0000
  C   C1        1.0  0.9646977675892857  0.3453016751138805  0.8228813518679062  1.0000
  C   C2        1.0  0.4646973799689675  0.6546938776430479  0.1771166023131343  1.0000
  C   C3        1.0  0.6196186451923609  0.0832490590138164  0.8244569396980668  1.0000
  C   C4        1.0  0.11963685842452072  0.9167524418712388  0.17553983083264063  1.0000
  C   C5        1.0  0.6728870709756904  0.2545176993548708  0.9237404934381959  1.0000
  C   C6        1.0  0.17288406802821754  0.7454836313517319  0.07626196875593651  1.0000
  C   C7        1.0  0.5025647869606331  0.21328105293452634  0.9877986032021371  1.0000
  C   C8        1.0  0.0025555702773232  0.7867151468243276  0.012203067024792269  1.0000
  C   C9        1.0  0.6214207410077678  0.7501340059209127  0.7327660159861866  1.0000
  C   C10       1.0  0.12143509663526691  0.24986748833608627  0.26723328577800504  1.0000
  C   C11       1.0  0.17415850152911364  0.5234151414966064  0.8103084850753249  1.0000
  C   C12       1.0  0.6741575311837452  0.47658051539389124  0.18969696960445503  1.0000
  C   C13       1.0  0.44608070866010513  0.04284601896596742  0.887699865506754  1.0000
  C   C14       1.0  0.9460879714582263  0.957155261848868  0.11229636314428865  1.0000
  C   C15       1.0  0.5913013427624705  0.7208401707690372  0.6434672504132738  1.0000
  C   C16       1.0  0.09130068566659591  0.2791630371370175  0.356534814776289  1.0000
  C   C17       1.0  0.7346037425382052  0.1900482075339269  0.8423703119962698  1.0000
  C   C18       1.0  0.2346095336856351  0.8099537381912896  0.15763226059162605  1.0000
  C   C19       1.0  0.3222694197211311  0.5884732686981522  0.750493146115261  1.0000
  C   C20       1.0  0.8222554634922761  0.41152354159704174  0.24950936333478074  1.0000
  C   C21       1.0  0.4860614050263124  0.6846838522704457  0.7862475996671068  1.0000
  C   C22       1.0  0.9860642821107036  0.31531891980337434  0.21375455147047265  1.0000
  C   C23       1.0  0.3897028924445537  0.10693254136675281  0.9688568444156476  1.0000
  C   C24       1.0  0.8897062853717586  0.8930681068649305  0.031141171973779122  1.0000
  C   C25       1.0  0.4248115554190548  0.6261431337803032  0.607700400218633  1.0000
  C   C26       1.0  0.9247967378735142  0.3738549724997  0.3923023315530686  1.0000
  C   C27       1.0  0.2898171916236691  0.5600233979663328  0.6608281094418729  1.0000
  C   C28       1.0  0.7898055058638748  0.43997918357568727  0.33917394117669647  1.0000
  S   S1        1.0  0.8293570808168697  0.3848209549873615  0.9281349022605172  1.0000
  S   S2        1.0  0.32933487014417306  0.6151774529678846  0.07186657083516218  1.0000
  I   I1        1.0  0.14106424517224533  0.9762764008346068  0.624221183651372  1.0000
  I   I2        1.0  0.6410450971814542  0.0237274615099992  0.37577656292055656  1.0000
  I   I3        1.0  0.4922060240847444  0.2650514120097256  0.5836696060395783  1.0000
  I   I4        1.0  0.9922175163475516  0.7349481013514275  0.41633271779127773  1.0000
  N   N1        1.0  0.12149368934471744  0.41498045703493597  0.7784011377388611  1.0000
  N   N2        1.0  0.6215027093433889  0.585014560748526  0.22159218189536742  1.0000
  N   N3        1.0  0.9038531988347813  0.24381551299203608  0.7857763312259891  1.0000
  N   N4        1.0  0.4038605227667489  0.756182660331348  0.2142238707176675  1.0000
  O   O1        1.0  0.09537504845764033  0.5621018287614276  0.8853329540603811  1.0000
  O   O2        1.0  0.5953869152490868  0.4378859823292061  0.11466249738015225  1.0000
