data_image0
_chemical_formula_structural       Ag8H40C60N4O16
_chemical_formula_sum              "Ag8 H40 C60 N4 O16"
_cell_length_a       8.018075044914005
_cell_length_b       10.288285492775806
_cell_length_c       17.378
_cell_angle_alpha    98.84059964846509
_cell_angle_beta     96.77053932729966
_cell_angle_gamma    104.98020735213908

_space_group_name_H-M_alt    "P 1"
_space_group_IT_number       1

loop_
  _space_group_symop_operation_xyz
  'x, y, z'

loop_
  _atom_site_type_symbol
  _atom_site_label
  _atom_site_symmetry_multiplicity
  _atom_site_fract_x
  _atom_site_fract_y
  _atom_site_fract_z
  _atom_site_occupancy
  Ag  Ag1       1.0  0.41754752558794184  0.9551409815505848  0.4161362029650774  1.0000
  Ag  Ag2       1.0  0.5824509304817624  0.044859555472271495  0.5838634166504661  1.0000
  Ag  Ag3       1.0  0.24448033501452934  0.0901927737174475  0.5196323874651583  1.0000
  Ag  Ag4       1.0  0.7555206329366728  0.9098077633054089  0.48036851966484306  1.0000
  Ag  Ag5       1.0  0.4229394428496178  0.5357525806684222  0.9158164987698924  1.0000
  Ag  Ag6       1.0  0.5770610071789691  0.46425000684263296  0.0841834158742927  1.0000
  Ag  Ag7       1.0  0.35892712057331283  0.6461816223760763  0.06284016122724984  1.0000
  Ag  Ag8       1.0  0.6410754723277068  0.3538199398908759  0.9371603521353721  1.0000
  H   H1        1.0  0.6693896944491301  0.47846809198237844  0.5423222943213801  1.0000
  H   H2        1.0  0.3306080236024443  0.5215303945522862  0.4576765231423394  1.0000
  H   H3        1.0  0.06338375066621892  0.6453255435549323  0.2882340933054905  1.0000
  H   H4        1.0  0.9366200981755457  0.3546760187120269  0.7117676392545745  1.0000
  H   H5        1.0  0.7529940556466104  0.24332015634051626  0.16778042773931648  1.0000
  H   H6        1.0  0.247008019331787  0.7566834564146345  0.832219093137482  1.0000
  H   H7        1.0  0.6252502019812667  0.2053174333902064  0.2878228913173189  1.0000
  H   H8        1.0  0.3747511349790003  0.794684128876753  0.7121758274076556  1.0000
  H   H9        1.0  0.8950921472592129  0.6957080889787333  0.5446214116120984  1.0000
  H   H10       1.0  0.1049050528697464  0.30429244804413  0.45537871512664196  1.0000
  H   H11       1.0  0.9737438040782963  0.4633467667930162  0.1676710064158442  1.0000
  H   H12       1.0  0.02625915783178807  0.5366558207180389  0.8323290448623766  1.0000
  H   H13       1.0  0.520406522774806  0.3585637443285492  0.6133172769248745  1.0000
  H   H14       1.0  0.4795999868619916  0.6414347422061155  0.38668489595902866  1.0000
  H   H15       1.0  0.23205000808334827  0.22954395140665435  0.8315990826913833  1.0000
  H   H16       1.0  0.7679505908587885  0.770455560372106  0.16840171108281513  1.0000
  H   H17       1.0  0.7312353237549304  0.5635848821746662  0.802258137770572  1.0000
  H   H18       1.0  0.2687660132053439  0.43641668009228596  0.19774173183482452  1.0000
  H   H19       1.0  0.6940457566572817  0.5731637377746566  0.7000001841042548  1.0000
  H   H20       1.0  0.3059560982256002  0.4268357740041039  0.299999527106543  1.0000
  H   H21       1.0  0.5699186851227722  0.6388531775694091  0.7673509332604525  1.0000
  H   H22       1.0  0.4300806578786124  0.36114633420935144  0.2326486413163025  1.0000
  H   H23       1.0  0.18021356313039405  0.950283375018131  0.6633218828100311  1.0000
  H   H24       1.0  0.8197857798709907  0.0497161367606296  0.33667769176672374  1.0000
  H   H25       1.0  0.09290854329410794  0.9998211193058495  0.7499273542361777  1.0000
  H   H26       1.0  0.907090799707284  0.00017839247291109994  0.2500727957807882  1.0000
  H   H27       1.0  0.0073398619005118  0.0279266239631895  0.6566598479849759  1.0000
  H   H28       1.0  0.9926614750597552  0.9720749383037698  0.3433405970606245  1.0000
  H   H29       1.0  0.9488457508615015  0.3304146423962706  0.8573853960261245  1.0000
  H   H30       1.0  0.05115144926745773  0.6695858946265856  0.14261357983218662  1.0000
  H   H31       1.0  0.057476102541137705  0.23246282135134066  0.1161556683532439  1.0000
  H   H32       1.0  0.9425256034281945  0.7675397661597143  0.8838437391677445  1.0000
  H   H33       1.0  0.5345963880615443  0.8728005523734694  0.8455227737776596  1.0000
  H   H34       1.0  0.46540760969377004  0.12719793416119526  0.15447696071136358  1.0000
  H   H35       1.0  0.8386018501954738  0.0080122826194895  0.1119363924852905  1.0000
  H   H36       1.0  0.161397712901433  0.9919913301356615  0.8880635671976833  1.0000
  H   H37       1.0  0.7331570619365168  0.2161911722849368  0.7363080545695908  1.0000
  H   H38       1.0  0.2668363703702071  0.7838093647379195  0.2636918672180926  1.0000
  H   H39       1.0  0.5288784085157303  0.9857834771272137  0.7298000023961464  1.0000
  H   H40       1.0  0.4711176845860265  0.014213984163355097  0.2701992088349527  1.0000
  C   C1        1.0  0.7700782817941276  0.4026728211216835  0.35800268338931573  1.0000
  C   C2        1.0  0.22992143021632216  0.597327715901173  0.6419964291030382  1.0000
  C   C3        1.0  0.8981753059634983  0.5304428414891049  0.3582951745181546  1.0000
  C   C4        1.0  0.10182691792844878  0.46955769553375143  0.6417046500484459  1.0000
  C   C5        1.0  0.9445016105045525  0.6353109592136406  0.42804112564797236  1.0000
  C   C6        1.0  0.05549987536926436  0.3646875273210241  0.5719590476472192  1.0000
  C   C7        1.0  0.7336784476806671  0.49156661056799317  0.4911974051692951  1.0000
  C   C8        1.0  0.26632000838904446  0.5084339264548632  0.5088016390060375  1.0000
  C   C9        1.0  0.9683766498684038  0.5486768077575164  0.28812833791282344  1.0000
  C   C10       1.0  0.031625943032615574  0.4513247545094358  0.7118721754497983  1.0000
  C   C11       1.0  0.5626297201238657  0.25332756397312284  0.43386778844494955  1.0000
  C   C12       1.0  0.43736962287751874  0.7466719478056374  0.5661317861318053  1.0000
  C   C13       1.0  0.6904649808364455  0.3848612554213062  0.42670392956293307  1.0000
  C   C14       1.0  0.3095318502834488  0.6151382563574542  0.5732949329395751  1.0000
  C   C15       1.0  0.7933062172317734  0.3227201854469044  0.22099258252703183  1.0000
  C   C16       1.0  0.20669548873756577  0.6772824020641435  0.7790074004341676  1.0000
  C   C17       1.0  0.7216855644844102  0.3012023623352177  0.2878538624392206  1.0000
  C   C18       1.0  0.27831754633921696  0.6987971494435428  0.7121459170885913  1.0000
  C   C19       1.0  0.860479729007409  0.6149619143727347  0.4921923942673346  1.0000
  C   C20       1.0  0.1395183580532375  0.3850375974060255  0.507806536552188  1.0000
  C   C21       1.0  0.9179926297957266  0.4477210215078387  0.22098742627468942  1.0000
  C   C22       1.0  0.08200907617361251  0.5522815660032165  0.7790125566865171  1.0000
  C   C23       1.0  0.08230770334783703  0.7689105175176465  0.4362279220017555  1.0000
  C   C24       1.0  0.9176925265852347  0.23108796901701817  0.5637716075362036  1.0000
  C   C25       1.0  0.457526765773089  0.3307775788066748  0.663053530168483  1.0000
  C   C26       1.0  0.542476124955023  0.6692178319956951  0.33694816601395416  1.0000
  C   C27       1.0  0.49756642363131925  0.4199133258599231  0.7363373959945889  1.0000
  C   C28       1.0  0.5024375741239879  0.5800851606747414  0.2636640648150674  1.0000
  C   C29       1.0  0.2963736781290649  0.2568718328170903  0.7821045302176657  1.0000
  C   C30       1.0  0.7036261827949418  0.7431256284734784  0.2178960368449125  1.0000
  C   C31       1.0  0.2581192212137253  0.166774406800684  0.7091358293758674  1.0000
  C   C32       1.0  0.7418822646600844  0.8332240797339807  0.2908654947997462  1.0000
  C   C33       1.0  0.6308583759392974  0.5563661384863963  0.7516569090584112  1.0000
  C   C34       1.0  0.3691434789435846  0.4436333732923643  0.24834337759259031  1.0000
  C   C35       1.0  0.12802697351044406  0.0285233160277514  0.6944977085381723  1.0000
  C   C36       1.0  0.871974881372438  0.9714761957510092  0.3055031535530475  1.0000
  C   C37       1.0  0.8563936505712418  0.2313596587027718  0.8550125505430514  1.0000
  C   C38       1.0  0.14360517450753454  0.7686419035641876  0.14498660698809124  1.0000
  C   C39       1.0  0.9793098241027568  0.23788431213724687  0.9951999435028753  1.0000
  C   C40       1.0  0.02068900097602003  0.7621172501297123  0.004799214028267302  1.0000
  C   C41       1.0  0.8627623619010338  0.1692780528859998  0.9229777294109027  1.0000
  C   C42       1.0  0.13723483822793264  0.8307224841368565  0.07702124644741562  1.0000
  C   C43       1.0  0.9676631879201311  0.17969658340158648  0.0617649240960674  1.0000
  C   C44       1.0  0.03233741102200568  0.820302928377174  0.9382352942379127  1.0000
  C   C45       1.0  0.12055667170259451  0.3681569533458955  0.9991101868343789  1.0000
  C   C46       1.0  0.8794434093169271  0.6318446089210639  0.0008884635735740278  1.0000
  C   C47       1.0  0.7370762975496492  0.9792947072361358  0.9895672403876645  1.0000
  C   C48       1.0  0.2629254084196901  0.0207078802749194  0.010433893453957002  1.0000
  C   C49       1.0  0.7416935692666443  0.0370205391052068  0.9196260922720683  1.0000
  C   C50       1.0  0.25830163690343266  0.962977947429458  0.08037373943803063  1.0000
  C   C51       1.0  0.6244556070290344  0.972914613219359  0.8480149415713427  1.0000
  C   C52       1.0  0.37554211102254004  0.0270838733153056  0.1519850267727918  1.0000
  C   C53       1.0  0.8462110851227892  0.05242483166539099  0.0590158294111944  1.0000
  C   C54       1.0  0.15379062084654294  0.9475777558456571  0.9409835781097938  1.0000
  C   C55       1.0  0.7377621915667875  0.1663499557444439  0.7872129855590089  1.0000
  C   C56       1.0  0.2622324966806815  0.8336505812784125  0.21278757998589984  1.0000
  C   C57       1.0  0.616873023775092  0.8408682997225867  0.9911283728948775  1.0000
  C   C58       1.0  0.38312454536293233  0.1591332625443727  0.00887244263987701  1.0000
  C   C59       1.0  0.6219947685862409  0.0359419823149665  0.7836867425059637  1.0000
  C   C60       1.0  0.3780020625336533  0.964057529463794  0.21631327087695953  1.0000
  N   N1        1.0  0.34094914995795733  0.20656310496828206  0.6497526924274482  1.0000
  N   N2        1.0  0.6590544787882848  0.7934343563222795  0.35024865502639807  1.0000
  N   N3        1.0  0.4138799284712464  0.380557280701332  0.795584982410105  1.0000
  N   N4        1.0  0.586123182352388  0.6194422310774286  0.2044159479981289  1.0000
  O   O1        1.0  0.5937453413729515  0.14150316504920107  0.4033481644763768  1.0000
  O   O2        1.0  0.406252745687688  0.8584963467295594  0.5966507663431458  1.0000
  O   O3        1.0  0.4385993772349935  0.261946791098147  0.4711117333414307  1.0000
  O   O4        1.0  0.561399596757326  0.7380516954365176  0.5288877278795141  1.0000
  O   O5        1.0  0.22082231029754246  0.7667349495434266  0.4067904077030278  1.0000
  O   O6        1.0  0.779176663694777  0.23326353699123806  0.593208478077706  1.0000
  O   O7        1.0  0.05410205376715991  0.8757378767119022  0.47363554130221536  1.0000
  O   O8        1.0  0.9458981761659118  0.12426060982276249  0.5263645636759549  1.0000
  O   O9        1.0  0.15577200881251943  0.4587505975053361  0.06247719531599931  1.0000
  O   O10       1.0  0.8442289591386823  0.5412499395175203  0.9375214100531649  1.0000
  O   O11       1.0  0.5594310114451915  0.8279215172633484  0.05567264250213812  1.0000
  O   O12       1.0  0.4405724683875079  0.1720790197595079  0.944330127582546  1.0000
  O   O13       1.0  0.5850906656737322  0.7485696746295217  0.9291515854771575  1.0000
  O   O14       1.0  0.4148979629655258  0.251434963369725  0.07084729726824432  1.0000
  O   O15       1.0  0.1961716249740775  0.3760041716657412  0.9391501745545128  1.0000
  O   O16       1.0  0.8038293429771245  0.6239963653571223  0.060849006254862614  1.0000
