data_image0
_chemical_formula_structural       Cu2H20C20S4N6Cl2
_chemical_formula_sum              "Cu2 H20 C20 S4 N6 Cl2"
_cell_length_a       7.332450649106156
_cell_length_b       7.396154929312339
_cell_length_c       12.345552902832344
_cell_angle_alpha    89.9986655571192
_cell_angle_beta     90.00039981127203
_cell_angle_gamma    111.31318484678911

_space_group_name_H-M_alt    "P 1"
_space_group_IT_number       1

loop_
  _space_group_symop_operation_xyz
  'x, y, z'

loop_
  _atom_site_type_symbol
  _atom_site_label
  _atom_site_symmetry_multiplicity
  _atom_site_fract_x
  _atom_site_fract_y
  _atom_site_fract_z
  _atom_site_occupancy
  Cu  Cu1       1.0  0.5927818075238633  0.3280971032891459  0.4525910253337956  1.0000
  Cu  Cu2       1.0  0.5927936210954595  0.8280971724896631  0.547404659448155  1.0000
  H   H1        1.0  0.8309698659324167  0.0020762820417985005  0.9607079336182522  1.0000
  H   H2        1.0  0.830968488618204  0.5020689484180779  0.0393013871316086  1.0000
  H   H3        1.0  0.7158815116347341  0.11051119346567624  0.0632898632294427  1.0000
  H   H4        1.0  0.7158899338218844  0.6105075353750707  0.9367118007985981  1.0000
  H   H5        1.0  0.9627477491183711  0.11221064534372971  0.1980052578916656  1.0000
  H   H6        1.0  0.9627480596096447  0.6122007604819616  0.8020038633453835  1.0000
  H   H7        1.0  0.1138112302379142  0.9137091532242679  0.0154171941620618  1.0000
  H   H8        1.0  0.11382797082707441  0.4136949511401939  0.9845883087428859  1.0000
  H   H9        1.0  0.1327563086658827  0.8795911738456896  0.1576087541745466  1.0000
  H   H10       1.0  0.13275875430926476  0.37958714912475233  0.8423948736799716  1.0000
  H   H11       1.0  0.08417610435174788  0.9201538408589442  0.4628413593239813  1.0000
  H   H12       1.0  0.08418610695938608  0.4201618238951498  0.5371574528470973  1.0000
  H   H13       1.0  0.03441322247051212  0.8874033413821824  0.6707017612657111  1.0000
  H   H14       1.0  0.03441316880992675  0.38742405412167374  0.3293029781775303  1.0000
  H   H15       1.0  0.16290137950191755  0.007298275058886403  0.8559538426076756  1.0000
  H   H16       1.0  0.1628727219182693  0.5073381315066288  0.14404702576173634  1.0000
  H   H17       1.0  0.4927737621217289  0.27905029856286495  0.8720345109415392  1.0000
  H   H18       1.0  0.4927456921309668  0.7790922432581339  0.1279565954563751  1.0000
  H   H19       1.0  0.6735519309825689  0.42317318888986233  0.7013894241627767  1.0000
  H   H20       1.0  0.6735429685795038  0.92320231411793  0.2985971550179158  1.0000
  C   C1        1.0  0.8318336431786193  0.05669659749536751  0.043037838600689306  1.0000
  C   C2        1.0  0.8318349416822742  0.5566878477229341  0.9569723400244143  1.0000
  C   C3        1.0  0.9664023664777589  0.0568249796731592  0.1162174980334285  1.0000
  C   C4        1.0  0.9664095439735689  0.5568161453862147  0.8837883643742046  1.0000
  C   C5        1.0  0.12707566255995334  0.9830155607507298  0.0951304595605436  1.0000
  C   C6        1.0  0.12708174098645492  0.48300464385947367  0.9048749355634982  1.0000
  C   C7        1.0  0.4235426184018536  0.20450104019212742  0.23333364880624433  1.0000
  C   C8        1.0  0.42354601699874195  0.7044968922363923  0.7666655123696273  1.0000
  C   C9        1.0  0.22275619920509368  0.0367754608533772  0.4814861221837461  1.0000
  C   C10       1.0  0.22276999042301068  0.5367781095069831  0.5185113359789071  1.0000
  C   C11       1.0  0.2855589720138596  0.09330228938450352  0.591262224669876  1.0000
  C   C12       1.0  0.2855670808810586  0.5933151865664641  0.4087363156805779  1.0000
  C   C13       1.0  0.17453770389208498  0.0057808646667468  0.6819973098777297  1.0000
  C   C14       1.0  0.1745343676126154  0.5057989507183579  0.3180052471633488  1.0000
  C   C15       1.0  0.24752560165813964  0.07327903981764192  0.784314799926058  1.0000
  C   C16       1.0  0.2475106057909429  0.5733129802898134  0.21568386670355014  1.0000
  C   C17       1.0  0.42925718994617773  0.2231945322890709  0.7936308327723437  1.0000
  C   C18       1.0  0.4292408596831052  0.7232288578180006  0.206364039180265  1.0000
  C   C19       1.0  0.5319567105557041  0.304231443432947  0.6992807092156568  1.0000
  C   C20       1.0  0.5319501749516958  0.8042560832397355  0.3007110132404804  1.0000
  S   S1        1.0  0.3706316047594241  0.17634258664503477  0.0954071499891498  1.0000
  S   S2        1.0  0.37063684494007987  0.6763387814166464  0.9045905713604228  1.0000
  S   S3        1.0  0.6481073536705607  0.3742198379253808  0.2683933126580129  1.0000
  S   S4        1.0  0.6481132725697094  0.8742126766459821  0.7316035699597592  1.0000
  N   N1        1.0  0.2880596686774196  0.09615597127461233  0.3008766734680322  1.0000
  N   N2        1.0  0.2880664999745903  0.5961559173341372  0.6991210270991387  1.0000
  N   N3        1.0  0.3405713151992061  0.13444491895349134  0.4053367986154583  1.0000
  N   N4        1.0  0.3405854620001634  0.6344460031336184  0.5946613881509819  1.0000
  N   N5        1.0  0.4614926519822902  0.24211430500114522  0.6010926087504131  1.0000
  N   N6        1.0  0.46150023845171967  0.7421261403556516  0.3989013188868498  1.0000
  Cl  Cl1       1.0  0.8083897170448607  0.6177565027216901  0.5100060587408279  1.0000
  Cl  Cl2       1.0  0.8083965754926936  0.11776493447144534  0.4899918286760183  1.0000
