data_image0
_chemical_formula_structural       Na4H20C20N8O20
_chemical_formula_sum              "Na4 H20 C20 N8 O20"
_cell_length_a       3.62738946725374
_cell_length_b       13.736162450091145
_cell_length_c       14.633979049235844
_cell_angle_alpha    90.00010202627064
_cell_angle_beta     95.72805972828408
_cell_angle_gamma    90.00041629770729

_space_group_name_H-M_alt    "P 1"
_space_group_IT_number       1

loop_
  _space_group_symop_operation_xyz
  'x, y, z'

loop_
  _atom_site_type_symbol
  _atom_site_label
  _atom_site_symmetry_multiplicity
  _atom_site_fract_x
  _atom_site_fract_y
  _atom_site_fract_z
  _atom_site_occupancy
  Na  Na1       1.0  0.7300387688731719  0.12333587682527276  0.11503989361774812  1.0000
  Na  Na2       1.0  0.26995103737017695  0.6233384769966718  0.38495926709367734  1.0000
  Na  Na3       1.0  0.2699738114383408  0.8766629596168584  0.8849604486858313  1.0000
  Na  Na4       1.0  0.7300504898109706  0.3766610874412066  0.6150428614201005  1.0000
  H   H1        1.0  0.13171943954867518  0.23280315729386553  0.011732495390532402  1.0000
  H   H2        1.0  0.8682761313876881  0.7328035228661347  0.4882710960725164  1.0000
  H   H3        1.0  0.8682876093219462  0.7671971351538714  0.9882683982300337  1.0000
  H   H4        1.0  0.13172817622401567  0.2671982255913576  0.5117317821545628  1.0000
  H   H5        1.0  0.23573704474404167  0.1326014684520302  0.9620610562868495  1.0000
  H   H6        1.0  0.7642501861548464  0.6326000753243975  0.5379375217739124  1.0000
  H   H7        1.0  0.7642700041265795  0.8673988239957137  0.037939837333716815  1.0000
  H   H8        1.0  0.23574857044478387  0.367402401132068  0.4620645406115572  1.0000
  H   H9        1.0  0.7104655516062052  0.6936370987669206  0.15535525803286285  1.0000
  H   H10       1.0  0.289520549645978  0.19363911579569046  0.34464052151766833  1.0000
  H   H11       1.0  0.2895276245709012  0.3063610096490592  0.8446439377683037  1.0000
  H   H12       1.0  0.7104670951097631  0.8063619046366312  0.6553592256022329  1.0000
  H   H13       1.0  0.709672340456379  0.3052390351096931  0.2444934237844691  1.0000
  H   H14       1.0  0.2903224022606493  0.8052392572806749  0.2555102756758316  1.0000
  H   H15       1.0  0.2903402300744203  0.6947598013318057  0.755506234940249  1.0000
  H   H16       1.0  0.7096846662006725  0.19476321918443054  0.7444919851050713  1.0000
  H   H17       1.0  0.903781912191448  0.5606182443005706  0.05162840285170492  1.0000
  H   H18       1.0  0.09620617314408966  0.06062224061281539  0.44836787277850493  1.0000
  H   H19       1.0  0.0962084835941468  0.43938059211726704  0.9483700432396632  1.0000
  H   H20       1.0  0.9037897541214476  0.9393780518208884  0.5516300219993868  1.0000
  C   C1        1.0  0.7740559953476305  0.4576141848229866  0.15722891011701995  1.0000
  C   C2        1.0  0.2259178489141362  0.9576158906727412  0.34277114256042307  1.0000
  C   C3        1.0  0.22592613747982423  0.5423846515893657  0.8427727554732133  1.0000
  C   C4        1.0  0.7740753077698769  0.04238731377954958  0.6572266860891534  1.0000
  C   C5        1.0  0.5348865886904831  0.4164548463791035  0.31601778937142916  1.0000
  C   C6        1.0  0.46511380910985867  0.91645238212201  0.1839794077815213  1.0000
  C   C7        1.0  0.4651148895773644  0.5835439900502448  0.6839809212471908  1.0000
  C   C8        1.0  0.5348848692441023  0.08355009432941068  0.8160171859730811  1.0000
  C   C9        1.0  0.7087468931750319  0.6166840328809541  0.17216614857073154  1.0000
  C   C10       1.0  0.2912426857939394  0.11668675084190029  0.3278295782561217  1.0000
  C   C11       1.0  0.29124905361288  0.38331334753253526  0.8278331133613721  1.0000
  C   C12       1.0  0.708756012111685  0.88331499760541  0.6721683826553291  1.0000
  C   C13       1.0  0.6396240093309586  0.48015535478794635  0.24139135582795757  1.0000
  C   C14       1.0  0.3603670728791427  0.9801564531428183  0.2586098314053872  1.0000
  C   C15       1.0  0.3603691766170981  0.5198420256232977  0.7586085235511891  1.0000
  C   C16       1.0  0.6396260837951074  0.019846023304104694  0.7413879972433152  1.0000
  C   C17       1.0  0.8696859102078347  0.3642118831998927  0.11521286455332813  1.0000
  C   C18       1.0  0.13031590629937986  0.8642171109208263  0.384787691047663  1.0000
  C   C19       1.0  0.1303155973533379  0.6357833132045126  0.8847878967974908  1.0000
  C   C20       1.0  0.8696911328100538  0.1357846375370144  0.6152125189957902  1.0000
  N   N1        1.0  0.6021763865795862  0.5795622728827396  0.2493148137009555  1.0000
  N   N2        1.0  0.39780390462287574  0.07956288337112478  0.2506819926483247  1.0000
  N   N3        1.0  0.39781679936847053  0.4204351075285046  0.7506850656781979  1.0000
  N   N4        1.0  0.6021837108102516  0.9204395930700427  0.7493157037367484  1.0000
  N   N5        1.0  0.8109019669876714  0.5460129639232036  0.11521008846788312  1.0000
  N   N6        1.0  0.18908850711220984  0.0460177616110045  0.38478690176420133  1.0000
  N   N7        1.0  0.18908841900745435  0.4539851444886337  0.884787674043757  1.0000
  N   N8        1.0  0.8109074201923647  0.9539854428441642  0.6152109930171862  1.0000
  O   O1        1.0  0.8316220976499263  0.28689771791771784  0.16308554796488295  1.0000
  O   O2        1.0  0.1683610609812547  0.7868985679800529  0.3369171592992188  1.0000
  O   O3        1.0  0.16838498054330137  0.7131011185211803  0.8369173963905043  1.0000
  O   O4        1.0  0.8316459976798355  0.21310245247368437  0.6630844179010822  1.0000
  O   O5        1.0  0.3834853345281459  0.45160139515044756  0.381622136914885  1.0000
  O   O6        1.0  0.6165105231700634  0.951597663656386  0.11837911393516981  1.0000
  O   O7        1.0  0.6165023004176006  0.5483974412651448  0.6183769266235404  1.0000
  O   O8        1.0  0.38347711179520155  0.048402628769935084  0.8816199496050033  1.0000
  O   O9        1.0  0.9867489459450949  0.3635021257815226  0.0368146685792681  1.0000
  O   O10       1.0  0.013244559237833199  0.8635079858694751  0.4631870540785671  1.0000
  O   O11       1.0  0.013241488914530903  0.6364930706119977  0.9631865118231605  1.0000
  O   O12       1.0  0.9867624309680493  0.1364937625852107  0.5368097380705947  1.0000
  O   O13       1.0  0.18750125465191295  0.16307122841612912  0.021129413180247504  1.0000
  O   O14       1.0  0.8124923975129832  0.6630736473975174  0.478870592761787  1.0000
  O   O15       1.0  0.8125113158691304  0.8369268800200015  0.9788702455435898  1.0000
  O   O16       1.0  0.18750911995578426  0.33693101307730433  0.5211308521792619  1.0000
  O   O17       1.0  0.6009659123747966  0.3230576437605989  0.3103282562285798  1.0000
  O   O18       1.0  0.39903761020991607  0.8230557833989564  0.18967500088010075  1.0000
  O   O19       1.0  0.3990383658459819  0.6769404646681565  0.6896725712575461  1.0000
  O   O20       1.0  0.6009694582416427  0.17694596506078136  0.8103272598999284  1.0000
