data_image0
_chemical_formula_structural       Ba2H30C16N2O20
_chemical_formula_sum              "Ba2 H30 C16 N2 O20"
_cell_length_a       6.971714539320009
_cell_length_b       9.585958722650654
_cell_length_c       11.139601234265495
_cell_angle_alpha    113.10002326368716
_cell_angle_beta     95.51121547869364
_cell_angle_gamma    98.96775290212058

_space_group_name_H-M_alt    "P 1"
_space_group_IT_number       1

loop_
  _space_group_symop_operation_xyz
  'x, y, z'

loop_
  _atom_site_type_symbol
  _atom_site_label
  _atom_site_symmetry_multiplicity
  _atom_site_fract_x
  _atom_site_fract_y
  _atom_site_fract_z
  _atom_site_occupancy
  Ba  Ba1       1.0  0.5963594477948745  0.7601275718852986  0.6065627108495091  1.0000
  Ba  Ba2       1.0  0.4036391976576255  0.23987243627226457  0.3934372255267959  1.0000
  H   H1        1.0  0.1258685918008665  0.7527946625122081  0.6890952905881986  1.0000
  H   H2        1.0  0.8741311595494353  0.24720416994469466  0.3109043158058356  1.0000
  H   H3        1.0  0.07885174584109927  0.6637065158433799  0.5369082053768821  1.0000
  H   H4        1.0  0.9211483379542145  0.33629347738462184  0.4630909156153891  1.0000
  H   H5        1.0  0.864794892496846  0.6484858342945612  0.35752974440610785  1.0000
  H   H6        1.0  0.1352026470578451  0.3515153495636624  0.6424705219524824  1.0000
  H   H7        1.0  0.835173296305264  0.5041903304595863  0.4009213740767947  1.0000
  H   H8        1.0  0.16482678749004248  0.4958096627684153  0.5990777469154762  1.0000
  H   H9        1.0  0.5847941703984461  0.8513592974362323  0.9427153413678511  1.0000
  H   H10       1.0  0.4152055825452124  0.14863953554323925  0.057283367600724895  1.0000
  H   H11       1.0  0.3990050804034836  0.8825289951075629  0.8749257226005581  1.0000
  H   H12       1.0  0.6009946709468252  0.11746983734933988  0.1250738837934762  1.0000
  H   H13       1.0  0.9501477822978687  0.06357267466974999  0.6033285708640506  1.0000
  H   H14       1.0  0.049857301746264536  0.9364144693824553  0.3966557410106545  1.0000
  H   H15       1.0  0.7465726571956354  0.09434431791977714  0.5699260884448805  1.0000
  H   H16       1.0  0.2534333783594817  0.9056614260139351  0.43008251819371407  1.0000
  H   H17       1.0  0.5104660858012693  0.12611475351756232  0.6905542379747089  1.0000
  H   H18       1.0  0.48953432725234325  0.8738863994364006  0.30944619246670146  1.0000
  H   H19       1.0  0.3896521944234976  0.04934506021717057  0.7729524467602574  1.0000
  H   H20       1.0  0.6103453467245572  0.9506561241636213  0.22704692217287437  1.0000
  H   H21       1.0  0.860548554978088  0.13555588153639056  0.8244764923118736  1.0000
  H   H22       1.0  0.13945694018333643  0.864442888066861  0.1755252370987249  1.0000
  H   H23       1.0  0.882967068553647  0.1308332678265813  0.9824514265158228  1.0000
  H   H24       1.0  0.11702947844609202  0.869164435286052  0.01754760377169614  1.0000
  H   H25       1.0  0.3069956216643916  0.574194821864097  0.8738691016663509  1.0000
  H   H26       1.0  0.6930008103991482  0.4258075371722183  0.12613239209996852  1.0000
  H   H27       1.0  0.4065292234281868  0.7114714578859417  0.1158983563442318  1.0000
  H   H28       1.0  0.5934726263748827  0.28852967961589115  0.8841021561385957  1.0000
  H   H29       1.0  0.11252408156146028  0.30489615296276174  0.15510733068723676  1.0000
  H   H30       1.0  0.8874788725460548  0.6951038083158421  0.8448937492387641  1.0000
  C   C1        1.0  0.34640996369218147  0.5905249564559937  0.3031980114113537  1.0000
  C   C2        1.0  0.6535901169164263  0.40947503572687066  0.6968029044318271  1.0000
  C   C3        1.0  0.15577459061669427  0.36051497905177843  0.8770547552120859  1.0000
  C   C4        1.0  0.8442243872808106  0.6394861898768837  0.12294469576245592  1.0000
  C   C5        1.0  0.9664327804497362  0.14368319886420267  0.907438221155175  1.0000
  C   C6        1.0  0.03356940020498192  0.8563190988861604  0.09256270335134073  1.0000
  C   C7        1.0  0.27520667655127073  0.5175342107355617  0.15659189385990388  1.0000
  C   C8        1.0  0.7247908645967841  0.4824669736452306  0.8434074750732278  1.0000
  C   C9        1.0  0.26475223011800597  0.5170985461575622  0.9377780999508614  1.0000
  C   C10       1.0  0.7352453078433356  0.48290263717809956  0.06222306383317988  1.0000
  C   C11       1.0  0.3215909133642042  0.5925965667837969  0.07266660644150844  1.0000
  C   C12       1.0  0.6784062985255518  0.4074034578710338  0.9273314530424841  1.0000
  C   C13       1.0  0.0730845506595017  0.009002206080921797  0.8582081798779838  1.0000
  C   C14       1.0  0.9269151990974506  0.9909966258534121  0.14179232394150168  1.0000
  C   C15       1.0  0.16056190631877598  0.369507655482522  0.09796155721392097  1.0000
  C   C16       1.0  0.8394381774765307  0.6304923377454795  0.9020375637783502  1.0000
  N   N1        1.0  0.09777081943033748  0.29632696619714227  0.9651245412743066  1.0000
  N   N2        1.0  0.9022306995210769  0.7036730110561605  0.034875559184826  1.0000
  O   O1        1.0  0.4065248053937366  0.73844688385288  0.3620063878369705  1.0000
  O   O2        1.0  0.5934762677698304  0.2615565890755817  0.6379957640772815  1.0000
  O   O3        1.0  0.18208156742998927  0.6849818609430255  0.6146614176515042  1.0000
  O   O4        1.0  0.8179199531147815  0.31501811683284586  0.38533778538217683  1.0000
  O   O5        1.0  0.3479351131967121  0.5033117075771399  0.3644528878687225  1.0000
  O   O6        1.0  0.6520636455986307  0.49668364413417265  0.6355454824542334  1.0000
  O   O7        1.0  0.8569610831368308  0.619564536097762  0.43438273024845125  1.0000
  O   O8        1.0  0.14304043581458356  0.38043544115554073  0.5656173702106813  1.0000
  O   O9        1.0  0.10732474579441485  0.2778965927947396  0.7542732056885554  1.0000
  O   O10       1.0  0.8926734554635871  0.7221069115605513  0.24572788471741078  1.0000
  O   O11       1.0  0.4861635091082235  0.8074199639577414  0.8605103169370378  1.0000
  O   O12       1.0  0.5138365746870832  0.19258002927026036  0.13948880405523306  1.0000
  O   O13       1.0  0.2572507543748586  0.03482071904823408  0.9004847226107485  1.0000
  O   O14       1.0  0.7427486677171447  0.9651769536827075  0.09951357433413928  1.0000
  O   O15       1.0  0.8156499371133992  0.009218108378242093  0.5574993544730873  1.0000
  O   O16       1.0  0.1843429565612026  0.9907819600201361  0.4425029460139313  1.0000
  O   O17       1.0  0.9687337344285895  0.8779552698424951  0.780254183201535  1.0000
  O   O18       1.0  0.031263467901027284  0.12204475167692402  0.2197492608351794  1.0000
  O   O19       1.0  0.4900285793209207  0.03672576076188249  0.7157991570475204  1.0000
  O   O20       1.0  0.5099700677249286  0.9632742479182493  0.2841998819033334  1.0000
