data_image0
_chemical_formula_structural       As2H20Pb2C30N2O24
_chemical_formula_sum              "As2 H20 Pb2 C30 N2 O24"
_cell_length_a       5.0798004402136385
_cell_length_b       11.94414928130166
_cell_length_c       14.951951357813892
_cell_angle_alpha    99.06479699839983
_cell_angle_beta     94.94270679361607
_cell_angle_gamma    97.90187302294628

_space_group_name_H-M_alt    "P 1"
_space_group_IT_number       1

loop_
  _space_group_symop_operation_xyz
  'x, y, z'

loop_
  _atom_site_type_symbol
  _atom_site_label
  _atom_site_symmetry_multiplicity
  _atom_site_fract_x
  _atom_site_fract_y
  _atom_site_fract_z
  _atom_site_occupancy
  As  As1       1.0  0.0015575125939407122  0.1381398644297676  0.4281560118265873  1.0000
  As  As2       1.0  0.9984406229771992  0.8618607897147683  0.5718435970584181  1.0000
  H   H1        1.0  0.41665547255158936  0.3343824179959398  0.22864503335970454  1.0000
  H   H2        1.0  0.5833450736634802  0.6656139442424873  0.7713534410250987  1.0000
  H   H3        1.0  0.24479376693871302  0.38137428090185216  0.4443467582616307  1.0000
  H   H4        1.0  0.7552014761905852  0.6186238011414745  0.5556531167010235  1.0000
  H   H5        1.0  0.5426037413325062  0.1672713349983965  0.2939898269623171  1.0000
  H   H6        1.0  0.45739119966849273  0.8327258908309928  0.7060106015854757  1.0000
  H   H7        1.0  0.8713196290634072  0.2640602393021467  0.11404412575707575  1.0000
  H   H8        1.0  0.12868473630976504  0.7359412707813746  0.8859550985072461  1.0000
  H   H9        1.0  0.9584181736369854  0.31141698229249926  0.8375032786703118  1.0000
  H   H10       1.0  0.04158589469072647  0.6885836733526106  0.16249716835729094  1.0000
  H   H11       1.0  0.37412131155173967  0.07021960802056529  0.9558812290170309  1.0000
  H   H12       1.0  0.6258870056039214  0.9297819018796575  0.044118107890255956  1.0000
  H   H13       1.0  0.7980200749985471  0.6101131524631355  0.28313208782950033  1.0000
  H   H14       1.0  0.2019824471077669  0.38988320968364576  0.7168664428767855  1.0000
  H   H15       1.0  0.5672079793563256  0.5006811795326769  0.9282945586188234  1.0000
  H   H16       1.0  0.4327937855376334  0.4993186111125425  0.07170303978170982  1.0000
  H   H17       1.0  0.45633497763241576  0.99482684697886  0.1570832753396587  1.0000
  H   H18       1.0  0.543661791386924  0.0051755214607212  0.8429158392317292  1.0000
  H   H19       1.0  0.1200055804366187  0.0682425231330228  0.284300510199202  1.0000
  H   H20       1.0  0.8799945564399678  0.931758139797459  0.7157025008980186  1.0000
  Pb  Pb1       1.0  0.540794334395656  0.1258976325949632  0.612591240066898  1.0000
  Pb  Pb2       1.0  0.45920028922851946  0.874098731693934  0.3874077345315997  1.0000
  C   C1        1.0  0.5970883456770083  0.3430546104200545  0.2756384836620215  1.0000
  C   C2        1.0  0.4029114534913916  0.6569451838678546  0.7243603967733209  1.0000
  C   C3        1.0  0.7557832871673044  0.4523377765164795  0.298516411898234  1.0000
  C   C4        1.0  0.2442139267703993  0.5476603036596757  0.7014828502077537  1.0000
  C   C5        1.0  0.9933998762088834  0.4628455292125153  0.35914116693364667  1.0000
  C   C6        1.0  0.006594747415292135  0.5371508350763818  0.640857807664851  1.0000
  C   C7        1.0  0.06445587412396496  0.36923000797057176  0.39670029912419846  1.0000
  C   C8        1.0  0.9355413448965848  0.6307680739811089  0.6032996321599313  1.0000
  C   C9        1.0  0.9025639795190799  0.2639229235053905  0.3726813546693748  1.0000
  C   C10       1.0  0.09743520014419  0.7360751530280821  0.6273166254018037  1.0000
  C   C11       1.0  0.6688937570875311  0.250574924462029  0.3117886992267032  1.0000
  C   C12       1.0  0.3311037589784719  0.7494240119280705  0.6882100092941528  1.0000
  C   C13       1.0  0.9577808224968505  0.24250083201533099  0.05057305781313199  1.0000
  C   C14       1.0  0.04222157715076245  0.75750068171088  0.9494274484859915  1.0000
  C   C15       1.0  0.8982155927677911  0.2972643458411853  0.9768274142856015  1.0000
  C   C16       1.0  0.10178817343162187  0.7027354535899873  0.023173586327139624  1.0000
  C   C17       1.0  0.007052167394412815  0.2691138963566573  0.894783250694708  1.0000
  C   C18       1.0  0.9929511538866221  0.7308901913379273  0.10521760238343353  1.0000
  C   C19       1.0  0.1782513268500381  0.1865557045414548  0.8858301828621861  1.0000
  C   C20       1.0  0.8217591661978288  0.8134518201625763  0.1141733090868584  1.0000
  C   C21       1.0  0.24046765112633747  0.1337865529630662  0.9602454194291143  1.0000
  C   C22       1.0  0.7595396321028716  0.8662175380992636  0.039756884648284155  1.0000
  C   C23       1.0  0.1310565877286152  0.16132359773362023  0.0422805294019781  1.0000
  C   C24       1.0  0.868944158487416  0.8386787794002546  0.9577220437031004  1.0000
  C   C25       1.0  0.20274190903760567  0.1044009680614906  0.12085936519491723  1.0000
  C   C26       1.0  0.7972604753614831  0.8956005403381654  0.8791391335697727  1.0000
  C   C27       1.0  0.7212657645731184  0.38651043772007654  0.9875514903667623  1.0000
  C   C28       1.0  0.2787419127460495  0.6134893473236431  0.012444269463777913  1.0000
  C   C29       1.0  0.2923590378190539  0.1578455771637337  0.7968434092407578  1.0000
  C   C30       1.0  0.7076462847674351  0.8421585193168043  0.20316084604959173  1.0000
  N   N1        1.0  0.16839627305706972  0.5702496783556794  0.3847091089841967  1.0000
  N   N2        1.0  0.8316026095607327  0.4297475437393743  0.6152900938502697  1.0000
  O   O1        1.0  0.11787884058904302  0.6518342093049867  0.3445420355265085  1.0000
  O   O2        1.0  0.8821183682658218  0.34816386909565006  0.6554565574013368  1.0000
  O   O3        1.0  0.35994787755827673  0.5803582495819413  0.4437334125649599  1.0000
  O   O4        1.0  0.6400490190026034  0.4196389690537216  0.5562643955917395  1.0000
  O   O5        1.0  0.6684288061962746  0.5377639772088756  0.26309652648591714  1.0000
  O   O6        1.0  0.3315726616522241  0.46223495899792505  0.736902294677904  1.0000
  O   O7        1.0  0.6952799051675171  0.4402123249739702  0.9175357572971876  1.0000
  O   O8        1.0  0.3047192846614379  0.5597857551105462  0.08246356113028241  1.0000
  O   O9        1.0  0.6106134218902426  0.407166719081026  0.05849237790685892  1.0000
  O   O10       1.0  0.38938595777398877  0.5928373723479011  0.941509700884609  1.0000
  O   O11       1.0  0.2380354218268224  0.21374084259164752  0.7343206287299893  1.0000
  O   O12       1.0  0.7619709499346429  0.7862606780533525  0.2656826669246898  1.0000
  O   O13       1.0  0.4409282127388323  0.0785626891330793  0.7857562379915707  1.0000
  O   O14       1.0  0.559079085738901  0.921441407255813  0.21424807362026854  1.0000
  O   O15       1.0  0.398051381567754  0.0443100004629784  0.10788315419490153  1.0000
  O   O16       1.0  0.6019415530449591  0.955687214804939  0.892113202962527  1.0000
  O   O17       1.0  0.08587758325514729  0.11634323233099757  0.19086639266480185  1.0000
  O   O18       1.0  0.9141284558809702  0.8836574214469409  0.8091334415061412  1.0000
  O   O19       1.0  0.7245680308157034  0.0580730160612291  0.45575984177587264  1.0000
  O   O20       1.0  0.27542266135735355  0.9419233555130402  0.5442416968922359  1.0000
  O   O21       1.0  0.226680199397947  0.1967829133076364  0.5182754310541853  1.0000
  O   O22       1.0  0.7733103703164019  0.8032186098460629  0.48172808320676813  1.0000
  O   O23       1.0  0.1403859681635993  0.04498485544228711  0.346739303223906  1.0000
  O   O24       1.0  0.8596161293557145  0.9550158020699939  0.6532617566603565  1.0000
