data_image0
_chemical_formula_structural       Al2H16C24S2N2O10
_chemical_formula_sum              "Al2 H16 C24 S2 N2 O10"
_cell_length_a       6.656542373101888
_cell_length_b       12.698318238344129
_cell_length_c       16.92432855021211
_cell_angle_alpha    84.04035776071792
_cell_angle_beta     82.82240483731454
_cell_angle_gamma    75.44429516465392

_space_group_name_H-M_alt    "P 1"
_space_group_IT_number       1

loop_
  _space_group_symop_operation_xyz
  'x, y, z'

loop_
  _atom_site_type_symbol
  _atom_site_label
  _atom_site_symmetry_multiplicity
  _atom_site_fract_x
  _atom_site_fract_y
  _atom_site_fract_z
  _atom_site_occupancy
  Al  Al1       1.0  0.5002162277718368  0.49984821985359656  0.4998802181862557  1.0000
  Al  Al2       1.0  0.00024573861442434263  0.49993450413956  0.4998159152508777  1.0000
  H   H1        1.0  0.2146083862353904  0.6190522776697875  0.43300654233821945  1.0000
  H   H2        1.0  0.78390956703425  0.3835408507057635  0.5698019922771992  1.0000
  H   H3        1.0  0.855315739497648  0.493329195494965  0.7362132243039241  1.0000
  H   H4        1.0  0.7929146582398442  0.49246475617091795  0.8863404525135865  1.0000
  H   H5        1.0  0.4253994993699736  0.5099705746701133  0.8951994810297351  1.0000
  H   H6        1.0  0.48641141821692463  0.5131854692505655  0.7443509845819067  1.0000
  H   H7        1.0  0.5747350715893731  0.48993895109716595  0.10464044360936241  1.0000
  H   H8        1.0  0.2072634064185053  0.5073776992140536  0.11357213363252333  1.0000
  H   H9        1.0  0.14467212013243372  0.5065695482464888  0.2637276170644044  1.0000
  H   H10       1.0  0.5136151406443757  0.4867222434237207  0.25550696686099883  1.0000
  H   H11       1.0  0.8267061536913403  0.1958266660885073  0.532142926396439  1.0000
  H   H12       1.0  0.836574654145181  0.07942593550477989  0.6010477359592061  1.0000
  H   H13       1.0  0.6520425776561394  0.20498633000698158  0.620392111705897  1.0000
  H   H14       1.0  0.3473514709916259  0.7947845529242624  0.3797774550422447  1.0000
  H   H15       1.0  0.1634139071516002  0.920613968040371  0.3988918542782899  1.0000
  H   H16       1.0  0.17251475903105984  0.8046082932248027  0.468053126224973  1.0000
  C   C1        1.0  0.6627790911142168  0.6956399500157175  0.5018891920466899  1.0000
  C   C2        1.0  0.7894309547875693  0.49784618666839  0.3563710272698728  1.0000
  C   C3        1.0  0.3374762218555957  0.30431266178586464  0.49785633169658894  1.0000
  C   C4        1.0  0.21072763062331754  0.5018616323505469  0.6434984602229721  1.0000
  C   C5        1.0  0.1744549512881477  0.5029922195047618  0.7322467423566154  1.0000
  C   C6        1.0  0.9782732474676551  0.49718104433487287  0.7719718307881039  1.0000
  C   C7        1.0  0.9434858466031809  0.49670102173389097  0.8544227428301883  1.0000
  C   C8        1.0  0.10660288860479743  0.5012649019715028  0.8986049084906327  1.0000
  C   C9        1.0  0.3026015419341235  0.5067943696081229  0.8591021534417183  1.0000
  C   C10       1.0  0.33605465549002383  0.5082692853833635  0.7762759102358958  1.0000
  C   C11       1.0  0.69750177570657  0.49309868514139754  0.14076102246243494  1.0000
  C   C12       1.0  0.8935604334351692  0.4985953016389005  0.10129024292928081  1.0000
  C   C13       1.0  0.05668674693834675  0.5031275322557817  0.14549034939007302  1.0000
  C   C14       1.0  0.02183772239422412  0.5026400786138439  0.2279389298036777  1.0000
  C   C15       1.0  0.8256052029141968  0.4968231667279426  0.2676178858946089  1.0000
  C   C16       1.0  0.6639940214270367  0.4915827874557051  0.2235883260557331  1.0000
  C   C17       1.0  0.5766785282056972  0.1166149323187398  0.530975593836196  1.0000
  C   C18       1.0  0.4232150859743058  0.8833520622911378  0.46900800329748904  1.0000
  C   C19       1.0  0.4036904029308133  0.18519682153221584  0.4982054593315724  1.0000
  C   C20       1.0  0.5962800048585635  0.8147442720757351  0.5017142730402357  1.0000
  C   C21       1.0  0.417931652310237  0.9931470032098133  0.4800193957573243  1.0000
  C   C22       1.0  0.5819728651409335  0.006800702052458996  0.519978967089081  1.0000
  C   C23       1.0  0.7314080291796257  0.15084560434495128  0.5734948220049176  1.0000
  C   C24       1.0  0.2682829940033145  0.8491792691175847  0.42656012708066277  1.0000
  S   S1        1.0  0.2519577285977519  0.11697094297791467  0.4557610671085899  1.0000
  S   S2        1.0  0.7479510106623125  0.8829701373080281  0.5441972759682586  1.0000
  N   N1        1.0  0.09003016516131622  0.5004582298353808  0.982670921449234  1.0000
  N   N2        1.0  0.9101702166572778  0.499406900817341  0.0172261881092908  1.0000
  O   O1        1.0  0.5271066331159275  0.6467996496945148  0.4871904190965994  1.0000
  O   O2        1.0  0.9333691940898132  0.5175256275264032  0.39155049382618773  1.0000
  O   O3        1.0  0.14987422159691724  0.35048518420860125  0.4839007348829015  1.0000
  O   O4        1.0  0.3832197283665337  0.5185100331824088  0.609705339673731  1.0000
  O   O5        1.0  0.4731123942384201  0.35308576817425313  0.5126678978362307  1.0000
  O   O6        1.0  0.06666671073926271  0.48230834584850857  0.6082953617468834  1.0000
  O   O7        1.0  0.850641169750233  0.6495896664194019  0.5156097662436068  1.0000
  O   O8        1.0  0.6171058709565711  0.481048731513269  0.3901927781777204  1.0000
  O   O9        1.0  0.23779611034414225  0.5493873670493271  0.46396327529043907  1.0000
  O   O10       1.0  0.7625999169278472  0.45066087585426107  0.5357877692196382  1.0000
