data_image0
_chemical_formula_structural       Zn4H28C58N8O18
_chemical_formula_sum              "Zn4 H28 C58 N8 O18"
_cell_length_a       10.345508472150716
_cell_length_b       11.837271802061101
_cell_length_c       12.35
_cell_angle_alpha    92.37250029441671
_cell_angle_beta     106.74697557541036
_cell_angle_gamma    99.44867454204685

_space_group_name_H-M_alt    "P 1"
_space_group_IT_number       1

loop_
  _space_group_symop_operation_xyz
  'x, y, z'

loop_
  _atom_site_type_symbol
  _atom_site_label
  _atom_site_symmetry_multiplicity
  _atom_site_fract_x
  _atom_site_fract_y
  _atom_site_fract_z
  _atom_site_occupancy
  Zn  Zn1       1.0  0.8776904538211524  0.9175195286241689  0.5960807852117469  1.0000
  Zn  Zn2       1.0  0.1223101971878933  0.082481136747468  0.4039186695826302  1.0000
  Zn  Zn3       1.0  0.10985257215669718  0.5385897370249708  0.4455068973848455  1.0000
  Zn  Zn4       1.0  0.8901460600206902  0.4614109283466661  0.5544928798252755  1.0000
  H   H1        1.0  0.18535685186712667  0.8539552472577725  0.2073258266240785  1.0000
  H   H2        1.0  0.8146436101306875  0.1460445579049008  0.7926735484162748  1.0000
  H   H3        1.0  0.044688013977712195  0.668641289825743  0.23484867969362708  1.0000
  H   H4        1.0  0.9553124480201017  0.3313585153369232  0.7651490759135271  1.0000
  H   H5        1.0  0.3935299048260674  0.5520279214987553  0.5580956454829362  1.0000
  H   H6        1.0  0.606470368160515  0.44797102345494716  0.4419044595199964  1.0000
  H   H7        1.0  0.6135025539200923  0.5558902597580868  0.7125510428896717  1.0000
  H   H8        1.0  0.3864987284823158  0.44410868519561575  0.2874468766138847  1.0000
  H   H9        1.0  0.8115322610834068  0.7177420176303572  0.7343817669631179  1.0000
  H   H10       1.0  0.18846902131900115  0.2822569273233455  0.2656169622570417  1.0000
  H   H11       1.0  0.38617825307125025  0.0173512750621398  0.23060527924316424  1.0000
  H   H12       1.0  0.6138210104994924  0.9826476698915627  0.7693937723927462  1.0000
  H   H13       1.0  0.604348716905683  0.1614560617477068  0.281520502104236  1.0000
  H   H14       1.0  0.39564991527169713  0.8385446036239301  0.7184792751058922  1.0000
  H   H15       1.0  0.8090354925813656  0.1257401854609554  0.4342786201085787  1.0000
  H   H16       1.0  0.1909629505847832  0.8742596197017107  0.5657210773475256  1.0000
  H   H17       1.0  0.7312352983591595  0.0765551571776371  0.010433683413566541  1.0000
  H   H18       1.0  0.268765541661125  0.9234463684029706  0.9895658511348273  1.0000
  H   H19       1.0  0.4549025433524534  0.3017501227119297  0.04614765508098633  1.0000
  H   H20       1.0  0.5450969092295281  0.6982496824507436  0.9538539054587362  1.0000
  H   H21       1.0  0.6354912827091539  0.40713174256406154  0.2166712458080937  1.0000
  H   H22       1.0  0.3645069714457633  0.5928672023896411  0.7833308010437889  1.0000
  H   H23       1.0  0.2268034131174019  0.05215877068032171  0.8123662213832574  1.0000
  H   H24       1.0  0.7731962284758181  0.9478418946913151  0.18763298976069356  1.0000
  H   H25       1.0  0.4399798850792394  0.423285606744912  0.7091751692550545  1.0000
  H   H26       1.0  0.5600217753456391  0.5767150586267249  0.2908269583395366  1.0000
  H   H27       1.0  0.579262708339165  0.3215736383436223  0.8607851654070586  1.0000
  H   H28       1.0  0.4207377536586492  0.6784261668190439  0.13921501934989072  1.0000
  C   C1        1.0  0.15156156668280826  0.700195475132837  0.2815939140308926  1.0000
  C   C2        1.0  0.8484399047308315  0.2998043300298292  0.7184057046598796  1.0000
  C   C3        1.0  0.3528097879277396  0.7224714465278694  0.4071549965961836  1.0000
  C   C4        1.0  0.6471884662271776  0.2775274984258331  0.5928446211058969  1.0000
  C   C5        1.0  0.35415686760618564  0.8159193873885259  0.3413806438040581  1.0000
  C   C6        1.0  0.6458405661441374  0.1840804177741475  0.6586180002850242  1.0000
  C   C7        1.0  0.4695162235363242  0.9067385296477326  0.3595523667750058  1.0000
  C   C8        1.0  0.5304842384614901  0.0932612755149407  0.6404470082653475  1.0000
  C   C9        1.0  0.5888614316873628  0.8960022615375465  0.44803081069731837  1.0000
  C   C10       1.0  0.411139219321683  0.1039984038340904  0.5519702635302508  1.0000
  C   C11       1.0  0.5892285839879889  0.7993810097996743  0.5168687402710431  1.0000
  C   C12       1.0  0.41076985917816694  0.2006187953629919  0.48313095718506094  1.0000
  C   C13       1.0  0.4715157791432958  0.7115364701464344  0.4981368506347224  1.0000
  C   C14       1.0  0.5284814655957888  0.2884624748072682  0.5018625234169392  1.0000
  C   C15       1.0  0.4807960737366983  0.6219577492168398  0.5701303398665658  1.0000
  C   C16       1.0  0.5192053976769485  0.3780420559458264  0.4298692788242064  1.0000
  C   C17       1.0  0.6020778779517783  0.623921606287233  0.6556975527945424  1.0000
  C   C18       1.0  0.39792359346186856  0.37607819887544025  0.34430206589622964  1.0000
  C   C19       1.0  0.7139720668051409  0.7133540916925298  0.668751122162263  1.0000
  C   C20       1.0  0.2860283951926732  0.2866457134701434  0.3312466334448914  1.0000
  C   C21       1.0  0.4753046781101347  0.0047870628982594  0.2988417523815414  1.0000
  C   C22       1.0  0.5246935760447826  0.9952118820554432  0.7011578653205461  1.0000
  C   C23       1.0  0.5959370051900307  0.0848140234644603  0.32649043473081457  1.0000
  C   C24       1.0  0.4040614379761251  0.9151857816982059  0.6735076432920977  1.0000
  C   C25       1.0  0.7107596777471059  0.0665190991661362  0.4133562784952005  1.0000
  C   C26       1.0  0.28923958582363696  0.9334798457875665  0.5866419634241069  1.0000
  C   C27       1.0  0.0590857785725731  0.1267913608179541  0.6332069194639374  1.0000
  C   C28       1.0  0.9409138630206471  0.8732093045536828  0.3667931013966097  1.0000
  C   C29       1.0  0.9443125380419486  0.1635446491182293  0.19678125948222902  1.0000
  C   C30       1.0  0.055687292562495785  0.8364568764623712  0.8032188411323347  1.0000
  C   C31       1.0  0.8812979075440381  0.3653255867948886  0.31717223875497774  1.0000
  C   C32       1.0  0.1186991481838149  0.6346724979498433  0.6828294846924621  1.0000
  C   C33       1.0  0.7834447383215489  0.3007144311163259  0.21002387988301055  1.0000
  C   C34       1.0  0.21655250641753548  0.6992845138373767  0.7899771136018502  1.0000
  C   C35       1.0  0.8113726951799549  0.2076200361408809  0.15192880249383486  1.0000
  C   C36       1.0  0.1886269464132582  0.7923806292307561  0.8480712183667124  1.0000
  C   C37       1.0  0.7108322935690906  0.1497658218937374  0.05525172611566374  1.0000
  C   C38       1.0  0.2891673480241295  0.8502348434778993  0.9447482947448832  1.0000
  C   C39       1.0  0.5837769292551442  0.1835075186024966  0.019071984026687992  1.0000
  C   C40       1.0  0.41622271233806873  0.8164931467691403  0.9809288465504551  1.0000
  C   C41       1.0  0.5549064923974926  0.2763920225901302  0.07591666496043104  1.0000
  C   C42       1.0  0.4450927711732575  0.7236069223635725  0.9240840061086716  1.0000
  C   C43       1.0  0.6558606398777868  0.3348475229048162  0.17063406705715783  1.0000
  C   C44       1.0  0.3441376142771304  0.6651514220488863  0.8293671700781289  1.0000
  C   C45       1.0  0.4101151201937724  0.18207010941956267  0.8465033492888095  1.0000
  C   C46       1.0  0.5898843323882089  0.8179296957431035  0.15349740153432376  1.0000
  C   C47       1.0  0.2732265222132426  0.1340876532713295  0.7906920904843773  1.0000
  C   C48       1.0  0.7267739397845715  0.8659121518913366  0.2093080942725791  1.0000
  C   C49       1.0  0.19697977912997539  0.1902739223325369  0.7044612903565195  1.0000
  C   C50       1.0  0.8030198624632376  0.8097267430390929  0.2955387305040276  1.0000
  C   C51       1.0  0.25620748401703247  0.2964366119262039  0.6763754717429791  1.0000
  C   C52       1.0  0.7437931669920204  0.7035640534454329  0.3236247927679942  1.0000
  C   C53       1.0  0.39391429530146377  0.3422212341651729  0.7326719232061337  1.0000
  C   C54       1.0  0.6060873651234144  0.6577794312064569  0.2673293946718616  1.0000
  C   C55       1.0  0.471790103473694  0.2858414180865125  0.817247777950044  1.0000
  C   C56       1.0  0.5282103585241202  0.7141583870761536  0.18275240680690533  1.0000
  C   C57       1.0  0.17046773346508806  0.3665634274976028  0.597279272150594  1.0000
  C   C58       1.0  0.8295327285327261  0.6334363776650633  0.4027209126063624  1.0000
  N   N1        1.0  0.2244924381061111  0.6514930240796915  0.36840062818371416  1.0000
  N   N2        1.0  0.7755068254646389  0.3485059208740111  0.6316008526019914  1.0000
  N   N3        1.0  0.226024580909538  0.7982231685308392  0.26205225606554444  1.0000
  N   N4        1.0  0.7739738622566108  0.201776636631827  0.7379466316739638  1.0000
  N   N5        1.0  0.7064398337739277  0.9747500913706447  0.4722786356405635  1.0000
  N   N6        1.0  0.2935598078192854  0.0252505740009923  0.5277205755033876  1.0000
  N   N7        1.0  0.7067994850131568  0.7980588686182486  0.6007410180275912  1.0000
  N   N8        1.0  0.2931983267596293  0.20194265696235186  0.3992569758529356  1.0000
  O   O1        1.0  0.9771255903156373  0.0748399004985458  0.682861367450343  1.0000
  O   O2        1.0  0.02287506069341559  0.9251607648730911  0.317138087344027  1.0000
  O   O3        1.0  0.033776747980645894  0.1219174168140853  0.5262802077279147  1.0000
  O   O4        1.0  0.9662230826238059  0.8780841087665223  0.47371908317005323  1.0000
  O   O5        1.0  0.9764324667427642  0.1577760877892587  0.30543496507084456  1.0000
  O   O6        1.0  0.023574554424080033  0.8422305990451449  0.6945654565371839  1.0000
  O   O7        1.0  0.007947223081799805  0.1367302152162466  0.1310227460030404  1.0000
  O   O8        1.0  0.9920498326460531  0.8632678695284923  0.8689749288613982  1.0000
  O   O9        1.0  0.9972955833806834  0.41924778585642025  0.31479924198202264  1.0000
  O   O10       1.0  0.002704122572197301  0.5807485784703843  0.6852022431920446  1.0000
  O   O11       1.0  0.8322372155669482  0.3659363351610665  0.40061261668604686  1.0000
  O   O12       1.0  0.16776021818337478  0.6340634700016068  0.5993900759860296  1.0000
  O   O13       1.0  0.4836448734862983  0.1199776455947514  0.9266415566682015  1.0000
  O   O14       1.0  0.5163523712527862  0.8800212993589512  0.07335862710005611  1.0000
  O   O15       1.0  0.22288701002884886  0.4220735723111916  0.528848787287238  1.0000
  O   O16       1.0  0.7771132629577266  0.5779253726425111  0.47115212743229756  1.0000
  O   O17       1.0  0.053678371937088805  0.3695956641043168  0.609479687188589  1.0000
  O   O18       1.0  0.9463220900607253  0.6304041410583494  0.3905204975683604  1.0000
