data_image0
_chemical_formula_structural       Cd2H30C34N2O12
_chemical_formula_sum              "Cd2 H30 C34 N2 O12"
_cell_length_a       7.701641790897895
_cell_length_b       10.263221297258958
_cell_length_c       11.537004752671475
_cell_angle_alpha    63.62209887619816
_cell_angle_beta     82.36986191473743
_cell_angle_gamma    72.54794049798546

_space_group_name_H-M_alt    "P 1"
_space_group_IT_number       1

loop_
  _space_group_symop_operation_xyz
  'x, y, z'

loop_
  _atom_site_type_symbol
  _atom_site_label
  _atom_site_symmetry_multiplicity
  _atom_site_fract_x
  _atom_site_fract_y
  _atom_site_fract_z
  _atom_site_occupancy
  Cd  Cd1       1.0  0.24978680400662498  0.14401741847601113  0.7122366149299423  1.0000
  Cd  Cd2       1.0  0.7502154696936567  0.8559793610668507  0.2877615542645985  1.0000
  H   H1        1.0  0.32147032003689435  0.047353834446752785  0.48343328859810697  1.0000
  H   H2        1.0  0.17860832986020359  0.46822793407925206  0.4842202486902493  1.0000
  H   H3        1.0  0.6785296802845546  0.9526426058399693  0.5165686393989405  1.0000
  H   H4        1.0  0.8213916369419322  0.5317702415176201  0.5157799434753441  1.0000
  H   H5        1.0  0.3346906813249149  0.1565919391753852  0.24375947911467932  1.0000
  H   H6        1.0  0.16565456649295376  0.5993715802239521  0.2444838536281679  1.0000
  H   H7        1.0  0.6653069987929778  0.843404904198785  0.756240973548678  1.0000
  H   H8        1.0  0.8343467194505436  0.4006264710863192  0.755516433851504  1.0000
  H   H9        1.0  0.21901041792461473  0.2686540726222049  0.05730834661540741  1.0000
  H   H10       1.0  0.28072395349313684  0.6743931913889725  0.05768425703883657  1.0000
  H   H11       1.0  0.7809911693383778  0.7313450008573954  0.9426897882430081  1.0000
  H   H12       1.0  0.7192783502722188  0.32560371346536954  0.9423182783761702  1.0000
  H   H13       1.0  0.24938211278449518  0.6503994928515979  0.7003278032166449  1.0000
  H   H14       1.0  0.7506198058630744  0.3496007281088038  0.2996725452409876  1.0000
  H   H15       1.0  0.909734030808181  0.06992259856652086  0.591470191866854  1.0000
  H   H16       1.0  0.5900332228362399  0.33807098554198234  0.5916508514574444  1.0000
  H   H17       1.0  0.09026356205716711  0.9300804437046678  0.4085285516068921  1.0000
  H   H18       1.0  0.4099660037953821  0.6619339475784828  0.40834933301386667  1.0000
  H   H19       1.0  0.90242053752646  0.2661937979212894  0.5118396060855303  1.0000
  H   H20       1.0  0.5969556031474069  0.22164515590220893  0.511818238976609  1.0000
  H   H21       1.0  0.09758034308533318  0.733810297771754  0.4881602569100565  1.0000
  H   H22       1.0  0.4030422708235332  0.7783616368150208  0.48818011434917  1.0000
  H   H23       1.0  0.9039019359762078  0.06786428111124836  0.9080510801670412  1.0000
  H   H24       1.0  0.596261682633049  0.023762942833478393  0.9080421774488626  1.0000
  H   H25       1.0  0.09609639360541414  0.9321338642579775  0.0919503013899998  1.0000
  H   H26       1.0  0.40373460785060183  0.9762393560692358  0.0919573386265283  1.0000
  H   H27       1.0  0.9085037519555567  0.9517034526720568  0.8282269801531469  1.0000
  H   H28       1.0  0.5914709279222661  0.21970196351197324  0.8282830028644809  1.0000
  H   H29       1.0  0.09149317468641269  0.04829915525916559  0.1717699665111851  1.0000
  H   H30       1.0  0.40852965482427817  0.7802992493901115  0.17171638236334996  1.0000
  C   C1        1.0  0.2910604747549214  0.1690146076356741  0.4251147649352943  1.0000
  C   C2        1.0  0.20911369828380783  0.40522701238678144  0.4255322295428313  1.0000
  C   C3        1.0  0.7089398436456876  0.8309819871652948  0.5748858783562198  1.0000
  C   C4        1.0  0.7908875876596893  0.5947710389234898  0.5744680579368477  1.0000
  C   C5        1.0  0.2940371823547706  0.23218401540561479  0.2911085000686384  1.0000
  C   C6        1.0  0.2062207213051933  0.47646141385646973  0.291563856153104  1.0000
  C   C7        1.0  0.7059588270232875  0.7678145330510661  0.7088914061547128  1.0000
  C   C8        1.0  0.7937789441774395  0.5235357395710735  0.7084384886337459  1.0000
  C   C9        1.0  0.24997721950659707  0.39001248772744657  0.2201982379907861  1.0000
  C   C10       1.0  0.7500214449138335  0.6099849445009512  0.7798027267764525  1.0000
  C   C11       1.0  0.24964559441530537  0.461471018915283  0.07771141341754637  1.0000
  C   C12       1.0  0.7503553734490254  0.5385268778807342  0.9222901587676587  1.0000
  C   C13       1.0  0.2346731556128248  0.3827465891957614  0.008160786604300151  1.0000
  C   C14       1.0  0.2648301735940634  0.6096214771062662  0.008371759896164163  1.0000
  C   C15       1.0  0.7653297675511861  0.6172514923421563  0.9918383114839243  1.0000
  C   C16       1.0  0.7351707942702743  0.3903764196897513  0.9916298122890408  1.0000
  C   C17       1.0  0.23623808592182619  0.4493433269343754  0.8730217180278217  1.0000
  C   C18       1.0  0.26315179292058827  0.6782761118284457  0.8732572994030718  1.0000
  C   C19       1.0  0.763763832725736  0.5506568940260267  0.1269786304298108  1.0000
  C   C20       1.0  0.7368471693650915  0.32172420319091083  0.1267441431319298  1.0000
  C   C21       1.0  0.24950718228970442  0.5976841602465799  0.8055507883634049  1.0000
  C   C22       1.0  0.7504934172165035  0.4023161850004228  0.1944494647801491  1.0000
  C   C23       1.0  0.2268014273101925  0.3604647085175616  0.8014376728846456  1.0000
  C   C24       1.0  0.27270860915533046  0.8386301387319292  0.8017549105657764  1.0000
  C   C25       1.0  0.7732037154994341  0.6395381758633718  0.1985576930429147  1.0000
  C   C26       1.0  0.7272907047288297  0.161368595491524  0.19824698309515298  1.0000
  C   C27       1.0  0.8524992959703678  0.18022741327109792  0.5950846620645647  1.0000
  C   C28       1.0  0.6471698305064918  0.22422715923517694  0.5950964602800752  1.0000
  C   C29       1.0  0.1474989463587093  0.8197769309951466  0.40491501030286503  1.0000
  C   C30       1.0  0.3528300825624198  0.7757754799485568  0.404903758527361  1.0000
  C   C31       1.0  0.8528238953411245  0.06568478637875329  0.8248225947454344  1.0000
  C   C32       1.0  0.6471609855067795  0.1091528269659251  0.8248212795492548  1.0000
  C   C33       1.0  0.14717272998134218  0.9343167993831331  0.1751765045401541  1.0000
  C   C34       1.0  0.35283694219738465  0.8908495021644428  0.17517704713468876  1.0000
  N   N1        1.0  0.25021604737403175  0.2536456325714269  0.4920731541928801  1.0000
  N   N2        1.0  0.7497849574638733  0.7463486682928107  0.507927523434759  1.0000
  O   O1        1.0  0.19343474936160715  0.23138556220475714  0.8679078398707316  1.0000
  O   O2        1.0  0.3061825738646248  0.9011899559859414  0.868296514699402  1.0000
  O   O3        1.0  0.8065690777608976  0.7686155858411466  0.13208480035372366  1.0000
  O   O4        1.0  0.6938227197819272  0.09880511949928213  0.1317066624696892  1.0000
  O   O5        1.0  0.25705606914821993  0.4125040522531764  0.6807874855214706  1.0000
  O   O6        1.0  0.2425469640379344  0.9072738869361814  0.6810908537739947  1.0000
  O   O7        1.0  0.7429506536944569  0.5875051865638952  0.3192093480455043  1.0000
  O   O8        1.0  0.7574523498462324  0.0927248472872648  0.3189110398869346  1.0000
  O   O9        1.0  0.9189901435076772  0.17339623120555822  0.7098587757605941  1.0000
  O   O10       1.0  0.5807824212448195  0.11635684645093386  0.7098523984725347  1.0000
  O   O11       1.0  0.0810061267620694  0.8266087959738613  0.29014250278809334  1.0000
  O   O12       1.0  0.4192144684235829  0.883649357412068  0.29014544274936344  1.0000
