data_image0
_chemical_formula_structural       Mn2H40C52N4Cl4O12
_chemical_formula_sum              "Mn2 H40 C52 N4 Cl4 O12"
_cell_length_a       9.63103110927165
_cell_length_b       11.637896724160044
_cell_length_c       12.679218579958366
_cell_angle_alpha    117.33758448965521
_cell_angle_beta     98.08663422637804
_cell_angle_gamma    90.00116461282295

_space_group_name_H-M_alt    "P 1"
_space_group_IT_number       1

loop_
  _space_group_symop_operation_xyz
  'x, y, z'

loop_
  _atom_site_type_symbol
  _atom_site_label
  _atom_site_symmetry_multiplicity
  _atom_site_fract_x
  _atom_site_fract_y
  _atom_site_fract_z
  _atom_site_occupancy
  Mn  Mn1       1.0  0.24991270248970213  0.9712852748352108  0.9999405903122212  1.0000
  Mn  Mn2       1.0  0.7500893026279841  0.0287073251760219  3.6724479343805035e-05  1.0000
  H   H1        1.0  0.35747833812447294  0.5211440040942322  0.24777011591115186  1.0000
  H   H2        1.0  0.14220184098154223  0.27392294097342074  0.752493883828173  1.0000
  H   H3        1.0  0.6425313353061739  0.4788506734887435  0.7522277770318343  1.0000
  H   H4        1.0  0.8578032875972854  0.726081397638076  0.2475044306713842  1.0000
  H   H5        1.0  0.3840921113393422  0.3183532785112036  0.2613548356412566  1.0000
  H   H6        1.0  0.11584692521982733  0.057549626768263806  0.7389927564789363  1.0000
  H   H7        1.0  0.615915368651052  0.6816404075618295  0.7386400534233675  1.0000
  H   H8        1.0  0.8841562007317236  0.9424556877380965  0.2610081283740727  1.0000
  H   H9        1.0  0.7842656115972204  0.4743810709703454  0.490841968732859  1.0000
  H   H10       1.0  0.7158375697516348  0.9833979249868748  0.5092353547050624  1.0000
  H   H11       1.0  0.21573996863804717  0.525614579302193  0.5091590692039534  1.0000
  H   H12       1.0  0.2841615733423453  0.016609355115953402  0.4907730450633495  1.0000
  H   H13       1.0  0.7577994550582974  0.6805356968726886  0.4739502233319685  1.0000
  H   H14       1.0  0.7420217900425641  0.20647021101056143  0.5260460890224793  1.0000
  H   H15       1.0  0.24220196643772607  0.3194599607960313  0.526054338094113  1.0000
  H   H16       1.0  0.2579771041602256  0.7935341409963428  0.47395790641238744  1.0000
  H   H17       1.0  0.4040100646098069  0.185299916149873  0.3281170792016753  1.0000
  H   H18       1.0  0.09627809642912415  0.85763263588904  0.6722348646267735  1.0000
  H   H19       1.0  0.5959837736745116  0.8147073076160822  0.6718844474379326  1.0000
  H   H20       1.0  0.903720878248841  0.14237269061575122  0.32777033511833065  1.0000
  H   H21       1.0  0.5382826053625607  0.0984664384231806  0.3623037574722972  1.0000
  H   H22       1.0  0.9621783150880105  0.7363650484637959  0.6377826985132418  1.0000
  H   H23       1.0  0.4617082529551126  0.9015282103121933  0.6376993072341081  1.0000
  H   H24       1.0  0.03781947037264642  0.26363926282130734  0.36221485731772435  1.0000
  H   H25       1.0  0.2219614836939883  0.8569680044283529  0.17805383803774796  1.0000
  H   H26       1.0  0.2782261608755263  0.678639008257605  0.8216536500056366  1.0000
  H   H27       1.0  0.77804350633145  0.14303439899411793  0.8219444420498336  1.0000
  H   H28       1.0  0.7217698604043434  0.32135560937184243  0.1783412511757305  1.0000
  H   H29       1.0  0.21422372041992332  0.6458476012760955  0.18469606365746938  1.0000
  H   H30       1.0  0.2858274493833549  0.4608665134552156  0.8149792150633177  1.0000
  H   H31       1.0  0.7857805574206653  0.35415870543868533  0.8153085080955054  1.0000
  H   H32       1.0  0.714174022725217  0.539130100302387  0.1850233850616618  1.0000
  H   H33       1.0  0.05640665144890991  0.42705028665960754  0.07448519457329893  1.0000
  H   H34       1.0  0.443597748373783  0.35235620330536227  0.925566600644885  1.0000
  H   H35       1.0  0.9435876011635642  0.5729482257561146  0.925515098489399  1.0000
  H   H36       1.0  0.55639862466942  0.6476423307246648  0.07443628338877072  1.0000
  H   H37       1.0  0.0594793990130142  0.20764243309643857  0.06378899905527652  1.0000
  H   H38       1.0  0.4405346192946169  0.14386552137816017  0.9366532728249697  1.0000
  H   H39       1.0  0.9405168487610779  0.7923550988221779  0.9362079322511295  1.0000
  H   H40       1.0  0.5594638368510446  0.8561330112548975  0.06334824516547154  1.0000
  C   C1        1.0  0.5557665525857232  0.6125280496345129  0.36046525860660256  1.0000
  C   C2        1.0  0.9440237433511386  0.2522286971713471  0.6395789753224934  1.0000
  C   C3        1.0  0.44423716357565723  0.387470511721908  0.6395383840956442  1.0000
  C   C4        1.0  0.0559794273943623  0.7477766449485302  0.36042665794752093  1.0000
  C   C5        1.0  0.45143890399941006  0.5112775480736644  0.30065855692123483  1.0000
  C   C6        1.0  0.048361126432453716  0.21099866643041315  0.6995206347828858  1.0000
  C   C7        1.0  0.5485677401840549  0.48871811530715104  0.6993441722024799  1.0000
  C   C8        1.0  0.9516380075488231  0.7890095329432755  0.3004794724617599  1.0000
  C   C9        1.0  0.4667998957451118  0.3963487908197793  0.30898229197611476  1.0000
  C   C10       1.0  0.03316119018371921  0.08773878199929193  0.6912489787052253  1.0000
  C   C11       1.0  0.5332026104490311  0.6036478176370894  0.691018833724421  1.0000
  C   C12       1.0  0.9668495128458902  0.9122694787248804  0.3087554863442536  1.0000
  C   C13       1.0  0.5864944528039472  0.3840234901837364  0.3789022551042721  1.0000
  C   C14       1.0  0.9136078147524245  0.0052774208611766  0.6211878570974179  1.0000
  C   C15       1.0  0.4135096046760652  0.6159653899268209  0.6210997411136606  1.0000
  C   C16       1.0  0.08639216414848512  0.9947278819338694  0.37881270261191013  1.0000
  C   C17       1.0  0.6915318333059446  0.4863549356062363  0.4377424039445828  1.0000
  C   C18       1.0  0.8085147320577166  0.04860522445379441  0.5623209109084402  1.0000
  C   C19       1.0  0.30847606399165534  0.5136436321607647  0.562260089476901  1.0000
  C   C20       1.0  0.1914812565199568  0.9514020393354701  0.4376863723134649  1.0000
  C   C21       1.0  0.676717823848712  0.6006879090627351  0.42879934674999043  1.0000
  C   C22       1.0  0.8231546865301951  0.1718824409968533  0.571215605878159  1.0000
  C   C23       1.0  0.3232813311975348  0.3993057872004045  0.5712017978903178  1.0000
  C   C24       1.0  0.1768432822777868  0.8281238330907927  0.428786732781788  1.0000
  C   C25       1.0  0.5151347646380556  0.16493656160875503  0.3234255658183187  1.0000
  C   C26       1.0  0.985137513953731  0.8417676032317091  0.6767369186684535  1.0000
  C   C27       1.0  0.4848614997143912  0.8350600556412573  0.6765804494146935  1.0000
  C   C28       1.0  0.014863557110963703  0.15823865495373474  0.32326099671816894  1.0000
  C   C29       1.0  0.53859895964694  0.09435610767970813  0.1918805872587299  1.0000
  C   C30       1.0  0.9614359510589453  0.9026856252009808  0.8081933774277277  1.0000
  C   C31       1.0  0.4614004069622055  0.905640493668095  0.8081210047009579  1.0000
  C   C32       1.0  0.0385440965212069  0.09731960342242024  0.19180512303828587  1.0000
  C   C33       1.0  0.23356361273466325  0.7661160429740692  0.09934559331815526  1.0000
  C   C34       1.0  0.2665679039708522  0.6665510016371174  0.9003493197915663  1.0000
  C   C35       1.0  0.766439985623258  0.2338815208731972  0.900652888059682  1.0000
  C   C36       1.0  0.7334345142824574  0.33344462771960093  0.0996498101959063  1.0000
  C   C37       1.0  0.22998006641037702  0.648204326559821  0.10237121185380016  1.0000
  C   C38       1.0  0.2700605886706883  0.545587089026384  0.8973066547822841  1.0000
  C   C39       1.0  0.7700231400163633  0.35180196244442646  0.8976308773094461  1.0000
  C   C40       1.0  0.7299424435214165  0.45441631790446024  0.1026989440757547  1.0000
  C   C41       1.0  0.2499952369532964  0.5348333754555696  0.9998386430382812  1.0000
  C   C42       1.0  0.7500065554089518  0.46516806016671103  0.00016127320672157334  1.0000
  C   C43       1.0  0.2499783865204463  0.4081824068779555  0.9999546026274616  1.0000
  C   C44       1.0  0.7500200845565247  0.5918161349596077  4.849816864551784e-05  1.0000
  C   C45       1.0  0.14283448020932352  0.3668261519535251  0.04163186583960518  1.0000
  C   C46       1.0  0.35715876711322647  0.3251056944886274  0.9584651311839639  1.0000
  C   C47       1.0  0.8571640489458546  0.6331733505751772  0.9583700650582403  1.0000
  C   C48       1.0  0.6428396234885625  0.674891872851049  0.04153676530190614  1.0000
  C   C49       1.0  0.144887597939416  0.24537315812697358  0.0375899147408774  1.0000
  C   C50       1.0  0.35512305867160165  0.20783004484019332  0.9627588939170908  1.0000
  C   C51       1.0  0.855107711155597  0.7546253627947767  0.9624112781058829  1.0000
  C   C52       1.0  0.6448763660157583  0.7921675171987492  0.03724152814433547  1.0000
  N   N1        1.0  0.2500771805322515  0.7753446255944002  0.999852389719891  1.0000
  N   N2        1.0  0.749916888732898  0.22465192401877943  0.00014312051382602928  1.0000
  N   N3        1.0  0.24999975506328556  0.16693937435205444  0.00022477937253739664  1.0000
  N   N4        1.0  0.7500026349744362  0.8330553127225429  0.9997786861245291  1.0000
  Cl  Cl1       1.0  0.536317326384328  0.7549758748177381  0.347827320024365  1.0000
  Cl  Cl2       1.0  0.9633626488793399  0.4073171125044085  0.6521758414481982  1.0000
  Cl  Cl3       1.0  0.4636893327304464  0.24501979776758287  0.6521769919050159  1.0000
  Cl  Cl4       1.0  0.03664143068260732  0.592687222203324  0.3478223646701297  1.0000
  O   O1        1.0  0.6086172539426827  0.277519593103719  0.3964248538251456  1.0000
  O   O2        1.0  0.8916513985815655  0.8811760632479704  0.6035910638804155  1.0000
  O   O3        1.0  0.39137073397660777  0.7224680974757904  0.6035474046677723  1.0000
  O   O4        1.0  0.1083689762657869  0.11883699924779022  0.3964021958861182  1.0000
  O   O5        1.0  0.44036672787429865  0.0113350350998971  0.11960503371234671  1.0000
  O   O6        1.0  0.05935744699256422  0.8916327606387359  0.8804609280736391  1.0000
  O   O7        1.0  0.5596484637515218  0.9886199816280696  0.8803894595222137  1.0000
  O   O8        1.0  0.9406307468104986  0.10838316416309375  0.11954287304241268  1.0000
  O   O9        1.0  0.6547351708505715  0.11691662981719023  0.16691626844437485  1.0000
  O   O10       1.0  0.8454017363566848  0.950525512480759  0.8330923515924769  1.0000
  O   O11       1.0  0.3452299160504637  0.8831137076099794  0.8330833194861713  1.0000
  O   O12       1.0  0.1545862993355911  0.04947579875645401  0.1668934932512229  1.0000
