data_image0
_chemical_formula_structural       Ag6H48C66N12O6
_chemical_formula_sum              "Ag6 H48 C66 N12 O6"
_cell_length_a       8.37924457900266
_cell_length_b       18.666982137309667
_cell_length_c       18.680909788332674
_cell_angle_alpha    117.72749280151972
_cell_angle_beta     98.57676057443747
_cell_angle_gamma    98.64827111160335

_space_group_name_H-M_alt    "P 1"
_space_group_IT_number       1

loop_
  _space_group_symop_operation_xyz
  'x, y, z'

loop_
  _atom_site_type_symbol
  _atom_site_label
  _atom_site_symmetry_multiplicity
  _atom_site_fract_x
  _atom_site_fract_y
  _atom_site_fract_z
  _atom_site_occupancy
  Ag  Ag1       1.0  0.6438892513402905  0.4617766947095276  0.9506848168906072  1.0000
  Ag  Ag2       1.0  0.6947632351630803  0.04906430061627989  0.5117197818144205  1.0000
  Ag  Ag3       1.0  0.18259799917962022  0.48869852775249706  0.537458767743608  1.0000
  Ag  Ag4       1.0  0.35611270439792964  0.5382296989190607  0.049315847064192966  1.0000
  Ag  Ag5       1.0  0.30521584588534956  0.9509076797960813  0.48827832777870106  1.0000
  Ag  Ag6       1.0  0.8173870855511182  0.5113035018538454  0.4625307769032004  1.0000
  H   H1        1.0  0.8059188618776715  0.5106401762210455  0.12084144847570136  1.0000
  H   H2        1.0  0.20658445341491918  0.7320736503049188  0.22593593947557608  1.0000
  H   H3        1.0  0.1516916617097619  0.7220644140312299  0.084279804756953  1.0000
  H   H4        1.0  0.9185539101225048  0.6070523590989865  0.9684463386496415  1.0000
  H   H5        1.0  0.9375321355522955  0.6224715747816345  0.3948960237633868  1.0000
  H   H6        1.0  0.048961500378787416  0.4671967474251062  0.16179150330949443  1.0000
  H   H7        1.0  0.9844984468719176  0.34672884709763707  0.18747146185903318  1.0000
  H   H8        1.0  0.8958815014326403  0.3700350337743217  0.3171434261381874  1.0000
  H   H9        1.0  0.686885078498875  0.8791474089542817  0.3902619017957034  1.0000
  H   H10       1.0  0.9800317377421803  0.7727382897638506  0.5058509775226694  1.0000
  H   H11       1.0  0.06712509826374449  0.9141991065542568  0.6376233870612606  1.0000
  H   H12       1.0  0.9513903359579173  0.0306747351916243  0.6388369241941019  1.0000
  H   H13       1.0  0.542588853086606  0.6050730603243722  0.2275571180780885  1.0000
  H   H14       1.0  0.8897265723566646  0.8380190008392175  0.3058655801153732  1.0000
  H   H15       1.0  0.8012844859822863  0.8127295202685118  0.16000808958452944  1.0000
  H   H16       1.0  0.5830841206065713  0.6831472091268083  0.053433670342400284  1.0000
  H   H17       1.0  0.2957379901263548  0.6099521686421454  0.48836709546312557  1.0000
  H   H18       1.0  0.4723673877994158  0.4936321104786785  0.26641161118280365  1.0000
  H   H19       1.0  0.4283252574136893  0.36212940712421454  0.2768927712062278  1.0000
  H   H20       1.0  0.3122993260147382  0.36134329300600143  0.3924713855313157  1.0000
  H   H21       1.0  0.3143897852100891  0.7725957237452119  0.3768029557400182  1.0000
  H   H22       1.0  0.5825339637271795  0.6940988844340977  0.5313120498170675  1.0000
  H   H23       1.0  0.6383570412131262  0.8398366343934213  0.6518544175970857  1.0000
  H   H24       1.0  0.5261566389999429  0.9464357536476412  0.6289624639251625  1.0000
  H   H25       1.0  0.19410123843474728  0.48933996644169037  0.879144287702459  1.0000
  H   H26       1.0  0.7933968072673566  0.2679270996276912  0.7740698997097367  1.0000
  H   H27       1.0  0.84831340254636  0.27793821771572164  0.9157257125376572  1.0000
  H   H28       1.0  0.0814599274641239  0.39294653653599454  0.03154940503720379  1.0000
  H   H29       1.0  0.06249618788118735  0.3775391944094437  0.6051099284326609  1.0000
  H   H30       1.0  0.9510079483345989  0.5327927579679892  0.8382024462541505  1.0000
  H   H31       1.0  0.015491459045797655  0.6532675288236263  0.8125317915960436  1.0000
  H   H32       1.0  0.10414819022369669  0.6299707166612836  0.682870430038804  1.0000
  H   H33       1.0  0.31309382022443794  0.12084897616207259  0.6097347861457577  1.0000
  H   H34       1.0  0.019967619409776195  0.22726811636840694  0.4941420367342032  1.0000
  H   H35       1.0  0.9328524667015755  0.0857997910657531  0.36236743646524155  1.0000
  H   H36       1.0  0.04859181771688254  0.9693210285734108  0.36115753257649164  1.0000
  H   H37       1.0  0.457418471671552  0.3949320859907813  0.7724416874845728  1.0000
  H   H38       1.0  0.1102582268567645  0.16198676275635654  0.6941358683541734  1.0000
  H   H39       1.0  0.19870240089790767  0.18727561917538788  0.8399926601973178  1.0000
  H   H40       1.0  0.4169057530584438  0.3168591845599735  0.9465657107144309  1.0000
  H   H41       1.0  0.7043053400742992  0.3900592123081523  0.5116486374494826  1.0000
  H   H42       1.0  0.5276102856981594  0.5063617719220304  0.7335848986753105  1.0000
  H   H43       1.0  0.5716736494488613  0.6378750898360079  0.7231191280171883  1.0000
  H   H44       1.0  0.6877080869995066  0.6386637044624235  0.607542747273939  1.0000
  H   H45       1.0  0.6855776975696131  0.2273893896750394  0.6231979145761597  1.0000
  H   H46       1.0  0.41752368679684077  0.3059131553468363  0.4686856056850316  1.0000
  H   H47       1.0  0.3616567641208021  0.16017227900708514  0.34813745369151405  1.0000
  H   H48       1.0  0.47380398871724344  0.05355999501446721  0.37103868394704875  1.0000
  C   C1        1.0  0.8875216421905063  0.5576586942499586  0.11472831852960728  1.0000
  C   C2        1.0  0.01239285709583252  0.6203538545465931  0.18388879752846762  1.0000
  C   C3        1.0  0.10935557543256628  0.6820595742651391  0.17300763540626451  1.0000
  C   C4        1.0  0.07766124437770823  0.6764414401034742  0.09510177834570745  1.0000
  C   C5        1.0  0.9487686872381857  0.6126471932455643  0.02979896128780261  1.0000
  C   C6        1.0  0.025082529871639243  0.6293765864591734  0.2671234454391324  1.0000
  C   C7        1.0  0.9487855376025962  0.562106255179593  0.3481703904187938  1.0000
  C   C8        1.0  0.9896961564384412  0.5543041169458361  0.27499468323628656  1.0000
  C   C9        1.0  0.004904474494388483  0.4748497864742447  0.21628157433733713  1.0000
  C   C10       1.0  0.9706709790081972  0.4081561460608469  0.23087863169132553  1.0000
  C   C11       1.0  0.9234141540497374  0.4203235703886108  0.3031636133562613  1.0000
  C   C12       1.0  0.7743706819729753  0.8849852349178775  0.4432341481332072  1.0000
  C   C13       1.0  0.8295574381976037  0.8155609756835815  0.43653384746077256  1.0000
  C   C14       1.0  0.9365788050138235  0.8259700025787707  0.5089844112423306  1.0000
  C   C15       1.0  0.9828594973957436  0.90374967223255  0.5813215665620532  1.0000
  C   C16       1.0  0.9200380044390427  0.9693792654468323  0.5830466609682642  1.0000
  C   C17       1.0  0.7587271780974305  0.7324473618376999  0.3623073887491797  1.0000
  C   C18       1.0  0.6017348653558585  0.6518472314794294  0.21414327668303904  1.0000
  C   C19       1.0  0.7162602109567827  0.7248264462325692  0.27954359146184504  1.0000
  C   C20       1.0  0.7911510732861299  0.7836089026886481  0.258988119356985  1.0000
  C   C21       1.0  0.7432725828785252  0.769208592230477  0.17783858967173663  1.0000
  C   C22       1.0  0.623606575871399  0.6970756071960121  0.11765017963848817  1.0000
  C   C23       1.0  0.32992600664152844  0.5568439056919272  0.4413197868532206  1.0000
  C   C24       1.0  0.3915800614343608  0.5633264357333088  0.37846024969197584  1.0000
  C   C25       1.0  0.42602297642021364  0.49073011798156324  0.3166532490136829  1.0000
  C   C26       1.0  0.4002919239482168  0.4185172964011771  0.3225351141798356  1.0000
  C   C27       1.0  0.3360849504608082  0.4170178835903967  0.3865865743698435  1.0000
  C   C28       1.0  0.39533117027864506  0.6376423303782984  0.369513393707045  1.0000
  C   C29       1.0  0.38635879303249243  0.7859151631356127  0.4369714975218599  1.0000
  C   C30       1.0  0.4353842933197426  0.7204444210378895  0.444577661565745  1.0000
  C   C31       1.0  0.5306053194718884  0.7409774712410097  0.5238250864321329  1.0000
  C   C32       1.0  0.5629578945537687  0.822066027499993  0.5905529324668634  1.0000
  C   C33       1.0  0.5031455929225571  0.8822693918805767  0.5786430781531705  1.0000
  C   C34       1.0  0.11249322332256632  0.4423301981877117  0.8852628005405591  1.0000
  C   C35       1.0  0.9875964007562884  0.37963941524269273  0.8161011825752024  1.0000
  C   C36       1.0  0.890625908676178  0.3179367992527631  0.82699616649991  1.0000
  C   C37       1.0  0.9223361285020528  0.3235580714249977  0.9048980532968327  1.0000
  C   C38       1.0  0.05124218190213258  0.38735295077747617  0.970198254490924  1.0000
  C   C39       1.0  0.9749132916746743  0.3706197980325782  0.7328753599994113  1.0000
  C   C40       1.0  0.051245864033745564  0.4379014008918674  0.6518267984409787  1.0000
  C   C41       1.0  0.0103064593038411  0.44568414036631765  0.725000733613811  1.0000
  C   C42       1.0  0.9950893283148686  0.5251422096655389  0.7837220089208826  1.0000
  C   C43       1.0  0.029332818207492884  0.5918364741724175  0.7691269331525772  1.0000
  C   C44       1.0  0.07657767404931794  0.579679057710962  0.6968426892567549  1.0000
  C   C45       1.0  0.22560667861773706  0.11500802225653928  0.5567620493374719  1.0000
  C   C46       1.0  0.17044409681485453  0.18443728844675888  0.563464051073147  1.0000
  C   C47       1.0  0.06343064701363939  0.1740345168690496  0.49101530283226674  1.0000
  C   C48       1.0  0.017132032221603272  0.09625548022323466  0.41867198182071513  1.0000
  C   C49       1.0  0.0799493843096215  0.0306246290604832  0.41695032435590207  1.0000
  C   C50       1.0  0.2412870039354046  0.26755466074930456  0.6376893064251801  1.0000
  C   C51       1.0  0.39826773746009536  0.34815790725516377  0.7858595158794228  1.0000
  C   C52       1.0  0.28374100822331627  0.2751762006490068  0.7204525942187274  1.0000
  C   C53       1.0  0.20883570284966166  0.2163937404608447  0.7410087769255113  1.0000
  C   C54       1.0  0.25671519798205367  0.2307959220718203  0.822161922439143  1.0000
  C   C55       1.0  0.3763911649307515  0.3029320374515905  0.8823502744920828  1.0000
  C   C56       1.0  0.6700939558495235  0.4431643530335379  0.5586898248263309  1.0000
  C   C57       1.0  0.6084364143410567  0.4366724446823439  0.6215447508924397  1.0000
  C   C58       1.0  0.5739565114397963  0.5092625123255135  0.6833438569689321  1.0000
  C   C59       1.0  0.599705418380047  0.5814840744275499  0.677475223106377  1.0000
  C   C60       1.0  0.6639362015668268  0.5829922336147958  0.6134341534030766  1.0000
  C   C61       1.0  0.6046816349572026  0.36235154542658427  0.6304906402610084  1.0000
  C   C62       1.0  0.613625806669475  0.21407058303331178  0.5630269810799362  1.0000
  C   C63       1.0  0.5646412564800443  0.27955571042328126  0.5554284868088855  1.0000
  C   C64       1.0  0.4694302838996761  0.2590289347166532  0.47617177651865444  1.0000
  C   C65       1.0  0.43705421522530224  0.1779441298471696  0.4094431642961495  1.0000
  C   C66       1.0  0.49683858340265624  0.1177301132848498  0.42135914600741126  1.0000
  N   N1        1.0  0.8530373854597925  0.5536607559457137  0.04007624120684016  1.0000
  N   N2        1.0  0.9135635337082134  0.4973775992542783  0.36147269168988316  1.0000
  N   N3        1.0  0.8144757640185671  0.9594903584436238  0.5139751647573046  1.0000
  N   N4        1.0  0.554114305442468  0.6387754047587251  0.13627316538529038  1.0000
  N   N5        1.0  0.2995542599103587  0.4862161807914376  0.4454978331314051  1.0000
  N   N6        1.0  0.4159633592393135  0.8637629556439351  0.5017219046873223  1.0000
  N   N7        1.0  0.1469730020882167  0.4463337666413381  0.9599150981185929  1.0000
  N   N8        1.0  0.08646623545197228  0.5026363042152866  0.6385300008444614  1.0000
  N   N9        1.0  0.1855145594248881  0.0405022744362142  0.4860215422071619  1.0000
  N   N10       1.0  0.44588865502054625  0.3612328600226676  0.8637311143979004  1.0000
  N   N11       1.0  0.7004512118706925  0.5137945813589794  0.5545099138508717  1.0000
  N   N12       1.0  0.5839986386383699  0.1362184052591857  0.4982774028880002  1.0000
  O   O1        1.0  0.06499118380645533  0.7018764816817793  0.3303727918356145  1.0000
  O   O2        1.0  0.7343196407903886  0.6689648507439967  0.37133494658817046  1.0000
  O   O3        1.0  0.3625523344094075  0.6287484763302301  0.2971402138543552  1.0000
  O   O4        1.0  0.9349988208791301  0.2981255419268364  0.6696208018095928  1.0000
  O   O5        1.0  0.26570029431113074  0.33103904876593754  0.6286624488812079  1.0000
  O   O6        1.0  0.6374491568507139  0.37125164800557536  0.7028676545900295  1.0000
