data_image0
_chemical_formula_structural       Zn8H42C78N6O32
_chemical_formula_sum              "Zn8 H42 C78 N6 O32"
_cell_length_a       17.778633262312205
_cell_length_b       18.343263080265476
_cell_length_c       18.266193574542594
_cell_angle_alpha    90.00008313443234
_cell_angle_beta     116.47489852723827
_cell_angle_gamma    121.32145608359487

_space_group_name_H-M_alt    "P 1"
_space_group_IT_number       1

loop_
  _space_group_symop_operation_xyz
  'x, y, z'

loop_
  _atom_site_type_symbol
  _atom_site_label
  _atom_site_symmetry_multiplicity
  _atom_site_fract_x
  _atom_site_fract_y
  _atom_site_fract_z
  _atom_site_occupancy
  Zn  Zn1       1.0  0.10367479830903663  0.9573325288404533  0.03191118509006688  1.0000
  Zn  Zn2       1.0  0.9280438365001874  0.9537174315623249  0.8670053140520294  1.0000
  Zn  Zn3       1.0  0.10104075225209642  0.12976760775720922  0.022667538651212685  1.0000
  Zn  Zn4       1.0  0.9217128219160389  0.9539590324790197  0.03884363509335016  1.0000
  Zn  Zn5       1.0  0.9288837846444977  0.5415940255392472  0.45348192666518355  1.0000
  Zn  Zn6       1.0  0.09057978832156276  0.53328391795052  0.6156307585227905  1.0000
  Zn  Zn7       1.0  0.11654458640356327  0.5504984452081203  0.45294669735496734  1.0000
  Zn  Zn8       1.0  0.927296999030702  0.3670511435925904  0.4459885086271029  1.0000
  H   H1        1.0  0.9719111425661783  0.9000909753699066  0.6612231218000558  1.0000
  H   H2        1.0  0.6826133947082486  0.8127615663026123  0.5878563533998004  1.0000
  H   H3        1.0  0.598826062454329  0.6572921257366533  0.6284896565348247  1.0000
  H   H4        1.0  0.7500107803347403  0.6296817243278524  0.7014847913301024  1.0000
  H   H5        1.0  0.8640769801970765  0.6634226177285644  0.5916987871453614  1.0000
  H   H6        1.0  0.1562561346216784  0.7299030138038918  0.7958590383135371  1.0000
  H   H7        1.0  0.1577265258608877  0.8274199059459235  0.8929851697595124  1.0000
  H   H8        1.0  0.40610900206885975  0.3205020461252064  0.2886871822421853  1.0000
  H   H9        1.0  0.33392108020950684  0.4600986752563331  0.13411313814570747  1.0000
  H   H10       1.0  0.3823870479237642  0.4491207602599446  0.015475786617472034  1.0000
  H   H11       1.0  0.4560443204892268  0.34601835566204636  0.05219742731421204  1.0000
  H   H12       1.0  0.6198082691107913  0.41684414300193856  0.2673724379859124  1.0000
  H   H13       1.0  0.6031550727957224  0.17775097443670523  0.30123368475273066  1.0000
  H   H14       1.0  0.4123565641995128  0.08605724847117101  0.19720949763182455  1.0000
  H   H15       1.0  0.7966304566180329  0.6781809680687587  0.21987974308898123  1.0000
  H   H16       1.0  0.777080354534725  0.8783519023446473  0.27184039780358654  1.0000
  H   H17       1.0  0.9503752721453935  0.033516366009351414  0.29649716922999403  1.0000
  H   H18       1.0  0.06726132507767375  0.9870155204115677  0.2832906212640012  1.0000
  H   H19       1.0  0.9616159807247018  0.7484290891574404  0.3515384792937368  1.0000
  H   H20       1.0  0.11357162131645995  0.686145641468947  0.26182396319092754  1.0000
  H   H21       1.0  0.10698153275662763  0.7838826737641043  0.16687094382041315  1.0000
  H   H22       1.0  0.19891864861502753  0.42054707910434536  0.8874665947868151  1.0000
  H   H23       1.0  0.15669321117827922  0.45513015048096145  0.07891568261570817  1.0000
  H   H24       1.0  0.9750522739295419  0.30308004321187815  0.04464384733185502  1.0000
  H   H25       1.0  0.8928130089756438  0.19620507334423823  0.8873844908782116  1.0000
  H   H26       1.0  0.027140366325149132  0.38728448505088414  0.7766188144913783  1.0000
  H   H27       1.0  0.9224063776660287  0.17199406888787655  0.5783253241365286  1.0000
  H   H28       1.0  0.922229193856495  0.0791187427214197  0.677993799574203  1.0000
  H   H29       1.0  0.4780778485632595  0.7892281242683054  0.8973777846741553  1.0000
  H   H30       1.0  0.5775983592954648  0.6973446713559356  0.09362907164177166  1.0000
  H   H31       1.0  0.6888695920497983  0.6504740919604546  0.06910714752364565  1.0000
  H   H32       1.0  0.676509170638255  0.679114382389301  0.9190129791087073  1.0000
  H   H33       1.0  0.39167540491519776  0.6375309834963973  0.7947045246985738  1.0000
  H   H34       1.0  0.4444750274144912  0.741738721395585  0.5988398379207994  1.0000
  H   H35       1.0  0.6351934966226552  0.8310217296246662  0.7038099675903168  1.0000
  H   H36       1.0  0.8632416111811168  0.09873673398654151  0.2773892061621197  1.0000
  H   H37       1.0  0.5935517952034747  0.9249436250598393  0.06124996759243838  1.0000
  H   H38       1.0  0.6209024710641418  0.9651362309139132  0.926895695653144  1.0000
  H   H39       1.0  0.818267944881491  0.1148002857707198  0.9984929010392491  1.0000
  H   H40       1.0  0.8619738883741593  0.2224919940192933  0.22978655522032915  1.0000
  H   H41       1.0  0.18706750764496158  0.4083014535853239  0.32805751106416636  1.0000
  H   H42       1.0  0.17461140817189866  0.3061835464906508  0.2276345192003929  1.0000
  C   C1        1.0  0.8981512959820678  0.8927781424368746  0.6393125413539946  1.0000
  C   C2        1.0  0.8200230519706723  0.8121235791492654  0.6435706754226372  1.0000
  C   C3        1.0  0.7188434072131573  0.779782209359965  0.6183981045972118  1.0000
  C   C4        1.0  0.6759376470345445  0.6996297467884888  0.6390967455320362  1.0000
  C   C5        1.0  0.751378390087652  0.6838438954171623  0.6767333899151851  1.0000
  C   C6        1.0  0.9294259732293426  0.7539887679500127  0.7115909466803101  1.0000
  C   C7        1.0  0.929062049284724  0.7000612400358079  0.6575132963157911  1.0000
  C   C8        1.0  0.011030402436049035  0.6920157099091783  0.6874783138381345  1.0000
  C   C9        1.0  0.09356816739199317  0.7376331711196968  0.7726547716107887  1.0000
  C   C10       1.0  0.0942496728725504  0.7917065601828456  0.8265480475543114  1.0000
  C   C11       1.0  0.013433201504313054  0.8015779545375638  0.7970180900815932  1.0000
  C   C12       1.0  0.020970528309973903  0.8634082652260417  0.857563660869445  1.0000
  C   C13       1.0  0.009752388104090185  0.633547844342111  0.6292436486358067  1.0000
  C   C14       1.0  0.37827220565380076  0.36049167375903585  0.2561497878576517  1.0000
  C   C15       1.0  0.38900445228362196  0.3767306954078363  0.1832629519877713  1.0000
  C   C16       1.0  0.36477270791105104  0.424191189650891  0.12812737749889175  1.0000
  C   C17       1.0  0.38936222501641277  0.4179256249680918  0.06629183309392768  1.0000
  C   C18       1.0  0.42807463278166596  0.36653800277210297  0.08395185117319671  1.0000
  C   C19       1.0  0.4688059917423006  0.29341785960046013  0.19384144919855117  1.0000
  C   C20       1.0  0.5748227295563739  0.344236289905787  0.25239091284699094  1.0000
  C   C21       1.0  0.6234863538325541  0.3031032746144221  0.29136287690794654  1.0000
  C   C22       1.0  0.5648849505366087  0.20960899235252137  0.2712564424612225  1.0000
  C   C23       1.0  0.4589748710070438  0.15877942454054053  0.2132759753178206  1.0000
  C   C24       1.0  0.40885232070222344  0.1991168047617862  0.17358987094474543  1.0000
  C   C25       1.0  0.2938787494849677  0.1397847167444368  0.1132294887574332  1.0000
  C   C26       1.0  0.7377476752323489  0.3596281018062299  0.35315764061227367  1.0000
  C   C27       1.0  0.7766199621922854  0.7213021613569311  0.2376170944189368  1.0000
  C   C28       1.0  0.8501839135389208  0.8165605468585613  0.2580896754795747  1.0000
  C   C29       1.0  0.8421920433537908  0.8864586731768328  0.2720204995586143  1.0000
  C   C30       1.0  0.9311476903437993  0.9664836816603283  0.2837176817639458  1.0000
  C   C31       1.0  0.9921110680540582  0.944823985498758  0.27645692136407257  1.0000
  C   C32       1.0  0.986066923150432  0.8083717727603104  0.25579050602068787  1.0000
  C   C33       1.0  0.9907721697773371  0.7542927025885648  0.3090305001782808  1.0000
  C   C34       1.0  0.03443064327024118  0.7090799698020334  0.3101008984428688  1.0000
  C   C35       1.0  0.0779616865789524  0.7203548671012218  0.25958995448880984  1.0000
  C   C36       1.0  0.07428141495156389  0.7746748173654722  0.20709296152912762  1.0000
  C   C37       1.0  0.02680194782682594  0.8178555403486172  0.20258975842448018  1.0000
  C   C38       1.0  0.019409608556607554  0.8686458131008266  0.13830854330515047  1.0000
  C   C39       1.0  0.033480921244361805  0.6492316863641038  0.36569325267879543  1.0000
  C   C40       1.0  0.2015856249273257  0.4475622598265901  0.9440796833297964  1.0000
  C   C41       1.0  0.1144236816207283  0.3881893218852214  0.9533717211422112  1.0000
  C   C42       1.0  0.10148668357224727  0.3971330224978615  0.022084874350518608  1.0000
  C   C43       1.0  0.0080172005934004  0.31812625002447  0.004369902158075013  1.0000
  C   C44       1.0  0.965081599997518  0.2617920426897413  0.9253203236893979  1.0000
  C   C45       1.0  0.006436859664184262  0.2690185983222335  0.8120459151782028  1.0000
  C   C46       1.0  0.006687238782149106  0.32060389269901884  0.7560733276472787  1.0000
  C   C47       1.0  0.9792860828600144  0.2867172888100883  0.6728775838256666  1.0000
  C   C48       1.0  0.9461939573249794  0.1987654071977758  0.6438785675711571  1.0000
  C   C49       1.0  0.9456138850301201  0.14691987688096483  0.6995348504682964  1.0000
  C   C50       1.0  0.9788908780902618  0.18240092402204774  0.7847090685500075  1.0000
  C   C51       1.0  0.9906294086670115  0.12838036078995432  0.8446557295596616  1.0000
  C   C52       1.0  0.9869143962504411  0.3462424362202726  0.6168583790234692  1.0000
  C   C53       1.0  0.4901851483686388  0.763495471373645  0.9541869622586955  1.0000
  C   C54       1.0  0.5491194672858627  0.726848017341979  0.9707025732431231  1.0000
  C   C55       1.0  0.5891738679019343  0.6988407722021395  0.039969438452310185  1.0000
  C   C56       1.0  0.6480632794988711  0.6758809126122286  0.02786657049156098  1.0000
  C   C57       1.0  0.6440561031830542  0.6905247609760536  0.9520373911828769  1.0000
  C   C58       1.0  0.5511531249853975  0.7322937352073566  0.8342832820073978  1.0000
  C   C59       1.0  0.44499648739963515  0.6817650542422912  0.7752318196688391  1.0000
  C   C60       1.0  0.4065148643914825  0.685740100947193  0.6911430724503089  1.0000
  C   C61       1.0  0.4750114149822695  0.7397362613936667  0.6647841374262666  1.0000
  C   C62       1.0  0.5806094081289147  0.7892143281697912  0.7231043699921995  1.0000
  C   C63       1.0  0.6205783043584321  0.7875518953342748  0.8086674262964378  1.0000
  C   C64       1.0  0.7358240177135332  0.8467537650729045  0.8672358359457631  1.0000
  C   C65       1.0  0.2922906560274186  0.6304501239203263  0.6303838682050296  1.0000
  C   C66       1.0  0.780630480346005  0.04647621507776021  0.2274877762945025  1.0000
  C   C67       1.0  0.7536714159977367  0.043293186937994214  0.1395167757252551  1.0000
  C   C68       1.0  0.6618089830007962  0.9802492871488441  0.06362836328293749  1.0000
  C   C69       1.0  0.676699579031272  0.0008518837383703995  0.9947566156328019  1.0000
  C   C70       1.0  0.777302576765429  0.07626537912316422  0.029324557124859024  1.0000
  C   C71       1.0  0.9232685010127497  0.18140173060402284  0.17420421953678286  1.0000
  C   C72       1.0  0.9307883705693953  0.23955385290576464  0.23047988813534914  1.0000
  C   C73       1.0  0.025609907780996467  0.31988775377217143  0.2874770829845588  1.0000
  C   C74       1.0  0.11331990808432124  0.34492577371699434  0.28502563457008984  1.0000
  C   C75       1.0  0.1059554898757115  0.28737175755782834  0.22842622591094397  1.0000
  C   C76       1.0  0.01218301712011546  0.20405269372160012  0.1743680133746963  1.0000
  C   C77       1.0  0.012828920986471811  0.1420104608940136  0.12168239257889715  1.0000
  C   C78       1.0  0.029536516169848454  0.37570126867623793  0.35040867704332607  1.0000
  N   N1        1.0  0.838463990071844  0.7518060818593993  0.6795954946492555  1.0000
  N   N2        1.0  0.42779785945100474  0.3416753877298221  0.1542832473236189  1.0000
  N   N3        1.0  0.9435826100026716  0.8542695715374508  0.26056252403953545  1.0000
  N   N4        1.0  0.029280201248710152  0.3038045377862204  0.8943473781409352  1.0000
  N   N5        1.0  0.584496525437146  0.7215234915412552  0.9172348938360241  1.0000
  N   N6        1.0  0.8241857570664451  0.10211792400006203  0.1168437264522666  1.0000
  O   O1        1.0  0.014041314957317919  0.9982975602490144  0.9926400965029597  1.0000
  O   O2        1.0  0.8874967408423375  0.9510805912391973  0.6142029326794967  1.0000
  O   O3        1.0  0.9827571700736898  0.9061203444211259  0.8250356382635501  1.0000
  O   O4        1.0  0.06758177050856097  0.8701518847874328  0.9370356139247061  1.0000
  O   O5        1.0  0.08133532713703337  0.621964985454355  0.6636786226866888  1.0000
  O   O6        1.0  0.9376749422983296  0.6000634197548749  0.5503923715106251  1.0000
  O   O7        1.0  0.34132937663002155  0.386674728655649  0.2834975235193297  1.0000
  O   O8        1.0  0.24716233239943367  0.17717451949335583  0.09105598302831201  1.0000
  O   O9        1.0  0.25184933167045637  0.055799042456804705  0.08993891212515585  1.0000
  O   O10       1.0  0.7796149058692167  0.31865469057096624  0.3815282182197777  1.0000
  O   O11       1.0  0.7836223636609035  0.44435922786639287  0.37202186148798677  1.0000
  O   O12       1.0  0.6959330723166205  0.686738989596364  0.23784065134213955  1.0000
  O   O13       1.0  0.9436570631187922  0.8747731260930822  0.1055111585225177  1.0000
  O   O14       1.0  0.08995970710523708  0.8996495132990175  0.12031146932113759  1.0000
  O   O15       1.0  0.08813404795923672  0.6203977755893745  0.3764371802666914  1.0000
  O   O16       1.0  0.9769310175799435  0.6319288976915163  0.39727379632513765  1.0000
  O   O17       1.0  0.2759492117418461  0.5226510189518834  0.9947978749444741  1.0000
  O   O18       1.0  0.07086512093559351  0.1699320537244233  0.9197777292642824  1.0000
  O   O19       1.0  0.9205854082859874  0.04410174564231541  0.8139563922954876  1.0000
  O   O20       1.0  0.9501417153277956  0.31138888149799027  0.5381425463555443  1.0000
  O   O21       1.0  0.031172303101001875  0.4284412708531562  0.6532369659096202  1.0000
  O   O22       1.0  0.4560641716433695  0.7691559510941347  0.9979864816101339  1.0000
  O   O23       1.0  0.7743283459726986  0.8834766020575273  0.945727925117687  1.0000
  O   O24       1.0  0.7859571716591919  0.8568750677976171  0.8308013987243328  1.0000
  O   O25       1.0  0.259260127238136  0.6301915126941894  0.5523136419239804  1.0000
  O   O26       1.0  0.2370103997219249  0.5876440985365223  0.6623074764269816  1.0000
  O   O27       1.0  0.71966180142055  0.9958100410822369  0.24876085753817279  1.0000
  O   O28       1.0  0.9566013758438529  0.05849089838800131  0.11217926072821166  1.0000
  O   O29       1.0  0.07286989403791473  0.1799014142986906  0.09309384489849747  1.0000
  O   O30       1.0  0.10680361720553593  0.457699904430129  0.38714199010851047  1.0000
  O   O31       1.0  0.9538473870645987  0.3351824032256303  0.362328290830142  1.0000
  O   O32       1.0  0.016176326913353096  0.49840047893162165  0.49012936729334894  1.0000
