data_image0
_chemical_formula_structural       Co4H16C4Se4N4O12
_chemical_formula_sum              "Co4 H16 C4 Se4 N4 O12"
_cell_length_a       6.703711737772132
_cell_length_b       7.878041909828961
_cell_length_c       9.432358626005561
_cell_angle_alpha    90.00007388946558
_cell_angle_beta     89.99987945636423
_cell_angle_gamma    112.47661215639071

_space_group_name_H-M_alt    "P 1"
_space_group_IT_number       1

loop_
  _space_group_symop_operation_xyz
  'x, y, z'

loop_
  _atom_site_type_symbol
  _atom_site_label
  _atom_site_symmetry_multiplicity
  _atom_site_fract_x
  _atom_site_fract_y
  _atom_site_fract_z
  _atom_site_occupancy
  Co  Co1       1.0  0.8287548177443612  0.8911334988711489  0.7722743551862763  1.0000
  Co  Co2       1.0  0.6712463021729604  0.6088678875820791  0.2722731882394882  1.0000
  Co  Co3       1.0  0.17124672684371228  0.1088679747089358  0.2277266408526728  1.0000
  Co  Co4       1.0  0.3287552424179268  0.3911335859972809  0.7277256874390261  1.0000
  H   H1        1.0  0.4043602474195822  0.8445447226755363  0.6084396974735284  1.0000
  H   H2        1.0  0.09563821355703087  0.6554549379373569  0.10843657309896321  1.0000
  H   H3        1.0  0.5956391765119661  0.1554553961253688  0.3915644791069255  1.0000
  H   H4        1.0  0.9043626935102933  0.34454516206680097  0.891561242399078  1.0000
  H   H5        1.0  0.5900302319859493  0.8500990254177553  0.4738804286976189  1.0000
  H   H6        1.0  0.9099678022960161  0.6498970047744593  0.9738769746152797  1.0000
  H   H7        1.0  0.40996791689563833  0.14989834623345644  0.5261237478823162  1.0000
  H   H8        1.0  0.09003203779872143  0.35009758213576  0.026120840880601303  1.0000
  H   H9        1.0  0.6715370113175252  0.1250879637674558  0.7008147342478138  1.0000
  H   H10       1.0  0.8284613454705222  0.3749166597216842  0.2008114978265993  1.0000
  H   H11       1.0  0.32846284206162574  0.8749162945525482  0.2991894423345371  1.0000
  H   H12       1.0  0.1715361791888199  0.6250890097597547  0.7991852574967453  1.0000
  H   H13       1.0  0.8515480581266529  0.1252094748553887  0.5824274557865863  1.0000
  H   H14       1.0  0.6484469960678751  0.3747840601810779  0.0824244880544782  1.0000
  H   H15       1.0  0.1484500907563488  0.8747878967954608  0.4175756606131316  1.0000
  H   H16       1.0  0.35154479086806845  0.6252092471264207  0.917571207086297  1.0000
  C   C1        1.0  0.5381277284538797  0.9368144537115342  0.5435608586660621  1.0000
  C   C2        1.0  0.9618703952342642  0.5631854401552232  0.043556028116384496  1.0000
  C   C3        1.0  0.4618716954776686  0.06318566508937101  0.45644331791439197  1.0000
  C   C4        1.0  0.038126062456711934  0.43681471623118995  0.9564375466641479  1.0000
  Se  Se1       1.0  0.8083643830407963  0.5679784772033115  0.5999949119123614  1.0000
  Se  Se2       1.0  0.691637194511074  0.9320227912911176  0.09999512168279522  1.0000
  Se  Se3       1.0  0.19163652402512105  0.43202162280120865  0.4000039637658972  1.0000
  Se  Se4       1.0  0.3083649876033902  0.067980055863444  0.9000048141761994  1.0000
  N   N1        1.0  0.71903241275416  0.03913717421000481  0.6386531060683396  1.0000
  N   N2        1.0  0.7809760615911966  0.46086313563873915  0.138657454116661  1.0000
  N   N3        1.0  0.2809737892974838  0.9608614770410213  0.3613447094249763  1.0000
  N   N4        1.0  0.2190373480056209  0.5391381875873265  0.861350963174857  1.0000
  O   O1        1.0  0.9916860968277347  0.7439370984553619  0.701323713945513  1.0000
  O   O2        1.0  0.5083143659572116  0.7560656317877061  0.201322948368805  1.0000
  O   O3        1.0  0.008314602159401819  0.2560657674937801  0.2986762219146044  1.0000
  O   O4        1.0  0.491686333029925  0.24393723416142882  0.7986769874913051  1.0000
  O   O5        1.0  0.8668556531310185  0.6715258112887382  0.4336293240661959  1.0000
  O   O6        1.0  0.6331444006409015  0.8284743120698363  0.9336307158512298  1.0000
  O   O7        1.0  0.13314525393348478  0.32847428871614426  0.566370611792273  1.0000
  O   O8        1.0  0.36685502329487457  0.1715258067299743  0.066370280188579  1.0000
  O   O9        1.0  0.5825399941167788  0.6049394140288697  0.656281128192127  1.0000
  O   O10       1.0  0.9174578301380477  0.8950605570191145  0.156282021218729  1.0000
  O   O11       1.0  0.41745794669448333  0.3950607235647894  0.3437177474883697  1.0000
  O   O12       1.0  0.08254095627274442  0.10493818820585692  0.8437189748208169  1.0000
