data_image0
_chemical_formula_structural       In6H48C72N24Cl18
_chemical_formula_sum              "In6 H48 C72 N24 Cl18"
_cell_length_a       19.261284960260966
_cell_length_b       19.26135384641291
_cell_length_c       19.26137698696362
_cell_angle_alpha    109.47180605894191
_cell_angle_beta     109.47084238053918
_cell_angle_gamma    109.47096442605273

_space_group_name_H-M_alt    "P 1"
_space_group_IT_number       1

loop_
  _space_group_symop_operation_xyz
  'x, y, z'

loop_
  _atom_site_type_symbol
  _atom_site_label
  _atom_site_symmetry_multiplicity
  _atom_site_fract_x
  _atom_site_fract_y
  _atom_site_fract_z
  _atom_site_occupancy
  In  In1       1.0  0.7875707626880769  0.49999954808640723  0.2875711461701585  1.0000
  In  In2       1.0  0.21242772104268684  0.5000001035890591  0.7124285160889701  1.0000
  In  In3       1.0  0.28757262099327374  0.7875725772882449  0.5000004790381782  1.0000
  In  In4       1.0  0.7124289424020489  0.21242888233738458  0.5000005256993632  1.0000
  In  In5       1.0  0.5000009573624169  0.2875717030328531  0.787571207678404  1.0000
  In  In6       1.0  0.5000004047886931  0.7124289194884311  0.2124292778800909  1.0000
  H   H1        1.0  0.6918468724721193  0.35864869826337314  0.08866921500234089  1.0000
  H   H2        1.0  0.6017987466285818  0.19982399488096556  0.9925241514124538  1.0000
  H   H3        1.0  0.6565893744965906  0.17830092403870185  0.21890476032159983  1.0000
  H   H4        1.0  0.7447317838459214  0.3372400052624729  0.3049502809221212  1.0000
  H   H5        1.0  0.7300176175522709  0.6413487531124604  0.3332020050908968  1.0000
  H   H6        1.0  0.7927003599699702  0.8001746712701137  0.40198092143828057  1.0000
  H   H7        1.0  0.04060631769907993  0.8216970802078905  0.47828991727811865  1.0000
  H   H8        1.0  0.9677104113180307  0.6627532325483545  0.4074914534559897  1.0000
  H   H9        1.0  0.3081477896711534  0.39682089897705464  0.6667984265147099  1.0000
  H   H10       1.0  0.39819620618744983  0.3907244584017918  0.5980217887801232  1.0000
  H   H11       1.0  0.3434031602166173  0.5623160022137484  0.5217063369108603  1.0000
  H   H12       1.0  0.2552571577432943  0.5602168139596345  0.5925037775692702  1.0000
  H   H13       1.0  0.2699831032316951  0.6031774609184238  0.9113331969266698  1.0000
  H   H14       1.0  0.2073007053777047  0.6092752295248758  0.007475918937302718  1.0000
  H   H15       1.0  0.9593974393344736  0.43768652871628433  0.7810930813972449  1.0000
  H   H16       1.0  0.03229291049738238  0.4397845475166662  0.6950507604919522  1.0000
  H   H17       1.0  0.08867594612664248  0.6918573772549055  0.35865305773565864  1.0000
  H   H18       1.0  0.9925321425027889  0.6018097649870314  0.19983096412801182  1.0000
  H   H19       1.0  0.21891290177240577  0.6565950568440401  0.17830073761185639  1.0000
  H   H20       1.0  0.3049600416020796  0.744740675524625  0.33724584830520166  1.0000
  H   H21       1.0  0.33319960392756803  0.7300191323471452  0.64134862590565  1.0000
  H   H22       1.0  0.4019783597247156  0.7926983036239506  0.8001714950759081  1.0000
  H   H23       1.0  0.47828925608065026  0.040604630096652355  0.8216976973246659  1.0000
  H   H24       1.0  0.4074903370041627  0.9677098832578752  0.6627559165820716  1.0000
  H   H25       1.0  0.6668009931309342  0.3081489428437011  0.3968210191818359  1.0000
  H   H26       1.0  0.5980212119216617  0.3981943936425126  0.3907191809920647  1.0000
  H   H27       1.0  0.5217084279765984  0.3434104981660653  0.5623139191414311  1.0000
  H   H28       1.0  0.5925065196211962  0.2552682098109857  0.56022054223034  1.0000
  H   H29       1.0  0.9113295996421585  0.26998239043504696  0.6031838271775317  1.0000
  H   H30       1.0  0.007474072132183181  0.20729993719083956  0.6092797871110991  1.0000
  H   H31       1.0  0.781091762380498  0.9593944989494005  0.43768243917704575  1.0000
  H   H32       1.0  0.6950443380582741  0.03228989045146601  0.439780525705018  1.0000
  H   H33       1.0  0.3586533439402401  0.08866859217552302  0.6918482988094327  1.0000
  H   H34       1.0  0.19982488577863217  0.9925216793634917  0.6017963594520668  1.0000
  H   H35       1.0  0.17830238559224662  0.21890623340745216  0.6565899633929676  1.0000
  H   H36       1.0  0.3372422613063222  0.30495219480154395  0.744734712043261  1.0000
  H   H37       1.0  0.6413533758853235  0.3332001362070827  0.7300213065195251  1.0000
  H   H38       1.0  0.8001780696405661  0.40197850095115245  0.7927045342740088  1.0000
  H   H39       1.0  0.821697424845695  0.47828926932604793  0.04060483244206409  1.0000
  H   H40       1.0  0.6627597034033175  0.40749218238710966  0.9677107615610513  1.0000
  H   H41       1.0  0.39681979667409467  0.6668044646892641  0.3081542459702009  1.0000
  H   H42       1.0  0.3907246430392277  0.5980264489872057  0.398200622146888  1.0000
  H   H43       1.0  0.5623152473807949  0.5217145349145298  0.3434073650641738  1.0000
  H   H44       1.0  0.5602167426361079  0.5925114314216985  0.25526817965036513  1.0000
  H   H45       1.0  0.6031825513107022  0.911328672760817  0.2699795006254251  1.0000
  H   H46       1.0  0.6092778843332312  0.007472287351184493  0.20729746760545714  1.0000
  H   H47       1.0  0.43768320899303603  0.7810867498734596  0.9593921500223817  1.0000
  H   H48       1.0  0.4397824462405922  0.6950413222975841  0.03228833008673622  1.0000
  C   C1        1.0  0.5722296500282127  0.08307415563670167  0.04625819817501056  1.0000
  C   C2        1.0  0.6815842775307388  0.315703225098929  0.1140716223609318  1.0000
  C   C3        1.0  0.632189255044004  0.22796134859253678  0.06138341813501583  1.0000
  C   C4        1.0  0.6225808654193159  0.17693792724044505  0.0988819143192856  1.0000
  C   C5        1.0  0.6627611801718133  0.2159957778723368  0.18768127909054053  1.0000
  C   C6        1.0  0.7110835497360526  0.3040174424711353  0.23560516013809968  1.0000
  C   C7        1.0  0.963180747898562  0.9169245767665474  0.4891574908297829  1.0000
  C   C8        1.0  0.7983673729739708  0.6842960327414715  0.3658839845429967  1.0000
  C   C9        1.0  0.8334165081563822  0.7720330955512367  0.4042288235828267  1.0000
  C   C10       1.0  0.9219460893836455  0.8230598372195959  0.44564887800282826  1.0000
  C   C11       1.0  0.9716779643350649  0.7839921983919994  0.4467620130130926  1.0000
  C   C12       1.0  0.9315863584236012  0.695989230233863  0.40707027712970506  1.0000
  C   C13       1.0  0.42776527048518903  0.47402664783151494  0.510842151041068  1.0000
  C   C14       1.0  0.31841066052200523  0.43248349132416314  0.6341142098084376  1.0000
  C   C15       1.0  0.3678042189148059  0.4291914390391653  0.5957709474299621  1.0000
  C   C16       1.0  0.3774120710491927  0.4763005957990174  0.5543513462253388  1.0000
  C   C17       1.0  0.3372282104841491  0.524916859252521  0.5532368982521519  1.0000
  C   C18       1.0  0.28891833110834847  0.524518579229202  0.5929282735048533  1.0000
  C   C19       1.0  0.03681984826459223  0.5259731082168883  0.9537453076347618  1.0000
  C   C20       1.0  0.20163485056526997  0.5675116614177752  0.885923303784537  1.0000
  C   C21       1.0  0.16657991657746166  0.5708082590285033  0.9386221350803938  1.0000
  C   C22       1.0  0.07805678333334512  0.5236966055075528  0.9011133366812134  1.0000
  C   C23       1.0  0.028313577934291168  0.47508097680970696  0.8123252966895294  1.0000
  C   C24       1.0  0.0684147730559276  0.47547437348607974  0.7643861318521135  1.0000
  C   C25       1.0  0.04625971861370466  0.5722349730164425  0.0830789679712469  1.0000
  C   C26       1.0  0.11407675336963764  0.6815926026295074  0.3157076937352203  1.0000
  C   C27       1.0  0.06138592861123742  0.6321976427767952  0.2279692094026162  1.0000
  C   C28       1.0  0.0988930731376101  0.6225911454275348  0.1769412041724295  1.0000
  C   C29       1.0  0.1876876077150628  0.6627718532434062  0.21601011469083906  1.0000
  C   C30       1.0  0.23560123683172673  0.711082691463581  0.3040090595146483  1.0000
  C   C31       1.0  0.48915635190218837  0.9631779373687264  0.9169228634941646  1.0000
  C   C32       1.0  0.3658799808834559  0.7983649353576399  0.6842892997651905  1.0000
  C   C33       1.0  0.4042301827451241  0.8334193108327952  0.7720364091226418  1.0000
  C   C34       1.0  0.44564646814213665  0.9219433036481988  0.8230558595825033  1.0000
  C   C35       1.0  0.44676540197100684  0.9716815458814312  0.784001039475733  1.0000
  C   C36       1.0  0.40706577329176974  0.9315859576399464  0.6959798726652623  1.0000
  C   C37       1.0  0.5108394200460682  0.4277669527192672  0.47402417320770257  1.0000
  C   C38       1.0  0.634119203684179  0.3184120032841591  0.432487888417697  1.0000
  C   C39       1.0  0.5957699927187007  0.367808010104092  0.4291905083524342  1.0000
  C   C40       1.0  0.5543534301896075  0.3774130541791792  0.4762966508863402  1.0000
  C   C41       1.0  0.5532322309808748  0.33723844581847134  0.5249180643312172  1.0000
  C   C42       1.0  0.5929326078352092  0.28891570797198796  0.5245201178133243  1.0000
  C   C43       1.0  0.9537403224905319  0.03681637826557004  0.5259728636357722  1.0000
  C   C44       1.0  0.8859274714108808  0.20163175295331856  0.5675153549771538  1.0000
  C   C45       1.0  0.9386134801814662  0.16658204332763643  0.5708100099282588  1.0000
  C   C46       1.0  0.9011144629741848  0.0780552725896584  0.523701015602285  1.0000
  C   C47       1.0  0.8123142484578523  0.028318246284001754  0.47508171685893785  1.0000
  C   C48       1.0  0.764396384116779  0.06841207325481248  0.4754800952940102  1.0000
  C   C49       1.0  0.08307350675476496  0.046258893959787814  0.5722297523006077  1.0000
  C   C50       1.0  0.3156976570982338  0.11407016424248449  0.6815824619465758  1.0000
  C   C51       1.0  0.2279710205142181  0.06139381231759711  0.6321982232625062  1.0000
  C   C52       1.0  0.1769406836758947  0.09887998184673559  0.6225811530829618  1.0000
  C   C53       1.0  0.21599822842068772  0.18768525078424872  0.6627616482214975  1.0000
  C   C54       1.0  0.3040159566976045  0.2356046152637533  0.7110825272396184  1.0000
  C   C55       1.0  0.9169258754402917  0.4891578089138521  0.9631863295211858  1.0000
  C   C56       1.0  0.6842910344334642  0.36587919396296104  0.7983676074380811  1.0000
  C   C57       1.0  0.7720425229692792  0.40423154904244296  0.8334236854668547  1.0000
  C   C58       1.0  0.8230587739743171  0.4456436038060191  0.9219463378361896  1.0000
  C   C59       1.0  0.784011803104619  0.44676798009547297  0.9716885855344375  1.0000
  C   C60       1.0  0.6959744263419766  0.40706210080491473  0.931588623485702  1.0000
  C   C61       1.0  0.4740243266176662  0.5108444745683088  0.42776800037420776  1.0000
  C   C62       1.0  0.43248857416600844  0.6341229971931244  0.3184115157745284  1.0000
  C   C63       1.0  0.4291906816623837  0.5957712491335841  0.36781198610017923  1.0000
  C   C64       1.0  0.47630158417979385  0.5543592971225594  0.3774134159737418  1.0000
  C   C65       1.0  0.5249195888094819  0.5532344293382823  0.33724557851252274  1.0000
  C   C66       1.0  0.5245273301517273  0.5929428427917004  0.28891078548092974  1.0000
  C   C67       1.0  0.5259720859341215  0.9537375890458152  0.03681383686454633  1.0000
  C   C68       1.0  0.5675161929509615  0.8859266183706184  0.2016275601537531  1.0000
  C   C69       1.0  0.5708091204631175  0.9386108049075761  0.16657987747991887  1.0000
  C   C70       1.0  0.5236994819840606  0.901111710730547  0.07805178350259502  1.0000
  C   C71       1.0  0.4750820883039142  0.812311123792256  0.028318883152465633  1.0000
  C   C72       1.0  0.4754817697966872  0.7643967109611227  0.06840946399742637  1.0000
  N   N1        1.0  0.5709436506389735  0.03854503392528857  0.08713968611402123  1.0000
  N   N2        1.0  0.7201460890498481  0.35281000084420816  0.19933671834977684  1.0000
  N   N3        1.0  0.04859518108862228  0.9614530806753906  0.5323980806230824  1.0000
  N   N4        1.0  0.846525932580775  0.6471853650240932  0.367339294157077  1.0000
  N   N5        1.0  0.4290535153211791  0.5161983332359269  0.46759966895213273  1.0000
  N   N6        1.0  0.2798453145025733  0.4791892544733188  0.632659369047559  1.0000
  N   N7        1.0  0.951408416627082  0.4838047441399383  0.9128608765821086  1.0000
  N   N8        1.0  0.15347871802156748  0.5208118621667525  0.8006692345503839  1.0000
  N   N9        1.0  0.08714557021462352  0.5709465551769526  0.03854918875014601  1.0000
  N   N10       1.0  0.19934458403853486  0.7201573548154769  0.35281540997054633  1.0000
  N   N11       1.0  0.5323978230264217  0.0485933037517016  0.9614524377837911  1.0000
  N   N12       1.0  0.3673386836798542  0.8465252123447087  0.6471875390166134  1.0000
  N   N13       1.0  0.4675984249751723  0.42905289052809104  0.516192310845341  1.0000
  N   N14       1.0  0.6326616989329779  0.27985188838029984  0.4791894545579538  1.0000
  N   N15       1.0  0.9128577241759571  0.9514040419486988  0.4838037666096824  1.0000
  N   N16       1.0  0.8006604551389173  0.153475209727617  0.5208130251406403  1.0000
  N   N17       1.0  0.03854658373445116  0.08714171408890077  0.5709449238294299  1.0000
  N   N18       1.0  0.3528130247379834  0.1993372489873337  0.7201472210092986  1.0000
  N   N19       1.0  0.9614554915552131  0.5324002055509212  0.04859727910097452  1.0000
  N   N20       1.0  0.6471915358440439  0.36733531363370264  0.8465253099033133  1.0000
  N   N21       1.0  0.5161949026657736  0.4676008627816444  0.42905220704933805  1.0000
  N   N22       1.0  0.479187433220268  0.6326686426976097  0.2798583832221911  1.0000
  N   N23       1.0  0.48380279718477953  0.9128548775817154  0.951402192684654  1.0000
  N   N24       1.0  0.5208135957220816  0.800658453958583  0.153473450033488  1.0000
  Cl  Cl1       1.0  0.8145866703525402  0.5257111997057039  0.18183927765771574  1.0000
  Cl  Cl2       1.0  0.6561265777133727  0.4742879929422657  0.28887646001665274  1.0000
  Cl  Cl3       1.0  0.18541433170012317  0.367251966008901  0.7111250310420303  1.0000
  Cl  Cl4       1.0  0.3438718138179341  0.6327499349555552  0.8181590119983967  1.0000
  Cl  Cl5       1.0  0.18183917584801879  0.8145881564450334  0.5257115037990445  1.0000
  Cl  Cl6       1.0  0.2888746168684976  0.6561264648036272  0.47428657395819596  1.0000
  Cl  Cl7       1.0  0.7111267275674108  0.18541556589062233  0.3672536084879852  1.0000
  Cl  Cl8       1.0  0.8181601980696912  0.3438715953988736  0.6327507533216378  1.0000
  Cl  Cl9       1.0  0.5257122195300852  0.18183990781125917  0.814589149061355  1.0000
  Cl  Cl10      1.0  0.4742902238361495  0.28887459789314823  0.6561269097807171  1.0000
  Cl  Cl11      1.0  0.36725196327071075  0.7111263658903583  0.18541273419811707  1.0000
  Cl  Cl12      1.0  0.632750524858082  0.8181606730565392  0.34387122880597365  1.0000
  Cl  Cl13      1.0  0.8947955640903728  0.4999988495616563  0.3947932512529064  1.0000
  Cl  Cl14      1.0  0.10520042664329311  0.49999767326215055  0.6052058027366912  1.0000
  Cl  Cl15      1.0  0.3948020394670663  0.8947972571872498  0.5000058936858596  1.0000
  Cl  Cl16      1.0  0.605200307972929  0.1052024430378397  0.4999929713593831  1.0000
  Cl  Cl17      1.0  0.5000002039797593  0.3947981688998468  0.8947932949445345  1.0000
  Cl  Cl18      1.0  0.4999964534942052  0.6052009282237806  0.10520407557499595  1.0000
