data_image0
_chemical_formula_structural       Cu2H18C22N2O12
_chemical_formula_sum              "Cu2 H18 C22 N2 O12"
_cell_length_a       7.3450427019946725
_cell_length_b       7.539253551218238
_cell_length_c       12.125915517649428
_cell_angle_alpha    105.09270797923145
_cell_angle_beta     89.38542109066672
_cell_angle_gamma    119.32612778278032

_space_group_name_H-M_alt    "P 1"
_space_group_IT_number       1

loop_
  _space_group_symop_operation_xyz
  'x, y, z'

loop_
  _atom_site_type_symbol
  _atom_site_label
  _atom_site_symmetry_multiplicity
  _atom_site_fract_x
  _atom_site_fract_y
  _atom_site_fract_z
  _atom_site_occupancy
  Cu  Cu1       1.0  0.32925553058886686  0.4447058496014336  0.16481479804804883  1.0000
  Cu  Cu2       1.0  0.6707620136204326  0.5553131195121352  0.8351873870004385  1.0000
  H   H1        1.0  0.724655170432726  0.5357531372198069  0.11485967887546178  1.0000
  H   H2        1.0  0.2753613621733563  0.4642500819997864  0.8851442165134603  1.0000
  H   H3        1.0  0.7940035551823212  0.7662896376341024  0.18760236204225586  1.0000
  H   H4        1.0  0.20598560659752957  0.23371316807287465  0.8123989227937972  1.0000
  H   H5        1.0  0.2749319016268644  0.08831869630545701  0.033301905202378614  1.0000
  H   H6        1.0  0.7251064537297226  0.9117180316540189  0.9667088273516672  1.0000
  H   H7        1.0  0.44259530336716313  0.27852216921922235  0.9886828312840878  1.0000
  H   H8        1.0  0.5574423289007057  0.7215129159133726  0.011324348656231128  1.0000
  H   H9        1.0  0.179458267936802  0.10483476671297613  0.4634799289279672  1.0000
  H   H10       1.0  0.8205322329964204  0.8951460136011421  0.536522936660525  1.0000
  H   H11       1.0  0.2092759573708136  0.0078529378645911  0.6387873403799207  1.0000
  H   H12       1.0  0.7907209199952802  0.9921404393050043  0.36120922247413045  1.0000
  H   H13       1.0  0.2476248745458278  0.7685383879382643  0.7308995278581493  1.0000
  H   H14       1.0  0.7523875883623673  0.23146473611902968  0.26910186772659034  1.0000
  H   H15       1.0  0.3050319477298871  0.48220371014610214  0.6141983496905612  1.0000
  H   H16       1.0  0.6948970096464747  0.517742992371396  0.3857958363017105  1.0000
  H   H17       1.0  0.32404685512933906  0.4312773165593456  0.4033210198188757  1.0000
  H   H18       1.0  0.6758674545409491  0.5686533838279076  0.5966706776003793  1.0000
  C   C1        1.0  0.16544734499199618  0.0797162619962535  0.2393243127837011  1.0000
  C   C2        1.0  0.8345525656154321  0.9202835565381167  0.7606781929909022  1.0000
  C   C3        1.0  0.20281202251994293  0.9410591732766705  0.2948213386436579  1.0000
  C   C4        1.0  0.7971879444420721  0.05894059328060312  0.7051778601172034  1.0000
  C   C5        1.0  0.20338421920386188  0.977413898053314  0.4124158792605926  1.0000
  C   C6        1.0  0.7966130752301908  0.02257473102564231  0.5875791330693121  1.0000
  C   C7        1.0  0.23537026625860574  0.8506168267317592  0.4676473643519616  1.0000
  C   C8        1.0  0.764618441872443  0.14936535104784812  0.532345812766053  1.0000
  C   C9        1.0  0.2329156994155213  0.8804967031322736  0.5878685153494561  1.0000
  C   C10       1.0  0.7670829234071946  0.11949198365600473  0.41212898375538054  1.0000
  C   C11       1.0  0.25467459989822305  0.7478046083130038  0.638895914225053  1.0000
  C   C12       1.0  0.7453189026814186  0.252190342509735  0.3611033549453993  1.0000
  C   C13       1.0  0.28593925512171836  0.5836106011535875  0.5714059647849725  1.0000
  C   C14       1.0  0.7140288774395885  0.4163602736690067  0.428587901732513  1.0000
  C   C15       1.0  0.29556598326979594  0.5541681938662181  0.45481256863649144  1.0000
  C   C16       1.0  0.7043883108680119  0.44579927874131203  0.5451774410356267  1.0000
  C   C17       1.0  0.2679910326043923  0.6843659745488182  0.39911868950455454  1.0000
  C   C18       1.0  0.7320049475296315  0.3156225838265527  0.6008730092969901  1.0000
  C   C19       1.0  0.24244072593347002  0.7796669109346654  0.232992810936473  1.0000
  C   C20       1.0  0.7575772353437882  0.22034731008825761  0.7670078235878679  1.0000
  C   C21       1.0  0.2625781027352048  0.7454695254075434  0.10641140929219264  1.0000
  C   C22       1.0  0.7374621581327075  0.25456570113224325  0.8936023977048609  1.0000
  N   N1        1.0  0.27296724130649597  0.6551804984866082  0.2827304039216046  1.0000
  N   N2        1.0  0.727030806055538  0.3448207824846393  0.7172665471496844  1.0000
  O   O1        1.0  0.23489251410379092  0.8493349572896423  0.05113693972590032  1.0000
  O   O2        1.0  0.7651656092019506  0.15071150876562464  0.9488745113355538  1.0000
  O   O3        1.0  0.31570849242216786  0.6028771080967845  0.06147129210310006  1.0000
  O   O4        1.0  0.684317001195261  0.39715762657754544  0.9385242546574804  1.0000
  O   O5        1.0  0.9838069909480965  0.027780405255654707  0.20131389283275786  1.0000
  O   O6        1.0  0.01619560627595006  0.9722305377627551  0.7986919726193664  1.0000
  O   O7        1.0  0.33566218229107386  0.2572557315041095  0.24647587896801337  1.0000
  O   O8        1.0  0.6643219702928815  0.7427421992291771  0.753520522271643  1.0000
  O   O9        1.0  0.7019281968960838  0.6146312028013767  0.18647145909937285  1.0000
  O   O10       1.0  0.2980736755772639  0.3853670623362007  0.8135308141045032  1.0000
  O   O11       1.0  0.30695488755014116  0.22479905432223288  0.020588715981951104  1.0000
  O   O12       1.0  0.6930820075403543  0.7752344009777518  0.9794157380980838  1.0000
