data_image0
_chemical_formula_structural       Co2H24C30N8O10
_chemical_formula_sum              "Co2 H24 C30 N8 O10"
_cell_length_a       9.276655172745143
_cell_length_b       10.186424177391046
_cell_length_c       10.991516054855895
_cell_angle_alpha    97.68485799509148
_cell_angle_beta     110.27254240557663
_cell_angle_gamma    98.7001913462049

_space_group_name_H-M_alt    "P 1"
_space_group_IT_number       1

loop_
  _space_group_symop_operation_xyz
  'x, y, z'

loop_
  _atom_site_type_symbol
  _atom_site_label
  _atom_site_symmetry_multiplicity
  _atom_site_fract_x
  _atom_site_fract_y
  _atom_site_fract_z
  _atom_site_occupancy
  Co  Co1       1.0  0.4138332339157245  0.5077374989833315  0.7862417066264913  1.0000
  Co  Co2       1.0  0.5861667903656951  0.4922593229733395  0.2137586329542458  1.0000
  H   H1        1.0  0.0007028656594485011  0.0753816302852002  0.13909369948868294  1.0000
  H   H2        1.0  0.9992977681643469  0.9246131506614076  0.8609083869982755  1.0000
  H   H3        1.0  0.27362193003786933  0.35741413404817746  0.9645653562236449  1.0000
  H   H4        1.0  0.7263770724372665  0.6425877665229225  0.03543804135644285  1.0000
  H   H5        1.0  0.6818729150129387  0.7325416353864115  0.42325429606997034  1.0000
  H   H6        1.0  0.3181252449291065  0.26746129981372496  0.576744430200293  1.0000
  H   H7        1.0  0.7591287375209533  0.2974586106512264  0.9986898988413133  1.0000
  H   H8        1.0  0.24087615218468275  0.7025391952215118  0.0013101944710527235  1.0000
  H   H9        1.0  0.08125937576458854  0.584963489022826  0.693079536784552  1.0000
  H   H10       1.0  0.9187426999318405  0.4150414353622906  0.30692515413205973  1.0000
  H   H11       1.0  0.8086233080586427  0.8859389288853099  0.02252797184149812  1.0000
  H   H12       1.0  0.1913757128354234  0.11405384797382824  0.9774679249411876  1.0000
  H   H13       1.0  0.38108760663512703  0.9635765998046324  0.7522705699332093  1.0000
  H   H14       1.0  0.6189124712146635  0.03642023683210031  0.24772432853525567  1.0000
  H   H15       1.0  0.9884757962183883  0.31727162390245683  0.9453720264312793  1.0000
  H   H16       1.0  0.011521817389670749  0.6827292765155237  0.054629012700182555  1.0000
  H   H17       1.0  0.6698474906852568  0.339695702926747  0.46792152491299555  1.0000
  H   H18       1.0  0.33015487157025797  0.6603102425194579  0.5320806492949474  1.0000
  H   H19       1.0  0.7177602521561326  0.38565371298706463  0.7521926279197546  1.0000
  H   H20       1.0  0.2822398162027824  0.6143522498083129  0.24780886449406844  1.0000
  H   H21       1.0  0.7884189505118472  0.5545321968304648  0.8349107856957546  1.0000
  H   H22       1.0  0.21158380615145947  0.445470706118009  0.16508839731070427  1.0000
  H   H23       1.0  0.7756198897199127  0.7537921689069833  0.6823141171181248  1.0000
  H   H24       1.0  0.22437597632553974  0.24621078364231871  0.31768392735801143  1.0000
  C   C1        1.0  0.511332809601754  0.7628499362952256  0.8421153742471009  1.0000
  C   C2        1.0  0.4886658436687198  0.23714589040167766  0.15788079318092935  1.0000
  C   C3        1.0  0.46583031993548474  0.2353417794238198  0.8015142807856395  1.0000
  C   C4        1.0  0.5341790229304665  0.7646600479693719  0.19849037116391355  1.0000
  C   C5        1.0  0.5864506048339138  0.909588020512125  0.8841739110022148  1.0000
  C   C6        1.0  0.413548057364622  0.0904078086314541  0.11582134957377123  1.0000
  C   C7        1.0  0.5616756358166555  0.14021456942182914  0.867265114511504  1.0000
  C   C8        1.0  0.43832779288545953  0.8597863096433329  0.13272946743686734  1.0000
  C   C9        1.0  0.7125744915352001  0.1888136244063432  0.9642001882432326  1.0000
  C   C10       1.0  0.287426419919619  0.8111821751546769  0.03580028838710091  1.0000
  C   C11       1.0  0.0834775103678567  0.5161286477557496  0.760605244793517  1.0000
  C   C12       1.0  0.9165280061734792  0.4838762506056044  0.23940046881427432  1.0000
  C   C13       1.0  0.7397663124453829  0.9573547020501821  0.9786096909790488  1.0000
  C   C14       1.0  0.2602338821811756  0.04263807347440721  0.02138382614456449  1.0000
  C   C15       1.0  0.4988220881573327  0.0009200971873327009  0.827225722642247  1.0000
  C   C16       1.0  0.5011759555707658  0.9990777705196341  0.17276869787956184  1.0000
  C   C17       1.0  0.03415532058880195  0.3794007553341175  0.888588692504371  1.0000
  C   C18       1.0  0.9658397304197025  0.620599146265292  0.11141236783755193  1.0000
  C   C19       1.0  0.8021111625387717  0.09682816305105749  0.017611737727918346  1.0000
  C   C20       1.0  0.1978901790360795  0.9031646037989493  0.9823821202927552  1.0000
  C   C21       1.0  0.6875397469476922  0.44817030354914067  0.5006471528317745  1.0000
  C   C22       1.0  0.3124632427063219  0.5518336057803596  0.49935495457829404  1.0000
  C   C23       1.0  0.9633001539195902  0.4577918471157788  0.7993154153095221  1.0000
  C   C24       1.0  0.036701697714193016  0.5422120733349801  0.20068544435144287  1.0000
  C   C25       1.0  0.7433001929277127  0.5266699173227068  0.6294168044169908  1.0000
  C   C26       1.0  0.2567016497780088  0.4733340006813762  0.3705849620960109  1.0000
  C   C27       1.0  0.7978101372899785  0.4794232262455012  0.7578106747844373  1.0000
  C   C28       1.0  0.20218940259107404  0.5205807066610718  0.24219131678649577  1.0000
  C   C29       1.0  0.7427130887057416  0.6595369770507704  0.6109826291586276  1.0000
  C   C30       1.0  0.2572853220831419  0.3404669694237441  0.3890172078111435  1.0000
  N   N1        1.0  0.21785784694058927  0.47641842042458665  0.8219324752136715  1.0000
  N   N2        1.0  0.7821412544551833  0.5235794141410113  0.1780713547256526  1.0000
  N   N3        1.0  0.6551442952349762  0.527879573268855  0.4104920435190139  1.0000
  N   N4        1.0  0.34485472509628323  0.47212233219560323  0.5895095403569786  1.0000
  N   N5        1.0  0.18526279933287532  0.39269617645113913  0.8988046978236142  1.0000
  N   N6        1.0  0.8147338824614748  0.6073057341290922  0.10120073851847877  1.0000
  N   N7        1.0  0.6892991898999696  0.6562519164048551  0.47962943126127305  1.0000
  N   N8        1.0  0.31069895218595184  0.3437510139019225  0.5203711087130786  1.0000
  O   O1        1.0  0.590317963776087  0.6727155458928139  0.8879637675509359  1.0000
  O   O2        1.0  0.4096779922619334  0.3272833382043175  0.11203561613648823  1.0000
  O   O3        1.0  0.37148715997653875  0.7235049014808652  0.761239972178295  1.0000
  O   O4        1.0  0.6285108569673666  0.27649295888606673  0.238757168899653  1.0000
  O   O5        1.0  0.5170377926634231  0.3627312057126276  0.8553091476363762  1.0000
  O   O6        1.0  0.48296405897035294  0.6372727147381383  0.1446917120245814  1.0000
  O   O7        1.0  0.9528394786908337  0.149635069558272  0.10818513160389642  1.0000
  O   O8        1.0  0.047158789662724125  0.8503546734777178  0.8918074330802528  1.0000
  O   O9        1.0  0.3455157054979949  0.18636258416868404  0.6980402519100936  1.0000
  O   O10       1.0  0.6544885121688325  0.8136372455873729  0.301964442460367  1.0000
