data_image0
_chemical_formula_structural       Ag2H26C34S2N6Cl2O8
_chemical_formula_sum              "Ag2 H26 C34 S2 N6 Cl2 O8"
_cell_length_a       7.428058718814827
_cell_length_b       10.820129767968828
_cell_length_c       11.251702688345716
_cell_angle_alpha    77.07057374925436
_cell_angle_beta     71.26646050177334
_cell_angle_gamma    76.85465226940893

_space_group_name_H-M_alt    "P 1"
_space_group_IT_number       1

loop_
  _space_group_symop_operation_xyz
  'x, y, z'

loop_
  _atom_site_type_symbol
  _atom_site_label
  _atom_site_symmetry_multiplicity
  _atom_site_fract_x
  _atom_site_fract_y
  _atom_site_fract_z
  _atom_site_occupancy
  Ag  Ag1       1.0  0.40472334853139097  0.4449304541379461  0.42315575667286964  1.0000
  Ag  Ag2       1.0  0.5952743939465818  0.5550699340792348  0.5768454821134982  1.0000
  H   H1        1.0  0.2838086974190119  0.8210220343743373  0.2161720181857376  1.0000
  H   H2        1.0  0.7161918830012795  0.17897835988056704  0.7838277243021283  1.0000
  H   H3        1.0  0.4556624535819438  0.8891193263014757  0.0875759476821686  1.0000
  H   H4        1.0  0.5443400414086812  0.1108791465066048  0.912423798317633  1.0000
  H   H5        1.0  0.8511418764599696  0.1166660754389568  0.32354580644049963  1.0000
  H   H6        1.0  0.1488589469335011  0.8833333577378256  0.6764532017139758  1.0000
  H   H7        1.0  0.41858851609128306  0.11708461186643859  0.4658191411152402  1.0000
  H   H8        1.0  0.5814111370958983  0.8829138558276952  0.5341812130518803  1.0000
  H   H9        1.0  0.0859333422090103  0.1947409479408435  0.595192436304025  1.0000
  H   H10       1.0  0.9140663109781711  0.8052575197532906  0.4048079178630956  1.0000
  H   H11       1.0  0.5132390354832238  0.6439133758005936  0.17603383489554159  1.0000
  H   H12       1.0  0.48676179949362114  0.3560860546048588  0.8239678376524822  1.0000
  H   H13       1.0  0.7231869022948842  0.6445900452090569  0.9540270850568717  1.0000
  H   H14       1.0  0.2768108401830816  0.355410343008124  0.045974153729496  1.0000
  H   H15       1.0  0.8294026777323324  0.2270564598717399  0.04037498752799708  1.0000
  H   H16       1.0  0.17059506088451568  0.772943929269225  0.9596253631271878  1.0000
  H   H17       1.0  0.6294464179497653  0.2476169117822096  0.261037394677203  1.0000
  H   H18       1.0  0.370552741568801  0.7523834799157286  0.7389626518943189  1.0000
  H   H19       1.0  0.03251295353565095  0.6044530884493113  0.5483502902164973  1.0000
  H   H20       1.0  0.9674862021217905  0.3955473041723963  0.4516488682238419  1.0000
  H   H21       1.0  0.7963329328087668  0.6149552173045053  0.7599634062795957  1.0000
  H   H22       1.0  0.20366882940118813  0.3850461396617177  0.24003765458916598  1.0000
  H   H23       1.0  0.1006140630355006  0.24300903951014874  0.8913886385969364  1.0000
  H   H24       1.0  0.8993836717202156  0.7569913505545927  0.10861082392706586  1.0000
  H   H25       1.0  0.33416084239551935  0.25552431632156214  0.6743599851652746  1.0000
  H   H26       1.0  0.6658397418858968  0.7444760770095726  0.32564064545377386  1.0000
  C   C1        1.0  0.9470323089417647  0.16539945518006496  0.46572305449889495  1.0000
  C   C2        1.0  0.05296968851912718  0.8346009425555961  0.534275495774125  1.0000
  C   C3        1.0  0.9751745618115067  0.119151820900619  0.35365704317627683  1.0000
  C   C4        1.0  0.024827435649385235  0.8808485768350421  0.646341507096743  1.0000
  C   C5        1.0  0.160282224416882  0.07449743743327991  0.2800896691200877  1.0000
  C   C6        1.0  0.8397183521422847  0.9255029577454083  0.7199091852365953  1.0000
  C   C7        1.0  0.3204832251227501  0.07445891479189021  0.3208360998339047  1.0000
  C   C8        1.0  0.6795175982707277  0.9255405183848991  0.6791629083205778  1.0000
  C   C9        1.0  0.29367018991207766  0.1169346092433017  0.4349014991165491  1.0000
  C   C10       1.0  0.7063308803157042  0.8830638619315891  0.5650976628357258  1.0000
  C   C11       1.0  0.10816627972953795  0.161439284428468  0.5062751733705896  1.0000
  C   C12       1.0  0.8918362113999692  0.8385591893033965  0.4937236844980291  1.0000
  C   C13       1.0  0.7470970319432837  0.2247210255537766  0.5378971516936064  1.0000
  C   C14       1.0  0.25290379145018704  0.7752784076230127  0.4621018564608762  1.0000
  C   C15       1.0  0.588564172724176  0.5545822258567983  0.1410935223879264  1.0000
  C   C16       1.0  0.4114364115572399  0.44541816747432955  0.858907108231115  1.0000
  C   C17       1.0  0.7038231461746918  0.5529321661710043  0.016604356923210228  1.0000
  C   C18       1.0  0.2961746001643988  0.4470682211224003  0.9833977699943405  1.0000
  C   C19       1.0  0.7978663933304446  0.43493851174115145  0.9762901101863762  1.0000
  C   C20       1.0  0.20213277391037107  0.5650618781092263  0.023711712647511304  1.0000
  C   C21       1.0  0.7672479147600838  0.32237490335636215  0.0654377478194874  1.0000
  C   C22       1.0  0.23275124861960717  0.6776254874177924  0.9345631868832174  1.0000
  C   C23       1.0  0.6529042059727386  0.33234720046538513  0.18863085941371355  1.0000
  C   C24       1.0  0.34709353264410936  0.6676531886755724  0.8113694912414715  1.0000
  C   C25       1.0  0.04349591562148451  0.5279186545000911  0.6279487323898111  1.0000
  C   C26       1.0  0.956504664798807  0.4720817397548203  0.37205101009804764  1.0000
  C   C27       1.0  0.9112304294865153  0.5320816182893608  0.7468639197919418  1.0000
  C   C28       1.0  0.08877015479490069  0.4679187750417739  0.2531367108270999  1.0000
  C   C29       1.0  0.9278740775866652  0.4300080820029566  0.8465460777000688  1.0000
  C   C30       1.0  0.07212508579302578  0.5699923087711981  0.15345485700263586  1.0000
  C   C31       1.0  0.0779255349200412  0.3256162641882696  0.8188386002642646  1.0000
  C   C32       1.0  0.9220733816253386  0.6743850885877833  0.18116218064063358  1.0000
  C   C33       1.0  0.2089270388164834  0.3306222446016776  0.6984549016022399  1.0000
  C   C34       1.0  0.7910721245632075  0.6693781461724767  0.30154603310046474  1.0000
  S   S1        1.0  0.178334565399858  0.023845175777346104  0.1349389128184981  1.0000
  S   S2        1.0  0.8216662579936128  0.9761542573994433  0.8650600953359774  1.0000
  N   N1        1.0  0.3121035508080753  0.8832295217845001  0.1288813480034179  1.0000
  N   N2        1.0  0.6878984505139341  0.11677087502738462  0.8711180904007779  1.0000
  N   N3        1.0  0.5651952697740513  0.44634317463219014  0.22700411740387255  1.0000
  N   N4        1.0  0.43480531836848274  0.5536572177751606  0.7729974013463518  1.0000
  N   N5        1.0  0.193126435530715  0.43100833305631886  0.6043470130904184  1.0000
  N   N6        1.0  0.8068724810146648  0.5689930197197343  0.3956537678144869  1.0000
  Cl  Cl1       1.0  0.5537445206482658  0.022874512578411603  0.23459281233476048  1.0000
  Cl  Cl2       1.0  0.44625630660632964  0.9771249196746012  0.7654070839508976  1.0000
  O   O1        1.0  0.7339520927395924  0.2734340565087265  0.6346931732780305  1.0000
  O   O2        1.0  0.2660484838195743  0.7265663386699615  0.36530568107864525  1.0000
  O   O3        1.0  0.6091558678979325  0.22658856700934388  0.4940568052948039  1.0000
  O   O4        1.0  0.3908447163834837  0.7734118263217907  0.5059438253242378  1.0000
  O   O5        1.0  0.9846765031201699  0.012199359987150197  0.14338416719382266  1.0000
  O   O6        1.0  0.015324324134425615  0.9878000722658625  0.8566157290918357  1.0000
  O   O7        1.0  0.27700229183345465  0.11371994775772269  0.030112196208655545  1.0000
  O   O8        1.0  0.7229997094885618  0.8862804490541618  0.9698872421955472  1.0000
