data_image0
_chemical_formula_structural       Zn4H10C22O13
_chemical_formula_sum              "Zn4 H10 C22 O13"
_cell_length_a       10.982082200710002
_cell_length_b       10.965329550447793
_cell_length_c       16.14073965171962
_cell_angle_alpha    88.9692456333464
_cell_angle_beta     98.24307419506052
_cell_angle_gamma    100.14213600756025

_space_group_name_H-M_alt    "P 1"
_space_group_IT_number       1

loop_
  _space_group_symop_operation_xyz
  'x, y, z'

loop_
  _atom_site_type_symbol
  _atom_site_label
  _atom_site_symmetry_multiplicity
  _atom_site_fract_x
  _atom_site_fract_y
  _atom_site_fract_z
  _atom_site_occupancy
  Zn  Zn1       1.0  0.4093134461800503  0.5909153226784412  0.5680451390749682  1.0000
  Zn  Zn2       1.0  0.6090428138492001  0.6183753799204581  0.4386301394223723  1.0000
  Zn  Zn3       1.0  0.3749185247630535  0.387851262166201  0.421610208977846  1.0000
  Zn  Zn4       1.0  0.6002494433368781  0.402187890467289  0.5750186408805718  1.0000
  H   H1        1.0  0.5919804437524334  0.40587632161884807  0.011416783874437886  1.0000
  H   H2        1.0  0.7472740093802557  0.09636154512880779  0.44991610485676864  1.0000
  H   H3        1.0  0.4075101495277523  0.5908750437108664  0.9897339781739165  1.0000
  H   H4        1.0  0.9701617331516914  0.4012042854319517  0.4239462146268594  1.0000
  H   H5        1.0  0.030406589681966478  0.5920343146313981  0.569388991369344  1.0000
  H   H6        1.0  0.3750279901628417  0.9804616970609956  0.4505064630655796  1.0000
  H   H7        1.0  0.633579579373297  0.9714749952766372  0.6860433585548835  1.0000
  H   H8        1.0  0.8418576109972875  0.0683016436462438  0.759647623487993  1.0000
  H   H9        1.0  0.003487279031965301  0.17974851743900896  0.6784789156331501  1.0000
  H   H10       1.0  0.9565295011391866  0.1921943597326177  0.523297508945099  1.0000
  C   C1        1.0  0.8337122225157216  0.5238267254356472  0.5159811213660603  1.0000
  C   C2        1.0  0.5331153467860049  0.8328469201894535  0.5119951526468256  1.0000
  C   C3        1.0  0.4680002104029555  0.167573879626282  0.48905146244638337  1.0000
  C   C4        1.0  0.4792833015602441  0.5147797860861587  0.2758081902091051  1.0000
  C   C5        1.0  0.5185264953870287  0.4883656138183952  0.7261745490762479  1.0000
  C   C6        1.0  0.4732462116341126  0.5194149201745759  0.18589173083540803  1.0000
  C   C7        1.0  0.4670039477303618  0.5302110104367729  0.022948249957359213  1.0000
  C   C8        1.0  0.5323792471283113  0.46659798708922307  0.9785151477115265  1.0000
  C   C9        1.0  0.6771431027605884  0.029380109444268495  0.5634548882060174  1.0000
  C   C10       1.0  0.704849622233411  0.019483110774061202  0.6505642378251011  1.0000
  C   C11       1.0  0.8217612198609955  0.07420685308478168  0.6916925330634457  1.0000
  C   C12       1.0  0.5269286573253283  0.4753463927065765  0.8913506236416001  1.0000
  C   C13       1.0  0.9123474721288789  0.1367670217164019  0.646195878684168  1.0000
  C   C14       1.0  0.8858444651794102  0.14415757388781708  0.5591722458469094  1.0000
  C   C15       1.0  0.7687857315693378  0.0907922951533493  0.5178210655626714  1.0000
  C   C16       1.0  0.47106271302148883  0.5233989060627167  0.11007251640376134  1.0000
  C   C17       1.0  0.5237873883006898  0.4813272998163853  0.8155050876403964  1.0000
  C   C18       1.0  0.024617026728023513  0.46440139911316447  0.4723952547572382  1.0000
  C   C19       1.0  0.9715013020060468  0.5302852772038662  0.5214875766512607  1.0000
  C   C20       1.0  0.4609635951451522  0.031659808827121994  0.4849809352211525  1.0000
  C   C21       1.0  0.5525392341826746  0.9718070766562618  0.5196419687701735  1.0000
  C   C22       1.0  0.16212824806650164  0.47343036832897684  0.4814704539552822  1.0000
  O   O1        1.0  0.4982404179451621  0.5002841431132197  0.4992388608423824  1.0000
  O   O2        1.0  0.5637665822510485  0.5950236275647427  0.3166395913904837  1.0000
  O   O3        1.0  0.5847612944959978  0.4230073501380788  0.6932977970462206  1.0000
  O   O4        1.0  0.4004132159985688  0.4315748611617565  0.3045673695993615  1.0000
  O   O5        1.0  0.4480134241768852  0.5592719130434105  0.6883928406492077  1.0000
  O   O6        1.0  0.4527143231353819  0.7716609464925597  0.5531959187633719  1.0000
  O   O7        1.0  0.5470909847460774  0.22772016441130918  0.545913522793633  1.0000
  O   O8        1.0  0.7847313997743584  0.5953304250480755  0.4633691864978716  1.0000
  O   O9        1.0  0.20239321066219415  0.40473763104510846  0.43210160097918765  1.0000
  O   O10       1.0  0.7795726939827433  0.448854195944321  0.5657032460448905  1.0000
  O   O11       1.0  0.22840042198281196  0.5478222806123441  0.5370743365662635  1.0000
  O   O12       1.0  0.6015425779392415  0.7906022247239691  0.4662018657111347  1.0000
  O   O13       1.0  0.39102263795545167  0.21301329469473274  0.4350827036856587  1.0000
