data_image0
_chemical_formula_structural       Zr6H64C84O32
_chemical_formula_sum              "Zr6 H64 C84 O32"
_cell_length_a       18.167259938442196
_cell_length_b       20.44980648697717
_cell_length_c       20.443444179404842
_cell_angle_alpha    67.08723264856249
_cell_angle_beta     87.42278817653144
_cell_angle_gamma    87.42317474486354

_space_group_name_H-M_alt    "P 1"
_space_group_IT_number       1

loop_
  _space_group_symop_operation_xyz
  'x, y, z'

loop_
  _atom_site_type_symbol
  _atom_site_label
  _atom_site_symmetry_multiplicity
  _atom_site_fract_x
  _atom_site_fract_y
  _atom_site_fract_z
  _atom_site_occupancy
  Zr  Zr1       1.0  0.9074818722095442  0.9029352356884957  0.09348369253666536  1.0000
  Zr  Zr2       1.0  0.10315742936847981  0.9040205479183212  0.08054778482732429  1.0000
  Zr  Zr3       1.0  0.8984455953086723  0.05808578614042401  0.9355305329602286  1.0000
  Zr  Zr4       1.0  0.09414000832718022  0.0623436117567238  0.925823511836711  1.0000
  Zr  Zr5       1.0  0.9990410194167155  0.0555581987697735  0.08253925125124076  1.0000
  Zr  Zr6       1.0  0.002509751881163397  0.9081716924336835  0.9351401131096819  1.0000
  H   H1        1.0  0.0011495542729278024  0.7979523449231679  0.085424851081072  1.0000
  H   H2        1.0  0.1621821966376089  0.03127331121552151  0.05892086097086488  1.0000
  H   H3        1.0  0.002279965112656199  0.058254017424133116  0.8248731358169578  1.0000
  H   H4        1.0  0.8372094371519411  0.03917942172503071  0.06583231424606589  1.0000
  H   H5        1.0  0.24414555755671327  0.8830629593426168  0.060632594140592626  1.0000
  H   H6        1.0  0.22964873537056008  0.04563439957701121  0.8809548708916564  1.0000
  H   H7        1.0  0.0975941064493071  0.19227792149968795  0.8302991718838796  1.0000
  H   H8        1.0  0.8580914115693974  0.15554595571715882  0.8027294525288723  1.0000
  H   H9        1.0  0.7581060326136395  0.0437502742191924  0.9218298408105239  1.0000
  H   H10       1.0  0.7609955558536754  0.8904478003037541  0.1444568574179639  1.0000
  H   H11       1.0  0.9026581178544433  0.8068030831670256  0.2231393461551647  1.0000
  H   H12       1.0  0.1421817134215217  0.769042110243987  0.1799284866526776  1.0000
  H   H13       1.0  0.8780799670235169  0.1940456357505909  0.8532872843822259  1.0000
  H   H14       1.0  0.7737562852037242  0.8654089676752719  0.0804812153222231  1.0000
  H   H15       1.0  0.12090648576045031  0.823602491448824  0.2160351152957745  1.0000
  H   H16       1.0  0.239135663934718  0.1076065692624297  0.9079613134954556  1.0000
  H   H17       1.0  0.8210226858212126  0.48865438975977327  0.007310019726205019  1.0000
  H   H18       1.0  0.6158636859488384  0.3911092264949545  0.00839879726314051  1.0000
  H   H19       1.0  0.6159667422940699  0.6028589829683355  0.005818918011207957  1.0000
  H   H20       1.0  0.18178214450792035  0.4795343638207117  0.004624916278586934  1.0000
  H   H21       1.0  0.3839259974966325  0.36098669781489434  0.006208129753161984  1.0000
  H   H22       1.0  0.3895477881353244  0.5711968838016688  0.006897268993746867  1.0000
  H   H23       1.0  0.8197401355673933  0.9828862676172891  0.5148628991874701  1.0000
  H   H24       1.0  0.6146841670616466  0.9783777533619187  0.41984867198882364  1.0000
  H   H25       1.0  0.6149148441648223  0.9793603164898028  0.6302898792595643  1.0000
  H   H26       1.0  0.18118149802585753  0.9752452899042651  0.5073776257414336  1.0000
  H   H27       1.0  0.3829795360391728  0.9804712096460265  0.38699679251843117  1.0000
  H   H28       1.0  0.38910758235650184  0.9766392025087424  0.5989835404256566  1.0000
  H   H29       1.0  0.49775117074152325  0.9828650446676197  0.43170684980396584  1.0000
  H   H30       1.0  0.5028108058205091  0.9749363322678661  0.5849563514125435  1.0000
  H   H31       1.0  0.504239864644113  0.5569519873184846  0.004152054358541924  1.0000
  H   H32       1.0  0.4981081173544268  0.4046132621301269  0.009962868405565907  1.0000
  H   H33       1.0  0.2384194722593733  0.23640588988871514  0.921671073483459  1.0000
  H   H34       1.0  0.08666102080105281  0.25329918124806033  0.08168358024459368  1.0000
  H   H35       1.0  0.15436820505492932  0.3565860907527211  0.08250301715510489  1.0000
  H   H36       1.0  0.30828073154903285  0.33745851347337213  0.9238690011463716  1.0000
  H   H37       1.0  0.2498998104238552  0.721955516447615  0.07874265814837858  1.0000
  H   H38       1.0  0.09724166785979803  0.709789715937717  0.9299954490970845  1.0000
  H   H39       1.0  0.16183149034333874  0.5992270248921728  0.9309415484908995  1.0000
  H   H40       1.0  0.3152740028543164  0.6118327046390135  0.0801003357276286  1.0000
  H   H41       1.0  0.9123832618459036  0.26096260027780005  0.0822193653810288  1.0000
  H   H42       1.0  0.7629131685010861  0.24547489889347682  0.9325743140030908  1.0000
  H   H43       1.0  0.6923823872486351  0.35267659754001096  0.9333743995481  1.0000
  H   H44       1.0  0.8433124118627904  0.36898776227423735  0.08272945290608644  1.0000
  H   H45       1.0  0.9096332869722586  0.7181293054462401  0.9271085602669442  1.0000
  H   H46       1.0  0.755312043488125  0.7348096369721091  0.08539034084252246  1.0000
  H   H47       1.0  0.6897177977622277  0.630150084489756  0.08626734701309145  1.0000
  H   H48       1.0  0.8454951185647773  0.6121167864607032  0.9284814481156543  1.0000
  H   H49       1.0  0.24925924770840166  0.049360614258148416  0.7493087309467015  1.0000
  H   H50       1.0  0.0985518707540365  0.8980839011670553  0.7393757870080575  1.0000
  H   H51       1.0  0.16264063497450823  0.8993757228574996  0.6284082472876305  1.0000
  H   H52       1.0  0.31448267970905863  0.05053508877988119  0.6392978883700522  1.0000
  H   H53       1.0  0.0821122345486103  0.052988893623187004  0.2842467519319243  1.0000
  H   H54       1.0  0.2372864387438156  0.8992988813931504  0.2591712387983094  1.0000
  H   H55       1.0  0.30860301551194885  0.900488245523412  0.36021582434369054  1.0000
  H   H56       1.0  0.15159505050138475  0.05326015879970209  0.38672770583649196  1.0000
  H   H57       1.0  0.9120133087877349  0.9066915260935958  0.7411642264938078  1.0000
  H   H58       1.0  0.7528337810984455  0.059001582863970704  0.7627882060361344  1.0000
  H   H59       1.0  0.6866119479134697  0.0591000364091983  0.6586357146142416  1.0000
  H   H60       1.0  0.8470240652830584  0.9069923323027429  0.6359935859771821  1.0000
  H   H61       1.0  0.9061781172709046  0.05882302132256  0.28374760134784077  1.0000
  H   H62       1.0  0.7637781391644792  0.8996143829162194  0.27772594088453667  1.0000
  H   H63       1.0  0.6941987149873228  0.9010363100852384  0.3848857521385086  1.0000
  H   H64       1.0  0.8384711056333813  0.05933220943613551  0.39255568529164  1.0000
  C   C1        1.0  0.8798795404306359  0.9784098908525181  0.20941420187030252  1.0000
  C   C2        1.0  0.1298500853130378  0.7878110562829052  0.004898829680094336  1.0000
  C   C3        1.0  0.11418646447842923  0.9748091381434846  0.20486392550987637  1.0000
  C   C4        1.0  0.8748583923668465  0.7960686399762907  0.005725267270037165  1.0000
  C   C5        1.0  0.8755805923484206  0.9828015627031021  0.8208726934652117  1.0000
  C   C6        1.0  0.1181138775153983  0.17666942418892972  0.0011376459686828874  1.0000
  C   C7        1.0  0.13071693245170476  0.9739784704597414  0.8167899831753827  1.0000
  C   C8        1.0  0.8836074600978847  0.1832246992224071  0.005448044730876193  1.0000
  C   C9        1.0  0.7230536576702065  0.5524461246989745  0.0074864771392598424  1.0000
  C   C10       1.0  0.7608871559788212  0.49125480211117184  0.007435161723449796  1.0000
  C   C11       1.0  0.7224154417151426  0.4330696769252  0.007460078402523635  1.0000
  C   C12       1.0  0.6452914720829953  0.4368789418726848  0.007249371968043792  1.0000
  C   C13       1.0  0.6057644677583411  0.4977294423071967  0.007084836369500579  1.0000
  C   C14       1.0  0.6458671194112853  0.5547927858552413  0.00735095521282148  1.0000
  C   C15       1.0  0.28191675371197533  0.5323140736931434  0.006158814421595995  1.0000
  C   C16       1.0  0.24186384925241805  0.4755086105881362  0.0051030708535008615  1.0000
  C   C17       1.0  0.2781186525851354  0.41382427457921983  0.004539102475931089  1.0000
  C   C18       1.0  0.3553294844126782  0.40944237603739714  0.005288984575621152  1.0000
  C   C19       1.0  0.3969593122008562  0.4650762732911176  0.0068142406130605754  1.0000
  C   C20       1.0  0.3589285029201008  0.5264327018801609  0.007173686636264164  1.0000
  C   C21       1.0  0.7219020036977638  0.9820743646547854  0.5792561504429372  1.0000
  C   C22       1.0  0.7596590055966673  0.9819200572146374  0.5180380233292109  1.0000
  C   C23       1.0  0.7211297580381526  0.9802484263733575  0.46065041590125577  1.0000
  C   C24       1.0  0.6441118098622313  0.9786700075107292  0.4650658756981014  1.0000
  C   C25       1.0  0.6046270127056276  0.9790337506103057  0.5257235195738302  1.0000
  C   C26       1.0  0.6447365137543457  0.9806930156921042  0.5822259507673664  1.0000
  C   C27       1.0  0.2814333113597343  0.9763886707894047  0.560142676990317  1.0000
  C   C28       1.0  0.24124660917861726  0.976187940988652  0.5030446777962748  1.0000
  C   C29       1.0  0.2772683542036916  0.9771177411747658  0.4406335875705309  1.0000
  C   C30       1.0  0.3544846820295716  0.9783632180349925  0.43593376071567724  1.0000
  C   C31       1.0  0.3962140914891775  0.9786530888985542  0.4920678752952552  1.0000
  C   C32       1.0  0.35838030428324436  0.9777034553345775  0.5539816668692408  1.0000
  C   C33       1.0  0.4764119241707832  0.9798653311456889  0.48369671880354276  1.0000
  C   C34       1.0  0.5244405562881768  0.9777326024337828  0.5331344229809715  1.0000
  C   C35       1.0  0.5255628195286803  0.5052382852800295  0.0063649641688882375  1.0000
  C   C36       1.0  0.47714274709789356  0.45639265984183214  0.007857448290032182  1.0000
  C   C37       1.0  0.22095155116179652  0.26259014537569675  0.9573248738569047  1.0000
  C   C38       1.0  0.1584209299850201  0.23858271893590915  0.001630508030466178  1.0000
  C   C39       1.0  0.134773147716821  0.2728793698939853  0.04672797793342907  1.0000
  C   C40       1.0  0.17270198919905516  0.33044207171140283  0.04691296077642446  1.0000
  C   C41       1.0  0.23621888690917808  0.3539992820223858  0.003404616904660432  1.0000
  C   C42       1.0  0.25983014763910733  0.31898587207239615  0.9587475085695584  1.0000
  C   C43       1.0  0.23125798099480485  0.6946832038653028  0.04638988602257399  1.0000
  C   C44       1.0  0.16952089766882486  0.7223966520433437  0.004485403783668544  1.0000
  C   C45       1.0  0.14485490778936594  0.6875082120708031  0.9629348719445544  1.0000
  C   C46       1.0  0.18091047292119106  0.6256599306547557  0.9639749076153731  1.0000
  C   C47       1.0  0.2431279943549356  0.5976505786438864  0.005635083651142675  1.0000
  C   C48       1.0  0.26782803951631007  0.6334190455211016  0.04661626719148868  1.0000
  C   C49       1.0  0.8647665060074275  0.2823066046716178  0.048994225662433194  1.0000
  C   C50       1.0  0.8426231540404673  0.24784083409259947  0.0061150245400653815  1.0000
  C   C51       1.0  0.7801842845614075  0.27348077130089626  0.964780767389584  1.0000
  C   C52       1.0  0.740673173108064  0.3328331862883118  0.9660586680829794  1.0000
  C   C53       1.0  0.7633793107149459  0.368843582816865  0.007563013822256406  1.0000
  C   C54       1.0  0.8260675010309197  0.3425717604627253  0.04899330465571682  1.0000
  C   C55       1.0  0.8614894853701642  0.6981433620886222  0.9618986405894885  1.0000
  C   C56       1.0  0.8357149111284983  0.7334901994617412  0.005450481638732149  1.0000
  C   C57       1.0  0.7737515197326276  0.7083574317669131  0.050236700129204316  1.0000
  C   C58       1.0  0.7374461616826408  0.6498270508327622  0.05064938243948093  1.0000
  C   C59       1.0  0.7628166410234982  0.6140804369310118  0.00711582543601001  1.0000
  C   C60       1.0  0.8257682301492295  0.6388407654025556  0.9631567598555006  1.0000
  C   C61       1.0  0.23155293060295176  0.015702840382793702  0.7231121188271316  1.0000
  C   C62       1.0  0.17048937434638842  0.9730816108848473  0.751560743604166  1.0000
  C   C63       1.0  0.14589550284172503  0.9313351479812794  0.7168224392364664  1.0000
  C   C64       1.0  0.18156139213846254  0.9326337866919943  0.6546691618477067  1.0000
  C   C65       1.0  0.24317231805752468  0.9749822850194009  0.6260309191336332  1.0000
  C   C66       1.0  0.26772202577001997  0.016264429823643  0.6615402877059111  1.0000
  C   C67       1.0  0.13112036516574926  0.018881341783263405  0.30223331925046887  1.0000
  C   C68       1.0  0.15486800743349247  0.9750517200939088  0.2665839592039915  1.0000
  C   C69       1.0  0.21895286704665304  0.9324488432825363  0.28791334761125137  1.0000
  C   C70       1.0  0.25883671059796853  0.9338869579439973  0.3437900279201285  1.0000
  C   C71       1.0  0.23483791140111523  0.9766697487243617  0.38074945790829406  1.0000
  C   C72       1.0  0.17011309022317533  0.0188629774375855  0.3593096781269338  1.0000
  C   C73       1.0  0.8629000511911187  0.9402636975574267  0.7220915330455425  1.0000
  C   C74       1.0  0.8363848825281223  0.9828760903025965  0.7581779596143291  1.0000
  C   C75       1.0  0.7727889312505597  0.02570403156995131  0.7347205748965776  1.0000
  C   C76       1.0  0.7358183248680347  0.0252773462383615  0.676830979893971  1.0000
  C   C77       1.0  0.7621013197459308  0.9828834171901735  0.6401722747538015  1.0000
  C   C78       1.0  0.82658014067043  0.9408447066645922  0.6633843841990411  1.0000
  C   C79       1.0  0.8601478552779084  0.0239466540775979  0.3069635795302617  1.0000
  C   C80       1.0  0.8391866669440872  0.9790663296680435  0.27428654143198383  1.0000
  C   C81       1.0  0.7791966566889527  0.93495386960592  0.3029077564454353  1.0000
  C   C82       1.0  0.7404678420331053  0.9359740074938617  0.3627011562895673  1.0000
  C   C83       1.0  0.7616897615239467  0.9801261582678862  0.3963767864541054  1.0000
  C   C84       1.0  0.8222884357501529  0.0238769307666757  0.3676727006860076  1.0000
  O   O1        1.0  0.8643539165081648  0.9298386416987585  0.18789230388204445  1.0000
  O   O2        1.0  0.926775662539683  0.026516206497603903  0.18002074907909818  1.0000
  O   O3        1.0  0.14705614852308463  0.8102967080493075  0.052333360855342785  1.0000
  O   O4        1.0  0.08123199194583461  0.8160885756639684  0.9582747263478166  1.0000
  O   O5        1.0  0.12432196803271718  0.9215626667794298  0.18748648747384777  1.0000
  O   O6        1.0  0.07333119930645891  0.029489834245332195  0.17236302892425925  1.0000
  O   O7        1.0  0.8507523300334867  0.8250526935114664  0.0477883811585897  1.0000
  O   O8        1.0  0.9317124806058742  0.8154188068147264  0.9643689873796571  1.0000
  O   O9        1.0  0.9060141886955292  0.8074086505353293  0.17540099102711793  1.0000
  O   O10       1.0  0.7760945120317544  0.9064397257627804  0.09444734335941969  1.0000
  O   O11       1.0  0.10258496025185343  0.7999714975863129  0.18631988752215267  1.0000
  O   O12       1.0  0.2139115766388286  0.9080372268323701  0.0843695527353248  1.0000
  O   O13       1.0  0.001659870798277994  0.9479041215797113  0.10662231189063921  1.0000
  O   O14       1.0  0.0038828535537121  0.8492211797632195  0.06154285621142453  1.0000
  O   O15       1.0  0.8567008546201508  0.031145883069854094  0.8439679903934802  1.0000
  O   O16       1.0  0.9253340453842754  0.9346168128756603  0.846576580563095  1.0000
  O   O17       1.0  0.1354909350414744  0.1547101165216418  0.9516534329738064  1.0000
  O   O18       1.0  0.06970231227253981  0.1498957143057922  0.050451081389411505  1.0000
  O   O19       1.0  0.15317466318821724  0.014967000062085798  0.8447987712913587  1.0000
  O   O20       1.0  0.0749298495579609  0.934372627182604  0.8391713400483167  1.0000
  O   O21       1.0  0.8752853757512188  0.1659042298915949  0.9528030365924279  1.0000
  O   O22       1.0  0.9230615041462757  0.1487447524953609  0.05901623052275799  1.0000
  O   O23       1.0  0.8975039192425243  0.1624932446934437  0.829992662104672  1.0000
  O   O24       1.0  0.7873837878704607  0.0669925533470774  0.9445617255114271  1.0000
  O   O25       1.0  0.0949883683635733  0.1448109888728908  0.8307605113431148  1.0000
  O   O26       1.0  0.2254944883861256  0.058231208788655  0.9229715792583022  1.0000
  O   O27       1.0  0.9993564652697912  0.034583039446040686  0.8763101470176335  1.0000
  O   O28       1.0  0.9985935541829106  0.07945455392794538  0.9750407730769337  1.0000
  O   O29       1.0  0.9194803815287573  0.9504691049361822  0.9799029825990074  1.0000
  O   O30       1.0  0.115229047213333  0.021012863211822705  0.044571190229127894  1.0000
  O   O31       1.0  0.8846385883539016  0.022700708821233203  0.05320889969739537  1.0000
  O   O32       1.0  0.0835423567446583  0.9492210179796176  0.9738255080654948  1.0000
