data_image0
_chemical_formula_structural       Cd2H22C28S4N16Cl2O2
_chemical_formula_sum              "Cd2 H22 C28 S4 N16 Cl2 O2"
_cell_length_a       5.65434669807862
_cell_length_b       13.567787954929354
_cell_length_c       12.94602980316769
_cell_angle_alpha    90.35156853321921
_cell_angle_beta     86.97456127590014
_cell_angle_gamma    95.71967960995245

_space_group_name_H-M_alt    "P 1"
_space_group_IT_number       1

loop_
  _space_group_symop_operation_xyz
  'x, y, z'

loop_
  _atom_site_type_symbol
  _atom_site_label
  _atom_site_symmetry_multiplicity
  _atom_site_fract_x
  _atom_site_fract_y
  _atom_site_fract_z
  _atom_site_occupancy
  Cd  Cd1       1.0  0.012095271486664701  0.6674859572250328  0.7927047016185469  1.0000
  Cd  Cd2       1.0  0.987908431488897  0.33251568545616556  0.2072996513376637  1.0000
  H   H1        1.0  0.4687535205633324  0.811138957169753  0.488320842808875  1.0000
  H   H2        1.0  0.5312341273856376  0.1888524551802675  0.5116853969598694  1.0000
  H   H3        1.0  0.4109119996835133  0.005843350746857802  0.2316367151184479  1.0000
  H   H4        1.0  0.5891058981320965  0.9941521684590456  0.7683660531703609  1.0000
  H   H5        1.0  0.813826444415227  0.8998255972082135  0.16434847871987293  1.0000
  H   H6        1.0  0.18619462109153767  0.10017814396736921  0.8356514489805347  1.0000
  H   H7        1.0  0.03842947212835667  0.9993888118797258  0.1503622713564781  1.0000
  H   H8        1.0  0.9615761618077059  0.0006121255983871106  0.8496397557299458  1.0000
  H   H9        1.0  0.4902983186291863  0.8479698191373332  0.8855046696990881  1.0000
  H   H10       1.0  0.5097099408488434  0.1520364425494236  0.11449210632293469  1.0000
  H   H11       1.0  0.7989550242990759  0.772308224966288  0.0133344798124995  1.0000
  H   H12       1.0  0.20106203313821414  0.2276950853355686  0.98665687381677  1.0000
  H   H13       1.0  0.1381200468905206  0.6927464816934831  0.5373364579057592  1.0000
  H   H14       1.0  0.8618511512954751  0.30725341110996857  0.4626683110096437  1.0000
  H   H15       1.0  0.8703490538625259  0.6856944994253666  0.46933802310572037  1.0000
  H   H16       1.0  0.12962474950321481  0.31429886539741864  0.5306596150141657  1.0000
  H   H17       1.0  0.8205388941960547  0.5487939910255906  0.3245384755296569  1.0000
  H   H18       1.0  0.1794656856333107  0.45120326742683414  0.675462664244854  1.0000
  H   H19       1.0  0.458494485024687  0.4246305243773066  0.3745164263896185  1.0000
  H   H20       1.0  0.5414963963699292  0.5753705278277864  0.6254893375467744  1.0000
  H   H21       1.0  0.7310286645061339  0.7815712738833656  0.25333206482207515  1.0000
  H   H22       1.0  0.26895888784827787  0.21843226587245113  0.7466667625071395  1.0000
  C   C1        1.0  0.13372319200853866  0.8853591765224493  0.24933060755920872  1.0000
  C   C2        1.0  0.8662690026134146  0.11464659052605702  0.7506660013663761  1.0000
  C   C3        1.0  0.04514251098122197  0.8026876501024488  0.3093907841792997  1.0000
  C   C4        1.0  0.9548476211712538  0.1973159863783494  0.6906034211039935  1.0000
  C   C5        1.0  0.16664690873290056  0.7755152005873996  0.3952962612995918  1.0000
  C   C6        1.0  0.8333401014723163  0.22448544140738144  0.6047001555536297  1.0000
  C   C7        1.0  0.37688659687166376  0.8308912886734489  0.4206886277620612  1.0000
  C   C8        1.0  0.6231051969395551  0.16910468069188775  0.5793123541085875  1.0000
  C   C9        1.0  0.464472107768124  0.9133150340665355  0.36111651439451714  1.0000
  C   C10       1.0  0.5355325733785321  0.08668294366029981  0.6388854212519987  1.0000
  C   C11       1.0  0.34445792148436977  0.94011290078803  0.2760408757215486  1.0000
  C   C12       1.0  0.6555608633661549  0.05988416028375811  0.7239596192511185  1.0000
  C   C13       1.0  0.007711312173881955  0.9184524030563568  0.15793118223940886  1.0000
  C   C14       1.0  0.9923113447787482  0.08154917370392673  0.8420656008592218  1.0000
  C   C15       1.0  0.33161050073852744  0.846203286164119  0.9366964076492079  1.0000
  C   C16       1.0  0.6684095208426655  0.15380270208043362  0.063303572604859  1.0000
  C   C17       1.0  0.979496585953342  0.8068025422509069  0.9998189690089417  1.0000
  C   C18       1.0  0.020512185482182612  0.19320450070051015  0.00017628384899380297  1.0000
  C   C19       1.0  0.06484411720143876  0.6885535966575846  0.46059092473052476  1.0000
  C   C20       1.0  0.9351391577817407  0.3114425503121226  0.539408430984693  1.0000
  C   C21       1.0  0.9925146814719665  0.5343111160657515  0.35097885544539037  1.0000
  C   C22       1.0  0.007479347251589292  0.4656863059197249  0.6490221881714858  1.0000
  C   C23       1.0  0.3198140781957051  0.4745367445359606  0.37654869788467943  1.0000
  C   C24       1.0  0.6801784248364766  0.5254642597502085  0.6234578550900238  1.0000
  C   C25       1.0  0.5415935219806585  0.7636796146098136  0.6885759415125178  1.0000
  C   C26       1.0  0.45838389973762617  0.23631441497636985  0.3114225245319204  1.0000
  C   C27       1.0  0.4782999224802324  0.594329939511283  0.891501178800297  1.0000
  C   C28       1.0  0.5217027921431238  0.4056694420296267  0.1085046516000574  1.0000
  S   S1        1.0  0.22356077903035035  0.5268275628386621  0.8946926895579422  1.0000
  S   S2        1.0  0.7764497150083824  0.4731644896806558  0.10530526225370807  1.0000
  S   S3        1.0  0.8117583659475398  0.817989352824064  0.6832769807838515  1.0000
  S   S4        1.0  0.1882339042583822  0.18200809641691518  0.31672404680674754  1.0000
  N   N1        1.0  0.09283125244184726  0.8746069531239513  0.061023965976744386  1.0000
  N   N2        1.0  0.9071978910610452  0.12539443196063627  0.9389759732751057  1.0000
  N   N3        1.0  0.31912127930652184  0.900436751493949  0.022370513649441596  1.0000
  N   N4        1.0  0.6808928890097761  0.09956711936708018  0.9776285769338455  1.0000
  N   N5        1.0  0.12652237179852924  0.7876401412495754  0.9197984426869964  1.0000
  N   N6        1.0  0.873499139911246  0.21236296330526733  0.08019759709328159  1.0000
  N   N7        1.0  0.12094501379799989  0.5942799536070567  0.4145670681179964  1.0000
  N   N8        1.0  0.8790427510204495  0.40571528900464676  0.5854354048641922  1.0000
  N   N9        1.0  0.33149291651824336  0.557757864921399  0.4314660402276828  1.0000
  N   N10       1.0  0.6684849406608677  0.4422411582587813  0.568539542944876  1.0000
  N   N11       1.0  0.11377850905911657  0.45718724644172687  0.32552060642431246  1.0000
  N   N12       1.0  0.8862058346702497  0.5428115850627719  0.6744881329014589  1.0000
  N   N13       1.0  0.6613062679423364  0.645435822081666  0.8911486696019962  1.0000
  N   N14       1.0  0.33869744521433615  0.35457174669418373  0.10885662321977917  1.0000
  N   N15       1.0  0.3458626802500717  0.7226758084478464  0.6899830592994292  1.0000
  N   N16       1.0  0.6541459494953584  0.27732247263812587  0.31000652418085645  1.0000
  Cl  Cl1       1.0  0.7172999753326363  0.9864890033217365  0.39551747844201657  1.0000
  Cl  Cl2       1.0  0.2826907945635924  0.013505403514301401  0.6044865497568139  1.0000
  O   O1        1.0  0.8404126858391691  0.7442320725462039  0.2891543826768411  1.0000
  O   O2        1.0  0.15958420662371248  0.2557714135857339  0.7108414327356056  1.0000
