data_image0
_chemical_formula_structural       Zn2H18C20N6O12
_chemical_formula_sum              "Zn2 H18 C20 N6 O12"
_cell_length_a       7.145442041889559
_cell_length_b       7.42947505301254
_cell_length_c       12.591273178564984
_cell_angle_alpha    104.9646750876795
_cell_angle_beta     93.64816575476543
_cell_angle_gamma    113.71621985489192

_space_group_name_H-M_alt    "P 1"
_space_group_IT_number       1

loop_
  _space_group_symop_operation_xyz
  'x, y, z'

loop_
  _atom_site_type_symbol
  _atom_site_label
  _atom_site_symmetry_multiplicity
  _atom_site_fract_x
  _atom_site_fract_y
  _atom_site_fract_z
  _atom_site_occupancy
  Zn  Zn1       1.0  0.2805193742395247  0.268394100480819  0.9609118639995984  1.0000
  Zn  Zn2       1.0  0.7194821242956522  0.7316028986880383  0.03908693947968794  1.0000
  H   H1        1.0  0.6233976466248592  0.32858337997630827  0.05326952616900367  1.0000
  H   H2        1.0  0.37660245051141317  0.6714136213299399  0.9467292261509995  1.0000
  H   H3        1.0  0.6656173065007707  0.3242657311046385  0.9226822584243805  1.0000
  H   H4        1.0  0.3343821127342679  0.6757297235502906  0.0773162349792571  1.0000
  H   H5        1.0  0.1574321738286883  0.8815567036437316  0.9740849010068897  1.0000
  H   H6        1.0  0.8425679238242479  0.11844029528995043  0.025913056770832582  1.0000
  H   H7        1.0  0.3071427076739752  0.898106545788025  0.8845647282751654  1.0000
  H   H8        1.0  0.6928594682457856  0.10189200240472471  0.11543512866275309  1.0000
  H   H9        1.0  0.07811697284361682  0.31064406054414223  0.2712938482070157  1.0000
  H   H10       1.0  0.9218858353809694  0.6893591297399482  0.7287067343207028  1.0000
  H   H11       1.0  0.9951953287888242  0.3089663471792932  0.46265670331481346  1.0000
  H   H12       1.0  0.0048033213521351086  0.6910337517043745  0.5373424645193481  1.0000
  H   H13       1.0  0.4907996310814723  0.25905452614421887  0.7074139735161609  1.0000
  H   H14       1.0  0.5092024541621072  0.7409502105560223  0.2925860222263665  1.0000
  H   H15       1.0  0.5234520916273695  0.18872671493599572  0.5381109249570599  1.0000
  H   H16       1.0  0.4765444786967733  0.8112718418063096  0.4618887273437408  1.0000
  H   H17       1.0  0.6056623037357552  0.19808595750350833  0.35041450787586825  1.0000
  H   H18       1.0  0.3943356674706279  0.8019125994739654  0.6495859901264893  1.0000
  C   C1        1.0  0.4013533218673899  0.26597301868948625  0.18799901395011173  1.0000
  C   C2        1.0  0.5986474060237229  0.7340286318258081  0.8120028475865269  1.0000
  C   C3        1.0  0.3479828181943248  0.2567920277195271  0.3003883512859673  1.0000
  C   C4        1.0  0.6520186342277723  0.7432080692619253  0.6996117134090338  1.0000
  C   C5        1.0  0.1742906165776432  0.28562189605553817  0.33131303341527735  1.0000
  C   C6        1.0  0.8257121460505134  0.7143843896685811  0.6686880157858823  1.0000
  C   C7        1.0  0.12717256464515708  0.2831855685691451  0.43669443535592467  1.0000
  C   C8        1.0  0.8728288426971886  0.71681762147977  0.563305301470244  1.0000
  C   C9        1.0  0.25420165119039945  0.24966272302741294  0.511017039319114  1.0000
  C   C10       1.0  0.7457976768517939  0.7503389225075737  0.48898238743141315  1.0000
  C   C11       1.0  0.05393495126788389  0.2504321837775478  0.7555495797292264  1.0000
  C   C12       1.0  0.9460643762576451  0.7495694641300047  0.24445064156357416  1.0000
  C   C13       1.0  0.3361682073332446  0.25302196571396257  0.7069470697652137  1.0000
  C   C14       1.0  0.6638338779103419  0.7469827709862716  0.2930529259773067  1.0000
  C   C15       1.0  0.9052559452857736  0.24557062975628702  0.8346827383619697  1.0000
  C   C16       1.0  0.09474491939459277  0.7544217344389211  0.16531772315434515  1.0000
  C   C17       1.0  0.42581980525486773  0.21688377044718277  0.4806361685806664  1.0000
  C   C18       1.0  0.5741809236695655  0.7831178753229792  0.5193641038714104  1.0000
  C   C19       1.0  0.47226446017745616  0.2219819350840524  0.3757463424337857  1.0000
  C   C20       1.0  0.5277334654325114  0.7780197173334571  0.624254622242013  1.0000
  N   N1        1.0  0.21146533402570356  0.250564495899269  0.6197345831697021  1.0000
  N   N2        1.0  0.7885339934998256  0.7494371520082835  0.38026563812309877  1.0000
  N   N3        1.0  0.031132671285867303  0.250318104954502  0.6499147389967277  1.0000
  N   N4        1.0  0.9688659778217641  0.7496819986742979  0.35008601792198846  1.0000
  N   N5        1.0  0.23913464261563175  0.25242999580238035  0.7928931301201485  1.0000
  N   N6        1.0  0.7608646843932402  0.7475716544777383  0.20710788571493302  1.0000
  O   O1        1.0  0.6118105711947875  0.38378772047326504  0.9891511065232804  1.0000
  O   O2        1.0  0.3881895259414846  0.6162092808329831  0.010847645796722758  1.0000
  O   O3        1.0  0.2769649763001921  0.2939987176389351  0.12421459587578446  1.0000
  O   O4        1.0  0.7230399568209547  0.7060029217190615  0.8757858300541415  1.0000
  O   O5        1.0  0.5676433124675737  0.25260590219505735  0.16515089043672043  1.0000
  O   O6        1.0  0.43236021873800473  0.7473957416728896  0.834850278876196  1.0000
  O   O7        1.0  0.9672742887748099  0.23401716235947126  0.9295960115212905  1.0000
  O   O8        1.0  0.03272097185993774  0.765975203267594  0.07040186173107087  1.0000
  O   O9        1.0  0.7378535664099174  0.2536604084538184  0.8064614033286189  1.0000
  O   O10       1.0  0.2621416030319849  0.7463381480533043  0.19353740327061786  1.0000
  O   O11       1.0  0.21289770754628284  0.9536179508439135  0.9187821610049552  1.0000
  O   O12       1.0  0.7871009881910922  0.04637905259972539  0.08121654015577207  1.0000
