data_image0
_chemical_formula_structural       Nd4H32C28N4O32
_chemical_formula_sum              "Nd4 H32 C28 N4 O32"
_cell_length_a       7.744650591622226
_cell_length_b       9.2578706171435
_cell_length_c       15.549730199233512
_cell_angle_alpha    100.52591165017311
_cell_angle_beta     89.99962784663825
_cell_angle_gamma    89.99867355839613

_space_group_name_H-M_alt    "P 1"
_space_group_IT_number       1

loop_
  _space_group_symop_operation_xyz
  'x, y, z'

loop_
  _atom_site_type_symbol
  _atom_site_label
  _atom_site_symmetry_multiplicity
  _atom_site_fract_x
  _atom_site_fract_y
  _atom_site_fract_z
  _atom_site_occupancy
  Nd  Nd1       1.0  0.17473648492315874  0.9878002883984042  0.7465160720807873  1.0000
  Nd  Nd2       1.0  0.6747268333505546  0.5122078463618392  0.7534789899087075  1.0000
  Nd  Nd3       1.0  0.825264436538376  0.012197083003627497  0.2534818228906844  1.0000
  Nd  Nd4       1.0  0.3252715055697095  0.4877972081677911  0.24651993876346276  1.0000
  H   H1        1.0  0.455415220659809  0.9865921607710818  0.5905372317766792  1.0000
  H   H2        1.0  0.9553878172168738  0.5134831260852125  0.9094874357472664  1.0000
  H   H3        1.0  0.5445947386261808  0.013448823945189798  0.4094703933017173  1.0000
  H   H4        1.0  0.04460793909167651  0.48653003243877885  0.0905215953478589  1.0000
  H   H5        1.0  0.31707029674065984  0.09475486883697931  0.5652489082796919  1.0000
  H   H6        1.0  0.8170639774143639  0.4052870235523046  0.9347584433314751  1.0000
  H   H7        1.0  0.6829319156009036  0.905266939461278  0.4347484121329899  1.0000
  H   H8        1.0  0.18294598250070493  0.5947111069811795  0.06524405981283368  1.0000
  H   H9        1.0  0.9196883069654049  0.1481256838581757  0.8978833133703858  1.0000
  H   H10       1.0  0.41968311576536627  0.35187849775591923  0.6021245123824173  1.0000
  H   H11       1.0  0.0803022848835653  0.8518638112034084  0.10211609680598602  1.0000
  H   H12       1.0  0.5803178056559731  0.6481209721435448  0.39787495236614495  1.0000
  H   H13       1.0  0.8783219464961152  0.1796618592549707  0.8005837490637049  1.0000
  H   H14       1.0  0.3783097846558975  0.3203503900518996  0.6994316983897022  1.0000
  H   H15       1.0  0.12167122777204041  0.8203288300394576  0.19941453434053363  1.0000
  H   H16       1.0  0.6216898455530855  0.6796464979929412  0.30057256876491323  1.0000
  H   H17       1.0  0.5085931193751777  0.8460217459143563  0.7864183560963911  1.0000
  H   H18       1.0  0.008586648054056003  0.6539761860249415  0.7135680063232143  1.0000
  H   H19       1.0  0.4914090930645045  0.1539921859350883  0.2135804794942473  1.0000
  H   H20       1.0  0.9914142735148275  0.346010823734261  0.28643493179294677  1.0000
  H   H21       1.0  0.5166100461215778  0.8202190886397532  0.6861459455037818  1.0000
  H   H22       1.0  0.016605306182199808  0.6797621629577862  0.8138387972464117  1.0000
  H   H23       1.0  0.48338829294861796  0.17977613595486733  0.31385101691531503  1.0000
  H   H24       1.0  0.9834046538294957  0.3202306729950521  0.18616041867315403  1.0000
  H   H25       1.0  0.4863419474563102  0.3803576435469651  0.014793301544187884  1.0000
  H   H26       1.0  0.986358302731851  0.1196439538642338  0.4852129197563784  1.0000
  H   H27       1.0  0.5136563913363402  0.6196523188667129  0.9852140120965418  1.0000
  H   H28       1.0  0.013643910005313802  0.8803476879099463  0.5147874229487854  1.0000
  H   H29       1.0  0.27010557908046456  0.006999361634534298  0.1072410103365939  1.0000
  H   H30       1.0  0.7701335859654466  0.49299685997477366  0.3927508435395666  1.0000
  H   H31       1.0  0.7298850126170819  0.9930025452302259  0.8927555636901519  1.0000
  H   H32       1.0  0.22987895653422902  0.5069928282048367  0.6072460177076309  1.0000
  C   C1        1.0  0.39969567214328794  0.28169439798166723  0.8428397047488547  1.0000
  C   C2        1.0  0.8997075175540488  0.21830705516447318  0.6571658705956409  1.0000
  C   C3        1.0  0.6003026667382583  0.7183101731772298  0.15716559610309838  1.0000
  C   C4        1.0  0.10029985989165621  0.7816957557616958  0.3428333999298019  1.0000
  C   C5        1.0  0.37252384059087973  0.2078554559455057  0.9198354102262487  1.0000
  C   C6        1.0  0.8725308676235812  0.29214270869639586  0.5801627068064903  1.0000
  C   C7        1.0  0.6274706247612728  0.7921440140216801  0.08016405453915347  1.0000
  C   C8        1.0  0.1274687626464512  0.7078497406682162  0.4198416068838427  1.0000
  C   C9        1.0  0.4220087687419181  0.27416010978449634  0.003256050578023893  1.0000
  C   C10       1.0  0.9220233141182987  0.22582919715927113  0.4967403028029907  1.0000
  C   C11       1.0  0.5779844054574426  0.7258349215160108  0.9967434607264566  1.0000
  C   C12       1.0  0.0779737336831161  0.7741666416639389  0.503263179469819  1.0000
  C   C13       1.0  0.3823728427911631  0.20396123178553444  0.0742032324198973  1.0000
  C   C14       1.0  0.8823980786429928  0.2960305700942243  0.4258006324531252  1.0000
  C   C15       1.0  0.6176151665821834  0.7960302651264186  0.9257990219762535  1.0000
  C   C16       1.0  0.11760671638352702  0.7039710465990937  0.5741997648444439  1.0000
  C   C17       1.0  0.30176701649224924  0.06447070880263078  0.0542413525890169  1.0000
  C   C18       1.0  0.801786819057611  0.4355213625120414  0.44575244199074865  1.0000
  C   C19       1.0  0.6982209927945959  0.935528809569355  0.9457574749752453  1.0000
  C   C20       1.0  0.19821797611035663  0.5644716185062036  0.5542448622883569  1.0000
  C   C21       1.0  0.25847078734015844  0.0059219368717435975  0.9682484083004042  1.0000
  C   C22       1.0  0.7584793757710814  0.49407771641452297  0.5317476072016376  1.0000
  C   C23       1.0  0.7415262603577802  0.9940843119313739  0.031749393609743416  1.0000
  C   C24       1.0  0.24152412813049304  0.5059185090375564  0.4682507773105088  1.0000
  C   C25       1.0  0.16573710087816812  0.8602696272647491  0.9411873189989848  1.0000
  C   C26       1.0  0.6657434824513827  0.6397315447468298  0.5587997468068409  1.0000
  C   C27       1.0  0.8342676942095578  0.13973405375584488  0.0588004816095875  1.0000
  C   C28       1.0  0.3342548567106718  0.3602531248566692  0.44120480762885717  1.0000
  N   N1        1.0  0.29174873444668503  0.07691472636013688  0.9016430904030913  1.0000
  N   N2        1.0  0.791748007307653  0.42308737657964474  0.5983551061775148  1.0000
  N   N3        1.0  0.7082508956518226  0.9230911840563748  0.09835917202616429  1.0000
  N   N4        1.0  0.20825420542802683  0.576906847062702  0.4016404341249569  1.0000
  O   O1        1.0  0.3180431464681491  0.2272123566637703  0.7724501373700863  1.0000
  O   O2        1.0  0.8180356960854951  0.2728054167761941  0.7275533231982367  1.0000
  O   O3        1.0  0.6819487362662003  0.7727990417629514  0.2275528634322086  1.0000
  O   O4        1.0  0.18198588461115855  0.7272039311786288  0.2724474705315245  1.0000
  O   O5        1.0  0.4981556014572419  0.39207612472601727  0.8506204914435005  1.0000
  O   O6        1.0  0.9981499508903015  0.10793338281552418  0.6493827132254568  1.0000
  O   O7        1.0  0.501850484807825  0.60792320010804  0.14938088494552204  1.0000
  O   O8        1.0  0.0018354760631141005  0.8920582107976641  0.3506182667414706  1.0000
  O   O9        1.0  0.12825678007364877  0.8276538683381319  0.8593041654061153  1.0000
  O   O10       1.0  0.6282339772797697  0.6723481386752255  0.6406824587930444  1.0000
  O   O11       1.0  0.8717648007753314  0.17234827988691853  0.1406892224499074  1.0000
  O   O12       1.0  0.3717514497973866  0.3276384987168441  0.359310773423296  1.0000
  O   O13       1.0  0.12934623576077806  0.7807299268148356  0.9965137737360976  1.0000
  O   O14       1.0  0.6293602445946578  0.7192649880694831  0.5034783308397195  1.0000
  O   O15       1.0  0.8706378999579558  0.21926400699469883  0.003485589921396592  1.0000
  O   O16       1.0  0.3706368031318732  0.2807390172249812  0.49651981294727693  1.0000
  O   O17       1.0  0.4183743248284629  0.2658842107661457  0.15519828943718045  1.0000
  O   O18       1.0  0.9183908065778823  0.2341014929560643  0.344802737631838  1.0000
  O   O19       1.0  0.5816123931447805  0.7341192629288713  0.8448068637745152  1.0000
  O   O20       1.0  0.08161915355054822  0.7658849991674188  0.655192406174443  1.0000
  O   O21       1.0  0.3346562016739369  0.015358277915630896  0.5981151607259678  1.0000
  O   O22       1.0  0.83465590287706  0.4846495728151866  0.9018682571262246  1.0000
  O   O23       1.0  0.6653434285259863  0.9846475983307174  0.4018729352372077  1.0000
  O   O24       1.0  0.16534114459351207  0.5153655391814596  0.098144255396555  1.0000
  O   O25       1.0  0.9384351141620614  0.11121811994096482  0.834113115838342  1.0000
  O   O26       1.0  0.43842799331387994  0.38879864605578973  0.6658989330359262  1.0000
  O   O27       1.0  0.06155935149845251  0.8887604958962572  0.16588354318631104  1.0000
  O   O28       1.0  0.5615806754120598  0.6111971926455125  0.3341045492065717  1.0000
  O   O29       1.0  0.46409504871039076  0.8907423797761209  0.736041330488753  1.0000
  O   O30       1.0  0.9640864376916128  0.6092461405060519  0.763940743924657  1.0000
  O   O31       1.0  0.5359110374635633  0.1092662091149776  0.2639548550850179  1.0000
  O   O32       1.0  0.0359196486020394  0.3907509408193519  0.23606097434120704  1.0000
