data_image0
_chemical_formula_structural       Zr6H28C50Cl2O52
_chemical_formula_sum              "Zr6 H28 C50 Cl2 O52"
_cell_length_a       14.850187513638168
_cell_length_b       14.862537498661647
_cell_length_c       14.860636985060683
_cell_angle_alpha    60.023507771310214
_cell_angle_beta     59.99230761132348
_cell_angle_gamma    59.97833054010786

_space_group_name_H-M_alt    "P 1"
_space_group_IT_number       1

loop_
  _space_group_symop_operation_xyz
  'x, y, z'

loop_
  _atom_site_type_symbol
  _atom_site_label
  _atom_site_symmetry_multiplicity
  _atom_site_fract_x
  _atom_site_fract_y
  _atom_site_fract_z
  _atom_site_occupancy
  Zr  Zr1       1.0  0.8803269105263354  0.8811678788723754  0.6192411359368819  1.0000
  Zr  Zr2       1.0  0.11736423103187826  0.11880942791861325  0.38141318591329554  1.0000
  Zr  Zr3       1.0  0.11739585775605103  0.8821683134043354  0.6181553035887503  1.0000
  Zr  Zr4       1.0  0.8802849139472855  0.11986125564258301  0.3805714231993136  1.0000
  Zr  Zr5       1.0  0.11665711054447296  0.8821131108223385  0.3814865466640854  1.0000
  Zr  Zr6       1.0  0.8802277311755591  0.11898331749321743  0.6182751316619813  1.0000
  H   H1        1.0  0.09245176125888581  0.7200319210022387  0.5932322259970348  1.0000
  H   H2        1.0  0.09231223591701372  0.0939016044316361  0.21935284878617264  1.0000
  H   H3        1.0  0.09262591347074094  0.0939451774476865  0.5931587772763506  1.0000
  H   H4        1.0  0.7174891286867435  0.09428423866502553  0.5936357862256258  1.0000
  H   H5        1.0  0.7496573633778995  0.6287324793850574  0.959237966577696  1.0000
  H   H6        1.0  0.835731564584748  0.5438699595869281  0.874069222337681  1.0000
  H   H7        1.0  0.835664857930027  0.3753801617950503  0.04246443487473795  1.0000
  H   H8        1.0  0.7493824136402125  0.46048149169672575  0.12737832504153365  1.0000
  H   H9        1.0  0.14681131933868127  0.3514583813447842  0.34320419694490295  1.0000
  H   H10       1.0  0.8478389606351014  0.6531834271218318  0.6529458995902929  1.0000
  H   H11       1.0  0.14877364988674885  0.6558641324046308  0.34359652613833447  1.0000
  H   H12       1.0  0.8452346524603412  0.3484166718606617  0.6531418234497082  1.0000
  H   H13       1.0  0.3461474058631707  0.15169173964702057  0.15395739677745726  1.0000
  H   H14       1.0  0.6598496872586846  0.8415792465319217  0.8527042382791236  1.0000
  H   H15       1.0  0.6532647997082323  0.15146862888285992  0.8496703452138233  1.0000
  H   H16       1.0  0.351289188282024  0.842425691787419  0.15651484918930705  1.0000
  H   H17       1.0  0.8452610064090678  0.15401567628026672  0.8476279903121124  1.0000
  H   H18       1.0  0.14863061444886913  0.8442339695209642  0.1553867287279616  1.0000
  H   H19       1.0  0.8476624903860212  0.15371522006693544  0.1525613686815036  1.0000
  H   H20       1.0  0.1466826913173591  0.8438718008394231  0.8509181456910252  1.0000
  H   H21       1.0  0.3511888865299324  0.6573528853775272  0.3417001235430277  1.0000
  H   H22       1.0  0.6532876534239307  0.35011526404473164  0.6507948151128035  1.0000
  H   H23       1.0  0.6597132101096291  0.35335738076246775  0.3408538508536978  1.0000
  H   H24       1.0  0.3462084550044153  0.6545483364502404  0.6510552901810626  1.0000
  H   H25       1.0  0.3491006987186296  0.8450749044406936  0.6495933529267148  1.0000
  H   H26       1.0  0.6547557648822604  0.15058336728969118  0.3443644831029857  1.0000
  H   H27       1.0  0.6547926200926213  0.8451454494198815  0.6497267922159935  1.0000
  H   H28       1.0  0.34914306989531957  0.15064976258452142  0.34400004358828795  1.0000
  C   C1        1.0  0.996847331870292  0.6964459359396005  0.4971046840671389  1.0000
  C   C2        1.0  0.3082410497261346  0.9964501618916445  0.1965673739289286  1.0000
  C   C3        1.0  0.9960375023324914  0.30885872418286897  0.49861706881008416  1.0000
  C   C4        1.0  0.6963336453081365  0.9972990529450599  0.8096901530296775  1.0000
  C   C5        1.0  0.9970482629690236  0.7014822444584681  0.8043850108934761  1.0000
  C   C6        1.0  0.6956554578512808  0.9977951932296636  0.49707764337041727  1.0000
  C   C7        1.0  0.9967424957514908  0.3051391075195511  0.20083520292194373  1.0000
  C   C8        1.0  0.3083691692439741  0.9976471897118273  0.4966714837824212  1.0000
  C   C9        1.0  0.3082483999263772  0.697261045547329  0.49580862344349436  1.0000
  C   C10       1.0  0.9960463700920315  0.9994452665252853  0.8081672356044008  1.0000
  C   C11       1.0  0.69623935870883  0.31029634151423113  0.4966130507224378  1.0000
  C   C12       1.0  0.9967281985018203  0.9977475324108909  0.19588385801900904  1.0000
  C   C13       1.0  0.9968158444835139  0.4065555421106384  0.4990241310924545  1.0000
  C   C14       1.0  0.9977504536937258  0.5970694063906806  0.4985264069452101  1.0000
  C   C15       1.0  0.0796018710483465  0.45495172854819543  0.41500199922005265  1.0000
  C   C16       1.0  0.9161852729444955  0.5474102038930865  0.5837539589491811  1.0000
  C   C17       1.0  0.07999038973913733  0.5494498288904169  0.41470351610551853  1.0000
  C   C18       1.0  0.9152993088750417  0.45351746453922454  0.583644280799284  1.0000
  C   C19       1.0  0.4071438011136122  0.9961804433158508  0.09876959970603148  1.0000
  C   C20       1.0  0.5987259830534413  0.9963025396248849  0.9085673949968438  1.0000
  C   C21       1.0  0.45394655383804416  0.08053253996566671  0.04998566189034655  1.0000
  C   C22       1.0  0.5522969206029131  0.9115272543832661  0.9578033903564033  1.0000
  C   C23       1.0  0.5487270936228797  0.08072366677018278  0.9555833152362609  1.0000
  C   C24       1.0  0.4570517015966542  0.9118799926843906  0.051454580208620544  1.0000
  C   C25       1.0  0.9967026845092587  0.999705027622291  0.905992141401896  1.0000
  C   C26       1.0  0.9975657407075644  0.9991660929126668  0.0965626784139958  1.0000
  C   C27       1.0  0.9151933683726626  0.08435570248539649  0.9529230224783374  1.0000
  C   C28       1.0  0.07979043009414943  0.9152654640869502  0.048996385392832915  1.0000
  C   C29       1.0  0.9160216897897087  0.08444807443677864  0.046837380240219724  1.0000
  C   C30       1.0  0.07942488956089695  0.9155691396694722  0.9545010475826883  1.0000
  C   C31       1.0  0.4071614264015081  0.5994724134702738  0.49546896189772843  1.0000
  C   C32       1.0  0.598702305991779  0.40923925860047217  0.4955560312052825  1.0000
  C   C33       1.0  0.45703210072972666  0.5522361685284525  0.41110472532781717  1.0000
  C   C34       1.0  0.548753097450536  0.4561777823108388  0.5800385475231948  1.0000
  C   C35       1.0  0.5522628856291475  0.45854194396154896  0.41073217254410815  1.0000
  C   C36       1.0  0.45399402553565693  0.5506012495939105  0.5798498022647891  1.0000
  C   C37       1.0  0.0027563202500360995  0.6006964232071966  0.9036852626376227  1.0000
  C   C38       1.0  0.0025001907544747364  0.4044676736293411  0.1000512197903447  1.0000
  C   C39       1.0  0.9238352112797797  0.5494533576294603  0.9546665399735869  1.0000
  C   C40       1.0  0.08561011391167032  0.45358940462053704  0.04879609805736614  1.0000
  C   C41       1.0  0.9236895488685519  0.4555960722071148  0.04861201991352008  1.0000
  C   C42       1.0  0.08570812171351608  0.5493312169461932  0.9530209012999787  1.0000
  C   C43       1.0  0.8223268674916115  0.5553439433689391  0.9479166256676307  1.0000
  C   C44       1.0  0.822187326738572  0.44914941197109215  0.0541149151579889  1.0000
  C   C45       1.0  0.4064821518878576  0.9978310911848636  0.49685992573976995  1.0000
  C   C46       1.0  0.5973843026732056  0.9978691639377145  0.4970301095302147  1.0000
  C   C47       1.0  0.45448826226358097  0.914829665672322  0.5802847967116875  1.0000
  C   C48       1.0  0.5489988126615657  0.08123084778615919  0.4139985875119905  1.0000
  C   C49       1.0  0.548998892510575  0.9148577567581172  0.5803638386059475  1.0000
  C   C50       1.0  0.45444295115184014  0.08126390002745873  0.4139415293256476  1.0000
  Cl  Cl1       1.0  0.19159740682422907  0.400648993846808  0.09727040124642636  1.0000
  Cl  Cl2       1.0  0.19167771076479298  0.5977247929819287  0.9003245534722095  1.0000
  O   O1        1.0  0.9207588264097382  0.739500392821185  0.5729865362914949  1.0000
  O   O2        1.0  0.26467185006335114  0.0729909055883482  0.2388935381510535  1.0000
  O   O3        1.0  0.07223845093954386  0.26571130357148576  0.4230204765273626  1.0000
  O   O4        1.0  0.7390105465953806  0.9216774782356368  0.7663708833243135  1.0000
  O   O5        1.0  0.06942418190611485  0.7472947535101542  0.7607073451621387  1.0000
  O   O6        1.0  0.7381340153597689  0.07425095235709013  0.42136331716601905  1.0000
  O   O7        1.0  0.9195329090179598  0.2673268990027394  0.23656122387983206  1.0000
  O   O8        1.0  0.2651988288027308  0.9218843349919582  0.5730167819996053  1.0000
  O   O9        1.0  0.2648351566850095  0.7393148462323256  0.42031308014656327  1.0000
  O   O10       1.0  0.9197646184953642  0.07564170433329326  0.7654197823971741  1.0000
  O   O11       1.0  0.7378504643764501  0.26659284938479294  0.5738217879190586  1.0000
  O   O12       1.0  0.07262427986811533  0.921232923765075  0.23888080453667737  1.0000
  O   O13       1.0  0.07227117635545693  0.9238392968543894  0.7650088237762915  1.0000
  O   O14       1.0  0.7388280550342756  0.2669304950425087  0.4210494189476037  1.0000
  O   O15       1.0  0.9206052438254915  0.07362294066175684  0.23896346671250507  1.0000
  O   O16       1.0  0.2647518187114457  0.7396075429092975  0.5723209808934582  1.0000
  O   O17       1.0  0.9198742444732063  0.7372099736942984  0.7665002253677783  1.0000
  O   O18       1.0  0.2651996195371494  0.07394247749501665  0.42088590656186387  1.0000
  O   O19       1.0  0.06919225788508489  0.26136985517893413  0.24660729949045654  1.0000
  O   O20       1.0  0.7381733676261103  0.9220297093760197  0.5735083799203905  1.0000
  O   O21       1.0  0.737916155736663  0.07450093427365805  0.7660128181411989  1.0000
  O   O22       1.0  0.07266855861881526  0.7394743684355307  0.42055409367989677  1.0000
  O   O23       1.0  0.26492715739441747  0.9209013242073922  0.2386369080903705  1.0000
  O   O24       1.0  0.9196641221827588  0.26625518355855604  0.5747042637568143  1.0000
  O   O25       1.0  0.7975082006544195  0.06762174074490464  0.5670309898204949  1.0000
  O   O26       1.0  0.06570899945565159  0.06742133038288498  0.5666555694709173  1.0000
  O   O27       1.0  0.06557464715939433  0.06650517908244072  0.29927199192463405  1.0000
  O   O28       1.0  0.06564821019551208  0.7999570822159825  0.5658460434573627  1.0000
  O   O29       1.0  0.14700821106157466  0.9507899625808705  0.45013236066580475  1.0000
  O   O30       1.0  0.9490100096112285  0.9513460768250043  0.45076173468532243  1.0000
  O   O31       1.0  0.9489971216356353  0.14794079180526148  0.45110565846125894  1.0000
  O   O32       1.0  0.9490596361417897  0.9517780598094137  0.647262256567572  1.0000
  O   O33       1.0  0.1599212344329359  0.4157116862739442  0.33258225841325384  1.0000
  O   O34       1.0  0.8373554627038972  0.5857329132072381  0.6676099049005516  1.0000
  O   O35       1.0  0.16067915251474565  0.5901918799387573  0.33204252578611454  1.0000
  O   O36       1.0  0.8349879843288973  0.41223996162914756  0.6666208914704298  1.0000
  O   O37       1.0  0.4120415521592874  0.16335350263254608  0.08882117406048454  1.0000
  O   O38       1.0  0.595339575371597  0.8280511370337393  0.9190602836705394  1.0000
  O   O39       1.0  0.5868554680068172  0.16395369302378532  0.9143160412226476  1.0000
  O   O40       1.0  0.4177967944547729  0.8295987525077991  0.09200237453151784  1.0000
  O   O41       1.0  0.8349546641276006  0.16742379055300913  0.9115143978584896  1.0000
  O   O42       1.0  0.1604853161196117  0.8325814517178359  0.089797266295662  1.0000
  O   O43       1.0  0.8371760849452912  0.1683328521082856  0.0851401783398984  1.0000
  O   O44       1.0  0.15973010147802563  0.8331239994350385  0.9152634236016579  1.0000
  O   O45       1.0  0.4177484889723431  0.592898304342576  0.3287849955052308  1.0000
  O   O46       1.0  0.5869099593494768  0.4148119771547061  0.663289216592254  1.0000
  O   O47       1.0  0.5952622679501047  0.4197985639979791  0.3272738714386492  1.0000
  O   O48       1.0  0.4120698821566507  0.5893577587436097  0.6627318897342819  1.0000
  O   O49       1.0  0.41422249087988633  0.8335248907757276  0.6619148448133599  1.0000
  O   O50       1.0  0.5889296209639099  0.1629251400023577  0.3327177317929113  1.0000
  O   O51       1.0  0.5888980602894943  0.833583908991372  0.662102730429069  1.0000
  O   O52       1.0  0.41414858259870624  0.16299226940424918  0.3326591381042761  1.0000
