data_image0
_chemical_formula_structural       Al4H44C60O28
_chemical_formula_sum              "Al4 H44 C60 O28"
_cell_length_a       6.719026914885246
_cell_length_b       20.241637164862603
_cell_length_c       23.132319503652045
_cell_angle_alpha    93.43292445221547
_cell_angle_beta     90.9923844567246
_cell_angle_gamma    90.63454754195638

_space_group_name_H-M_alt    "P 1"
_space_group_IT_number       1

loop_
  _space_group_symop_operation_xyz
  'x, y, z'

loop_
  _atom_site_type_symbol
  _atom_site_label
  _atom_site_symmetry_multiplicity
  _atom_site_fract_x
  _atom_site_fract_y
  _atom_site_fract_z
  _atom_site_occupancy
  Al  Al1       1.0  0.7393322169953507  0.24795402972010552  0.7486942734458355  1.0000
  Al  Al2       1.0  0.24503876773690783  0.7532801378695737  0.24897636216173422  1.0000
  Al  Al3       1.0  0.23816402956181545  0.2519291017298642  0.7489828394910347  1.0000
  Al  Al4       1.0  0.7445575720938179  0.7516227538961787  0.2503420145106787  1.0000
  H   H1        1.0  0.7150351054622915  0.9856491694148133  0.5547321423514688  1.0000
  H   H2        1.0  0.26814077865832076  0.9183906218638141  0.5078881905273179  1.0000
  H   H3        1.0  0.31948199229206853  0.4019113638655654  0.0161499656521755  1.0000
  H   H4        1.0  0.7345025213708637  0.5857517691626413  0.9929902570011536  1.0000
  H   H5        1.0  0.3317045391606753  0.03722688664830541  0.5346457328295955  1.0000
  H   H6        1.0  0.752525295839476  0.0149123477599105  0.43854328768826173  1.0000
  H   H7        1.0  0.6730115276694589  0.5348376773046368  0.9180368199785037  1.0000
  H   H8        1.0  0.24557546745977993  0.4813496845343933  0.0684145123882658  1.0000
  H   H9        1.0  0.27287363866641096  0.0013778771609978  0.07173087860264359  1.0000
  H   H10       1.0  0.7141481668853585  0.002275487482130211  0.9274909753983139  1.0000
  H   H11       1.0  0.7789307584925494  0.5789846015285106  0.48950085627684103  1.0000
  H   H12       1.0  0.20642084507873187  0.4239952389020729  0.5095172483195682  1.0000
  H   H13       1.0  0.2782910128977533  0.0808947626097734  0.9935647492889998  1.0000
  H   H14       1.0  0.7090241113897162  0.9226444146535614  0.005595871496439  1.0000
  H   H15       1.0  0.780310132269932  0.5009784644856338  0.568871172241991  1.0000
  H   H16       1.0  0.20467604514175258  0.5020674937916567  0.43019721148986895  1.0000
  H   H17       1.0  0.6887887543410186  0.9951801529436112  0.7388241899330126  1.0000
  H   H18       1.0  0.7816289017427208  0.07853947841125829  0.7427766641223172  1.0000
  H   H19       1.0  0.9401083777032396  0.011933508804524689  0.7182593427714464  1.0000
  H   H20       1.0  0.33126202668459104  0.7298770671755719  0.4420706520207176  1.0000
  H   H21       1.0  0.11264278243356779  0.7430963134260082  0.3998076168316588  1.0000
  H   H22       1.0  0.11466144328861821  0.7640931889539004  0.47658084110840104  1.0000
  H   H23       1.0  0.04560155842087709  0.2570868788927215  0.9454972092628466  1.0000
  H   H24       1.0  0.0358656783211799  0.3159881656821426  0.8905454480282915  1.0000
  H   H25       1.0  0.0347521406110687  0.3439106179403524  0.9658810068786323  1.0000
  H   H26       1.0  0.9948966252416084  0.6550871714775823  0.1156498884184956  1.0000
  H   H27       1.0  0.0193318136816529  0.7226346538049029  0.0694773255376617  1.0000
  H   H28       1.0  0.999259679963984  0.6394355398452021  0.03843063710330339  1.0000
  H   H29       1.0  0.37265469910947496  0.013948457412887205  0.6883761787540409  1.0000
  H   H30       1.0  0.2210043513935034  0.08009651037687598  0.7174741648283387  1.0000
  H   H31       1.0  0.48209147964932697  0.08892068232331951  0.720395150087093  1.0000
  H   H32       1.0  0.8956580854580452  0.9301082562378156  0.27385967376426384  1.0000
  H   H33       1.0  0.8237848739944766  0.012503141154965605  0.29715637554097907  1.0000
  H   H34       1.0  0.6445459516072916  0.9550976062274401  0.2631683364018543  1.0000
  H   H35       1.0  0.951936606078057  0.39630449718394806  0.8278128232577516  1.0000
  H   H36       1.0  0.9773516935203902  0.4771231499366877  0.8647197089457492  1.0000
  H   H37       1.0  0.9600216322971562  0.46897017390038803  0.7871880174259475  1.0000
  H   H38       1.0  0.4189406586112838  0.5737846210726899  0.2276541663546752  1.0000
  H   H39       1.0  0.35483156023501283  0.4894045426106858  0.2062411280229242  1.0000
  H   H40       1.0  0.17713404048540574  0.5424798081950115  0.24268477422255333  1.0000
  H   H41       1.0  0.47847976001776255  0.18027200056871348  0.7085519817220317  1.0000
  H   H42       1.0  0.5004707633246568  0.8290540673622786  0.2850948877013337  1.0000
  H   H43       1.0  0.9823356892294226  0.3280771187309099  0.7237798843351656  1.0000
  H   H44       1.0  0.992573385332477  0.6696072685968844  0.2239648427796723  1.0000
  C   C1        1.0  0.48987466588094003  0.3285391316638311  0.6728913576643976  1.0000
  C   C2        1.0  0.4947623135478664  0.6717515539301004  0.3236198691183532  1.0000
  C   C3        1.0  0.9957044268286238  0.17546145393298224  0.8265194007828924  1.0000
  C   C4        1.0  0.9901470883530264  0.8311632586481468  0.175099625086915  1.0000
  C   C5        1.0  0.4982380221145205  0.3298661501761586  0.829666851317292  1.0000
  C   C6        1.0  0.488137479245104  0.6736146792202646  0.1674144307400596  1.0000
  C   C7        1.0  0.9865045774675919  0.1568144690248303  0.6763956635550202  1.0000
  C   C8        1.0  0.0002846977689686167  0.8310611439169054  0.3321427314064281  1.0000
  C   C9        1.0  0.8403864972926057  0.018742333103141096  0.5662228263036369  1.0000
  C   C10       1.0  0.15648074776946427  0.923874285439467  0.4738476281392252  1.0000
  C   C11       1.0  0.39580232144261623  0.41460729632070337  0.9771271377568455  1.0000
  C   C12       1.0  0.6258019053762495  0.5798926546899992  0.026701261218733  1.0000
  C   C13       1.0  0.8460517566376067  0.0525716047187714  0.6205684813417066  1.0000
  C   C14       1.0  0.14957300214683758  0.8769123780764759  0.42729047436780837  1.0000
  C   C15       1.0  0.3968298801020253  0.3674792604879046  0.9306229983219652  1.0000
  C   C16       1.0  0.6216326125273709  0.6281063336817994  0.0723509024175968  1.0000
  C   C17       1.0  0.004138053616948402  0.0971643981677275  0.6366463791840006  1.0000
  C   C18       1.0  0.004195992258367199  0.8803272934901184  0.3826107800910563  1.0000
  C   C19       1.0  0.5025197455877262  0.3792567196224681  0.8802749517554532  1.0000
  C   C20       1.0  0.48576130697055214  0.6231580738569846  0.11773806103151682  1.0000
  C   C21       1.0  0.18709847423396297  0.0821958486145533  0.6088113924439327  1.0000
  C   C22       1.0  0.8623535354228266  0.9315420171497734  0.38789771319659394  1.0000
  C   C23       1.0  0.6051070834662723  0.4398429282102612  0.8776337275721247  1.0000
  C   C24       1.0  0.35266787598785504  0.5685221500663361  0.11485187186983839  1.0000
  C   C25       1.0  0.18987721805221722  0.0465746266946141  0.5555938334478158  1.0000
  C   C26       1.0  0.865620307490552  0.976710790761274  0.43592465625394544  1.0000
  C   C27       1.0  0.599494641908528  0.4875006652172259  0.9236418587983553  1.0000
  C   C28       1.0  0.3548586855692547  0.5214658915979343  0.06847204428844832  1.0000
  C   C29       1.0  0.011805245377793497  0.017624302723852698  0.5324265822110448  1.0000
  C   C30       1.0  0.013345908777587602  0.9734685455535939  0.47913568600447587  1.0000
  C   C31       1.0  0.49558798524956416  0.47566910793640466  0.9743230933512662  1.0000
  C   C32       1.0  0.49207341097478247  0.5260407594985637  0.023561274957295108  1.0000
  C   C33       1.0  0.1544137465409605  0.046081449571658994  0.9964318324071542  1.0000
  C   C34       1.0  0.8328548671314807  0.9574581730892291  0.002682380322973202  1.0000
  C   C35       1.0  0.655002373456817  0.5015055095112686  0.5383587469752343  1.0000
  C   C36       1.0  0.32988847077378836  0.5016164336974215  0.46077122909427715  1.0000
  C   C37       1.0  0.9965880357722341  0.04674967399533611  0.9553663573253601  1.0000
  C   C38       1.0  0.9904121746098937  0.9569010910180964  0.0438466488513498  1.0000
  C   C39       1.0  0.4934041850678667  0.45739760319747097  0.5443272832554698  1.0000
  C   C40       1.0  0.49180842055714175  0.5455884567975531  0.4546356180702063  1.0000
  C   C41       1.0  0.8358821177837115  0.001720080047107316  0.9591945579849155  1.0000
  C   C42       1.0  0.1513380968187832  0.0018414449771598001  0.039948068129469  1.0000
  C   C43       1.0  0.33071277404020794  0.4582019431570643  0.5049084938810608  1.0000
  C   C44       1.0  0.6542165684293694  0.5449335113662528  0.4942081709489515  1.0000
  C   C45       1.0  0.9986669515421551  0.09185348069438251  0.910942402176623  1.0000
  C   C46       1.0  0.9873505373019711  0.9123997032685907  0.0887352417546694  1.0000
  C   C47       1.0  0.49382183237279514  0.41277474548981263  0.5890584843738083  1.0000
  C   C48       1.0  0.4918230496773432  0.5894277184029946  0.40922604882734254  1.0000
  C   C49       1.0  0.9866670127847073  0.8747637937152746  0.127917125832802  1.0000
  C   C50       1.0  0.9986236165028399  0.1305827178966581  0.8725815003746434  1.0000
  C   C51       1.0  0.4924815745318582  0.6271384613500288  0.37007902487835054  1.0000
  C   C52       1.0  0.4922723428511801  0.37402578432519823  0.6273503925993111  1.0000
  C   C53       1.0  0.7868753137697553  0.030297063725889507  0.7185027110348656  1.0000
  C   C54       1.0  0.20405200298607443  0.7625209589308497  0.4370158924354541  1.0000
  C   C55       1.0  0.09289747247876079  0.3065505129572017  0.9341221592021113  1.0000
  C   C56       1.0  0.9502755378077055  0.6739623529960994  0.0738412927069092  1.0000
  C   C57       1.0  0.35755655620683774  0.06789811570709499  0.6945569819786428  1.0000
  C   C58       1.0  0.7746728934258938  0.9602890711881997  0.2923812628258702  1.0000
  C   C59       1.0  0.9092793788595158  0.4485441554098415  0.8272808862412832  1.0000
  C   C60       1.0  0.29786265953121926  0.5402576830625636  0.2114098263554496  1.0000
  O   O1        1.0  0.3271392089749058  0.3141778895207779  0.8084248112785418  1.0000
  O   O2        1.0  0.6574829644226412  0.6903535390908431  0.1894422384741574  1.0000
  O   O3        1.0  0.8128655000367072  0.17707797127349073  0.6910131462004047  1.0000
  O   O4        1.0  0.16681758844793385  0.8140290946008193  0.31070089567761994  1.0000
  O   O5        1.0  0.6596029854994184  0.3096100248610725  0.6908239717433845  1.0000
  O   O6        1.0  0.3252996580156732  0.6888487494263629  0.3043329172446292  1.0000
  O   O7        1.0  0.16334785680769673  0.1950733319198577  0.8090282970053836  1.0000
  O   O8        1.0  0.8219591538352374  0.8140236083352473  0.1942402847612144  1.0000
  O   O9        1.0  0.6636269259865416  0.30836117375882566  0.8113099291605438  1.0000
  O   O10       1.0  0.32158616131977874  0.6953018355156287  0.18521492593805533  1.0000
  O   O11       1.0  0.14794340212547039  0.1875748880514436  0.6912608333002268  1.0000
  O   O12       1.0  0.8308954556984602  0.809572310575618  0.3135974786209062  1.0000
  O   O13       1.0  0.8243088074273928  0.1902996824738707  0.8070571932178083  1.0000
  O   O14       1.0  0.16218432088937362  0.8152613938558347  0.19319985777327287  1.0000
  O   O15       1.0  0.3185748307030636  0.31218977239840473  0.6906612605611288  1.0000
  O   O16       1.0  0.6659947688104993  0.6884765546470533  0.3064556415014508  1.0000
  O   O17       1.0  0.48590131077696697  0.2102848039678946  0.7430867973180497  1.0000
  O   O18       1.0  0.4969629033827727  0.7927949856289872  0.255491010950884  1.0000
  O   O19       1.0  0.9869406873824927  0.290827027932373  0.7483399029227016  1.0000
  O   O20       1.0  0.9945267021513898  0.7120260175617972  0.24585288902849103  1.0000
  O   O21       1.0  0.7127508283516945  0.033448901243922115  0.6598799238118647  1.0000
  O   O22       1.0  0.28654325442412437  0.8270020035079783  0.428438832074818  1.0000
  O   O23       1.0  0.3071524654208274  0.3064690990945422  0.9349679420553442  1.0000
  O   O24       1.0  0.7386174351767351  0.68401040104839  0.0716010508861658  1.0000
  O   O25       1.0  0.36230881408693694  0.09611935383500031  0.6382158710324859  1.0000
  O   O26       1.0  0.712772456370807  0.9381469862802799  0.34719233669537186  1.0000
  O   O27       1.0  0.6957129000114789  0.45455260021957855  0.8268016614202977  1.0000
  O   O28       1.0  0.21457170570162984  0.5599175488186462  0.1574941431768764  1.0000
