data_image0
_chemical_formula_structural       Zn2H72C52S4N12O8
_chemical_formula_sum              "Zn2 H72 C52 S4 N12 O8"
_cell_length_a       9.51118922632973
_cell_length_b       10.310380108746681
_cell_length_c       14.8323
_cell_angle_alpha    86.65933713985324
_cell_angle_beta     87.98949195970881
_cell_angle_gamma    85.21749298311

_space_group_name_H-M_alt    "P 1"
_space_group_IT_number       1

loop_
  _space_group_symop_operation_xyz
  'x, y, z'

loop_
  _atom_site_type_symbol
  _atom_site_label
  _atom_site_symmetry_multiplicity
  _atom_site_fract_x
  _atom_site_fract_y
  _atom_site_fract_z
  _atom_site_occupancy
  Zn  Zn1       1.0  0.6491674009566212  0.5714627478973213  0.7282285818333278  1.0000
  Zn  Zn2       1.0  0.3508361142023801  0.4285378423389332  0.271771921962049  1.0000
  H   H1        1.0  0.877791841648545  0.5610441762697391  0.8632725351049826  1.0000
  H   H2        1.0  0.12220632725966853  0.43895738875802703  0.1367280494779521  1.0000
  H   H3        1.0  0.9766508252094753  0.4042509119402382  0.9842380028984222  1.0000
  H   H4        1.0  0.023348481786086905  0.5957496782960163  0.015761247158543795  1.0000
  H   H5        1.0  0.6691536327941208  0.1422094085921941  0.9196076377748452  1.0000
  H   H6        1.0  0.33084681228879026  0.8577902068525561  0.08039162616470459  1.0000
  H   H7        1.0  0.5900565909294997  0.3035627475917693  0.7961042026718133  1.0000
  H   H8        1.0  0.4099416640251974  0.6964378426444855  0.2038957452569576  1.0000
  H   H9        1.0  0.7965881608878931  0.12412020259546352  0.0739745253198265  1.0000
  H   H10       1.0  0.20341123215415283  0.8758794128492866  0.9260247622872553  1.0000
  H   H11       1.0  0.9449912826164635  0.0863021912871034  0.003955884229434  1.0000
  H   H12       1.0  0.05500907641995672  0.9136983989491583  0.9960433421600071  1.0000
  H   H13       1.0  0.9879815091918973  0.2949943302446131  0.22635634287679093  1.0000
  H   H14       1.0  0.012018849844523113  0.7050062599916487  0.773642883512643  1.0000
  H   H15       1.0  0.8826277827063578  0.1609887669759331  0.22558818666221464  1.0000
  H   H16       1.0  0.1173725763300624  0.8390118232603214  0.7744110397272193  1.0000
  H   H17       1.0  0.700255484307725  0.3011823067315049  0.1381771880409488  1.0000
  H   H18       1.0  0.29974496077517904  0.6988173087132452  0.8618220758986013  1.0000
  H   H19       1.0  0.7281102045445139  0.3505613453137358  0.2480858297133395  1.0000
  H   H20       1.0  0.2718891884975321  0.6494382701310145  0.7519134578937425  1.0000
  H   H21       1.0  0.6063852791355161  0.5421419941561041  0.1794412566257719  1.0000
  H   H22       1.0  0.39361297581918103  0.4578585960801504  0.820558691302999  1.0000
  H   H23       1.0  0.6300305555190135  0.500480379935361  0.0640087792341859  1.0000
  H   H24       1.0  0.3699698035174066  0.4995202103008937  0.935991795563794  1.0000
  H   H25       1.0  0.12151861809275741  0.054484021704766405  0.12436824598915308  1.0000
  H   H26       1.0  0.8784807749492886  0.945515593739984  0.8756303674136561  1.0000
  H   H27       1.0  0.1755869983612541  0.205216032443289  0.15545357436739238  1.0000
  H   H28       1.0  0.8244124807272825  0.7947826082099497  0.8445457507897982  1.0000
  H   H29       1.0  0.3067783221777134  0.1129364196348277  0.022522532586343395  1.0000
  H   H30       1.0  0.6932231749460556  0.8870631958099225  0.9774773818899473  1.0000
  H   H31       1.0  0.1496248914727829  0.1303559438661992  0.9595365452756539  1.0000
  H   H32       1.0  0.8503766056509862  0.869643671578551  0.04046202079209139  1.0000
  H   H33       1.0  0.22751273336712072  0.2802632809897432  0.8531258291879737  1.0000
  H   H34       1.0  0.7724876256692995  0.7197373092465186  0.14687339720146753  1.0000
  H   H35       1.0  0.3957412219112371  0.2576091263653879  0.9040361110808204  1.0000
  H   H36       1.0  0.604258085084318  0.7423914638708667  0.09596313897615259  1.0000
  H   H37       1.0  0.7481033825857538  0.8028792264676882  0.6240835297013732  1.0000
  H   H38       1.0  0.251896096502783  0.1971194141855506  0.3759164696600904  1.0000
  H   H39       1.0  0.9662796106957929  0.8626514920983227  0.5340339271395607  1.0000
  H   H40       1.0  0.03371881635187891  0.1373471485549231  0.46596542168516913  1.0000
  H   H41       1.0  0.1474422537222466  0.47207105625325607  0.5951683596455409  1.0000
  H   H42       1.0  0.8525581913606645  0.5279285591914943  0.4048309042940089  1.0000
  H   H43       1.0  0.9233912889984168  0.42706200799722893  0.6805977319046617  1.0000
  H   H44       1.0  0.0766081040436291  0.5729376074475212  0.3194022299066929  1.0000
  H   H45       1.0  0.29421807784418524  0.6356089030201846  0.5236183295754342  1.0000
  H   H46       1.0  0.7057814012443515  0.3643897376330543  0.4763816697860364  1.0000
  H   H47       1.0  0.18316785031920088  0.6734844270274608  0.43148892682201284  1.0000
  H   H48       1.0  0.8168325087172191  0.32651616320879384  0.5685096253631554  1.0000
  H   H49       1.0  0.42676020762669975  0.8431917292426477  0.5598180573107072  1.0000
  H   H50       1.0  0.5732392714618372  0.1568069114105981  0.4401832904593022  1.0000
  H   H51       1.0  0.2825585943387736  0.803533311568934  0.6315637948807193  1.0000
  H   H52       1.0  0.7174409707962468  0.19646435429280024  0.3684369162351259  1.0000
  H   H53       1.0  0.3732969231825365  0.0252880412764611  0.6470665572644805  1.0000
  H   H54       1.0  0.6267036079468583  0.9747105993767846  0.3529340926337241  1.0000
  H   H55       1.0  0.2961604610827209  0.0771654704913161  0.5422210670529566  1.0000
  H   H56       1.0  0.7038380520114416  0.9228321953704183  0.4577810161389664  1.0000
  H   H57       1.0  0.1455686602765454  0.2298919046533072  0.634444083519682  1.0000
  H   H58       1.0  0.854433094986682  0.7701047864169226  0.36555729201548093  1.0000
  H   H59       1.0  0.2300850349560974  0.15591985113916002  0.7321155139808582  1.0000
  H   H60       1.0  0.7699163761211806  0.8440807390970946  0.26788638555812827  1.0000
  H   H61       1.0  0.3708865281419165  0.81136771091127  0.38207112160947077  1.0000
  H   H62       1.0  0.6291148829353618  0.18863287932498451  0.6179294295209772  1.0000
  H   H63       1.0  0.342681102342965  0.9714674680327562  0.4184263532997292  1.0000
  H   H64       1.0  0.6573204808272948  0.0285311726204895  0.5815742729309363  1.0000
  H   H65       1.0  0.09458198461264541  0.9877299147452379  0.365496921746356  1.0000
  H   H66       1.0  0.9054204785054978  0.012270675491024001  0.634502931512287  1.0000
  H   H67       1.0  0.2296269989437363  0.9684963035192028  0.27827269482881417  1.0000
  H   H68       1.0  0.7703744981800257  0.0315033119255475  0.7217278938517424  1.0000
  H   H69       1.0  0.9906623468289198  0.7497072741314385  0.21608945692758394  1.0000
  H   H70       1.0  0.0093380982539841  0.2502923413133118  0.7839118296247775  1.0000
  H   H71       1.0  0.008133574748129011  0.9205004940855019  0.2120593740727443  1.0000
  H   H72       1.0  0.9918668703347822  0.0794991213592482  0.7879412382753515  1.0000
  C   C1        1.0  0.5285845551503955  0.8368936013154596  0.8023675839774285  1.0000
  C   C2        1.0  0.47141842424667163  0.1631011401717615  0.19763047196907726  1.0000
  C   C3        1.0  0.46070270683404874  0.42113820000875535  0.6136666799662008  1.0000
  C   C4        1.0  0.5392952039346994  0.5788662893935311  0.3863344661706661  1.0000
  C   C5        1.0  0.8346835602133494  0.4671746785132386  0.8770918516591946  1.0000
  C   C6        1.0  0.16531583282869633  0.5328249369315118  0.12290878435642578  1.0000
  C   C7        1.0  0.8888177847128347  0.3810966892727592  0.9449042094846689  1.0000
  C   C8        1.0  0.11118178042219279  0.618900976588975  0.0550958274269107  1.0000
  C   C9        1.0  0.8293360215403567  0.26277747093588744  0.9632476505869292  1.0000
  C   C10       1.0  0.17066433749606355  0.7372231193003742  0.0367515758025121  1.0000
  C   C11       1.0  0.7190505210698248  0.2337930202646135  0.909414068559073  1.0000
  C   C12       1.0  0.2809488719722212  0.7662065951801367  0.090585219048009  1.0000
  C   C13       1.0  0.6728003981603693  0.32340950267575863  0.8412048249981863  1.0000
  C   C14       1.0  0.3271989088351859  0.676591087560503  0.15879577346732524  1.0000
  C   C15       1.0  0.8860783878814048  0.1678308285640711  0.037420998350818  1.0000
  C   C16       1.0  0.11392100516064835  0.8321687868806792  0.9625782892562638  1.0000
  C   C17       1.0  0.9111180908744957  0.2507807118583543  0.1864853708124841  1.0000
  C   C18       1.0  0.08888226816192461  0.7492198783779074  0.8135138555769501  1.0000
  C   C19       1.0  0.7780171667123028  0.34202509608631004  0.17994439350598407  1.0000
  C   C20       1.0  0.22198319232411734  0.6579754941499516  0.820054832883457  1.0000
  C   C21       1.0  0.6804093353856758  0.5431986681497705  0.1203421866581351  1.0000
  C   C22       1.0  0.31958997160988634  0.4568019220864841  0.8796577376031038  1.0000
  C   C23       1.0  0.11964184579462511  0.1601143789940878  0.10332783103530117  1.0000
  C   C24       1.0  0.8803576332939117  0.839884261659151  0.8966708199176238  1.0000
  C   C25       1.0  0.20429361622112202  0.17117046426729846  0.014943753932669794  1.0000
  C   C26       1.0  0.7957069149082729  0.8288281763859403  0.9850555475569889  1.0000
  C   C27       1.0  0.2932912106485405  0.316987576227163  0.9046388586041159  1.0000
  C   C28       1.0  0.7067081823935055  0.6830120392175872  0.09536110320723878  1.0000
  C   C29       1.0  0.8391552382811585  0.732766372530037  0.6150223963534385  1.0000
  C   C30       1.0  0.16084415476088762  0.2672332429147133  0.3849768912536432  1.0000
  C   C31       1.0  0.9589816715695892  0.7653146609511696  0.5657037494344763  1.0000
  C   C32       1.0  0.041016669431599  0.23468495449358073  0.43429556184014456  1.0000
  C   C33       1.0  0.0733363445937911  0.6716313483725217  0.5570838661700392  1.0000
  C   C34       1.0  0.9266619964073899  0.32836826707222855  0.4429147709003017  1.0000
  C   C35       1.0  0.06085386197592164  0.5481350123415822  0.5998259373903423  1.0000
  C   C36       1.0  0.9391456171126152  0.4518636283116565  0.4001733877668556  1.0000
  C   C37       1.0  0.9372734159829719  0.5224979957055922  0.6474342130372435  1.0000
  C   C38       1.0  0.06272492501821601  0.477501619739158  0.3525650982373704  1.0000
  C   C39       1.0  0.20253569864924256  0.7004578828196486  0.5003374115354831  1.0000
  C   C40       1.0  0.7974636083463197  0.2995427074166059  0.49966183852148294  1.0000
  C   C41       1.0  0.3123017775559234  0.8671540540694878  0.573126547712313  1.0000
  C   C42       1.0  0.6876987535734713  0.132844586583758  0.4268741021858915  1.0000
  C   C43       1.0  0.2893255304522242  0.0064765147729844005  0.6009200851203431  1.0000
  C   C44       1.0  0.7106761387645192  0.9935211510887499  0.3990812528647111  1.0000
  C   C45       1.0  0.1407984484949623  0.1495183953122208  0.6869073622014313  1.0000
  C   C46       1.0  0.859202962582323  0.8504821949240409  0.3130952115418211  1.0000
  C   C47       1.0  0.28892405718404046  0.8830685002139447  0.40867592738633357  1.0000
  C   C48       1.0  0.7110774399397286  0.11693111523080553  0.591325335498496  1.0000
  C   C49       1.0  0.17877203871637454  0.9201719893476223  0.3380849329928067  1.0000
  C   C50       1.0  0.8212305104482526  0.07982762609712782  0.6619149578159449  1.0000
  C   C51       1.0  0.9961439625135781  0.833689461631714  0.25810677008357163  1.0000
  C   C52       1.0  0.0038575346101907965  0.16631015381303635  0.7418951670055306  1.0000
  S   S1        1.0  0.4613518469725051  0.9689466571954668  0.8452722637791296  1.0000
  S   S2        1.0  0.5386473739765664  0.031054907832292103  0.1547276229320005  1.0000
  S   S3        1.0  0.3828960897459694  0.34742154186945845  0.5399513618424621  1.0000
  S   S4        1.0  0.6171070812270757  0.6525829475328282  0.46005101436527696  1.0000
  N   N1        1.0  0.5782062980349281  0.7394368708129309  0.7706884404611003  1.0000
  N   N2        1.0  0.4217906467394529  0.2605666437978442  0.2293120926891419  1.0000
  N   N3        1.0  0.5168453985370148  0.47551499464774594  0.669365130781962  1.0000
  N   N4        1.0  0.4831564622557068  0.5244924191290609  0.33063985326005957  1.0000
  N   N5        1.0  0.7273960418531901  0.43977913799849233  0.8260882420589721  1.0000
  N   N6        1.0  0.2726032651423722  0.5602214522377693  0.1739123564065395  1.0000
  N   N7        1.0  0.9776070698589977  0.22388134022070721  0.0985411874595172  1.0000
  N   N8        1.0  0.02239328917741551  0.7761192500155545  0.9014580389299169  1.0000
  N   N9        1.0  0.8273840719134782  0.6131419083651934  0.6552312381774426  1.0000
  N   N10       1.0  0.17261628712294197  0.38685868187106115  0.34476866241626414  1.0000
  N   N11       1.0  0.22939645871742445  0.8380292334211961  0.49627752939607456  1.0000
  N   N12       1.0  0.7706039863654865  0.1619703820235543  0.5037224087477483  1.0000
  O   O1        1.0  0.8084869408192928  0.46785118381914265  0.1426484281346561  1.0000
  O   O2        1.0  0.19151245222275293  0.5321484316256075  0.8573515336766988  1.0000
  O   O3        1.0  0.22599530235520152  0.3040325970981783  0.9915302199104444  1.0000
  O   O4        1.0  0.7740050566812186  0.6959679931380762  0.008469006478996708  1.0000
  O   O5        1.0  0.1548738266351819  0.026580614814832905  0.6466388829820102  1.0000
  O   O6        1.0  0.8451277565350709  0.9734180258384059  0.35336444006573936  1.0000
  O   O7        1.0  0.11880311105575458  0.805548205614052  0.3109912062319822  1.0000
  O   O8        1.0  0.8811993520623816  0.1944523846222026  0.6890093212309338  1.0000
