data_image0
_chemical_formula_structural       Al2H24C42O12
_chemical_formula_sum              "Al2 H24 C42 O12"
_cell_length_a       3.9576618020772334
_cell_length_b       24.571863460486313
_cell_length_c       24.574587090456035
_cell_angle_alpha    120.00588739872073
_cell_angle_beta     89.99944439610574
_cell_angle_gamma    89.99976001884288

_space_group_name_H-M_alt    "P 1"
_space_group_IT_number       1

loop_
  _space_group_symop_operation_xyz
  'x, y, z'

loop_
  _atom_site_type_symbol
  _atom_site_label
  _atom_site_symmetry_multiplicity
  _atom_site_fract_x
  _atom_site_fract_y
  _atom_site_fract_z
  _atom_site_occupancy
  Al  Al1       1.0  0.999997846767187  0.49998409094146007  0.5000140259295945  1.0000
  Al  Al2       1.0  0.9999192294737259  0.166660301795737  0.8333217084276895  1.0000
  H   H1        1.0  0.2590930389128588  0.49155933083065406  0.66511521675487  1.0000
  H   H2        1.0  0.27428282084103733  0.4343199028683172  0.7250765503042798  1.0000
  H   H3        1.0  0.25905265446448317  0.17512712401538968  0.6682090071988113  1.0000
  H   H4        1.0  0.27422423181389644  0.23241295873024376  0.6082874892420733  1.0000
  H   H5        1.0  0.7408673682540796  0.33177771227339986  0.8249329161973475  1.0000
  H   H6        1.0  0.7260968929399925  0.39174360856334545  0.767688921852219  1.0000
  H   H7        1.0  0.7408321073587063  0.3348786983788444  0.5084211063788969  1.0000
  H   H8        1.0  0.7261735882319517  0.27494986281361367  0.5657021679598698  1.0000
  H   H9        1.0  0.25917851606984504  0.6735593478535263  0.5084557008908488  1.0000
  H   H10       1.0  0.27524229998299893  0.7907846003858338  0.5657294837044801  1.0000
  H   H11       1.0  0.25926407098093324  0.9930627649186758  0.824832955216294  1.0000
  H   H12       1.0  0.27515855029421493  0.8758379185472478  0.7675774235723336  1.0000
  H   H13       1.0  0.741015721934595  0.9931807300470014  0.6682179004663239  1.0000
  H   H14       1.0  0.7270947053139453  0.8759401931617531  0.6082402341276916  1.0000
  H   H15       1.0  0.7411928930357164  0.6734671015567174  0.6650985190168652  1.0000
  H   H16       1.0  0.7271580095266262  0.7907148865074088  0.7250575987883248  1.0000
  H   H17       1.0  0.25889182618625733  0.3348907289199302  0.32654449505903205  1.0000
  H   H18       1.0  0.2728139242275561  0.27492710585170227  0.20930337212222122  1.0000
  H   H19       1.0  0.25890225202202544  0.3317913023252074  0.006843661520647891  1.0000
  H   H20       1.0  0.2729158412220372  0.39173021001450087  0.12407932681956868  1.0000
  H   H21       1.0  0.7405932779345509  0.17515057741248097  0.006911038604989967  1.0000
  H   H22       1.0  0.7247963810501051  0.2323859975140152  0.12412967571233924  1.0000
  H   H23       1.0  0.7407040500094982  0.49151866346687  0.32642455659708947  1.0000
  H   H24       1.0  0.7247650376990508  0.4342394432517693  0.20919361391774755  1.0000
  C   C1        1.0  0.4999590577974972  0.4515565625656349  0.4031752351294599  1.0000
  C   C2        1.0  0.5000149855810251  0.4515824495836683  0.5484254391265964  1.0000
  C   C3        1.0  0.500090929817148  0.5968266126734959  0.5484016607173456  1.0000
  C   C4        1.0  0.49998845540635994  0.21507309337120253  0.7849010845869911  1.0000
  C   C5        1.0  0.49996304615072523  0.06984453055147084  0.7849141493436632  1.0000
  C   C6        1.0  0.49997110724597615  0.21511310375067424  0.930155073771651  1.0000
  C   C7        1.0  0.49998410588271736  0.41668334136513613  0.5833070443735267  1.0000
  C   C8        1.0  0.5000067009614712  0.24998549410822338  0.7500257228212418  1.0000
  C   C9        1.0  0.3670749114497981  0.4445591359236189  0.6442714587307207  1.0000
  C   C10       1.0  0.3754606276282076  0.4124227143429806  0.6774433153824047  1.0000
  C   C11       1.0  0.36698614783343697  0.22214591174779486  0.6890736381661781  1.0000
  C   C12       1.0  0.37543612939578014  0.25429465549534314  0.6559122179971197  1.0000
  C   C13       1.0  0.6329924086461322  0.3109456670468162  0.7779142056641815  1.0000
  C   C14       1.0  0.6250841980121677  0.34409410828754255  0.745744896335452  1.0000
  C   C15       1.0  0.6330115263668504  0.35572953574519056  0.5554450492079894  1.0000
  C   C16       1.0  0.6251503244445902  0.3225936949011583  0.5876213245113746  1.0000
  C   C17       1.0  0.5002837291932068  0.3506844679962383  0.6493523270889623  1.0000
  C   C18       1.0  0.50027812019448  0.3160248193176684  0.6840124311070352  1.0000
  C   C19       1.0  0.5004095477405033  0.666613048002631  0.5832959866327057  1.0000
  C   C20       1.0  0.5002331596792617  5.446110768750541e-05  0.7500218278444422  1.0000
  C   C21       1.0  0.36746777496158967  0.699723851643796  0.5554504207808932  1.0000
  C   C22       1.0  0.3764305475670044  0.7650427914247685  0.5876165696461157  1.0000
  C   C23       1.0  0.367504177296894  0.9669170926726309  0.777846660271251  1.0000
  C   C24       1.0  0.3763827471584379  0.9015947229474505  0.7456855337787545  1.0000
  C   C25       1.0  0.6334696512419529  0.9669893095356414  0.6890728341266051  1.0000
  C   C26       1.0  0.626058332732953  0.9016696258982291  0.6558900807144209  1.0000
  C   C27       1.0  0.6336296278187703  0.6996643610330935  0.6442560696868113  1.0000
  C   C28       1.0  0.626097780526138  0.7649899395435323  0.6774085421961114  1.0000
  C   C29       1.0  0.5017570445150527  0.7986695805091484  0.6493165434283269  1.0000
  C   C30       1.0  0.5016941388661139  0.8680007561873211  0.6839840005665606  1.0000
  C   C31       1.0  0.4996561592170112  0.416661343022632  0.3333998697936522  1.0000
  C   C32       1.0  0.4995134556684493  0.24999026481313533  0.9999419840486465  1.0000
  C   C33       1.0  0.3662815003711729  0.3557296066014075  0.30033600448832937  1.0000
  C   C34       1.0  0.3740311633437231  0.32256608786219226  0.23501557952864963  1.0000
  C   C35       1.0  0.3662479555468324  0.3109370319500613  0.03304515071540235  1.0000
  C   C36       1.0  0.3741767418001701  0.344105971622561  0.09836582270344953  1.0000
  C   C37       1.0  0.6322726505570986  0.22212516395330079  0.03303966789079735  1.0000
  C   C38       1.0  0.6237397136283465  0.2542730590279945  0.09835570602507457  1.0000
  C   C39       1.0  0.6323058069131025  0.444521116858553  0.30027209731298393  1.0000
  C   C40       1.0  0.6236568819240917  0.41235911242681306  0.2349522934177627  1.0000
  C   C41       1.0  0.4981682227443971  0.3506634203995063  0.2013434861780893  1.0000
  C   C42       1.0  0.49818872970871564  0.3159712245705535  0.13201217307662452  1.0000
  O   O1        1.0  0.7349695690285929  0.5689998589909919  0.5607841871733683  1.0000
  O   O2        1.0  0.735010426220022  0.49173747214386054  0.43093865061869957  1.0000
  O   O3        1.0  0.7349809865641603  0.4391983758190037  0.508234793987718  1.0000
  O   O4        1.0  0.2648932083213539  0.5690431708781389  0.5082589896763989  1.0000
  O   O5        1.0  0.26492562091198824  0.4917408623390997  0.5607909312620903  1.0000
  O   O6        1.0  0.2649559626956802  0.43921892805191476  0.4310092340877815  1.0000
  O   O7        1.0  0.7349295823257125  0.17491404746768044  0.9023681966193207  1.0000
  O   O8        1.0  0.73487563826253  0.22746860554622816  0.8250997305236252  1.0000
  O   O9        1.0  0.7348264138312717  0.09767571977825178  0.7725490668430124  1.0000
  O   O10       1.0  0.264878449155681  0.22747163749026073  0.9023548067509065  1.0000
  O   O11       1.0  0.2648578226372536  0.09762000421306267  0.8250673256079037  1.0000
  O   O12       1.0  0.2648911058695448  0.17491025798251766  0.7725270890875464  1.0000
