data_image0
_chemical_formula_structural       Zr6H40C66N6O32
_chemical_formula_sum              "Zr6 H40 C66 N6 O32"
_cell_length_a       14.22368765018874
_cell_length_b       14.2246000879183
_cell_length_c       14.220383118487614
_cell_angle_alpha    88.66070395025801
_cell_angle_beta     88.65383751621054
_cell_angle_gamma    88.61638250793455

_space_group_name_H-M_alt    "P 1"
_space_group_IT_number       1

loop_
  _space_group_symop_operation_xyz
  'x, y, z'

loop_
  _atom_site_type_symbol
  _atom_site_label
  _atom_site_symmetry_multiplicity
  _atom_site_fract_x
  _atom_site_fract_y
  _atom_site_fract_z
  _atom_site_occupancy
  Zr  Zr1       1.0  0.9538198066867378  0.8072622501656069  0.816503562021765  1.0000
  Zr  Zr2       1.0  0.8458672307480055  0.014844444339999494  0.7173022775026894  1.0000
  Zr  Zr3       1.0  0.9678471049261929  0.9172536825818367  0.03397687060263621  1.0000
  Zr  Zr4       1.0  0.7465269316173463  0.906835424306543  0.924735150364512  1.0000
  Zr  Zr5       1.0  0.06339062390588879  0.028280742894331506  0.8271696863369015  1.0000
  Zr  Zr6       1.0  0.8567093205517862  0.12408398555607647  0.938574990315935  1.0000
  H   H1        1.0  0.20363907052902155  0.5330866566160566  0.1653654241052465  1.0000
  H   H2        1.0  0.19528003598654203  0.34979222412399485  0.1467844234401241  1.0000
  H   H3        1.0  0.6120370983709336  0.3956865941791533  0.5966978190810011  1.0000
  H   H4        1.0  0.621682240283107  0.5799481042227655  0.6156202705405674  1.0000
  H   H5        1.0  0.47229431715820874  0.2550167447425977  0.17403156074689008  1.0000
  H   H6        1.0  0.2889689985742762  0.23669188215004056  0.16552948338542  1.0000
  H   H7        1.0  0.3356545753517182  0.6866510058852241  0.5828454314474598  1.0000
  H   H8        1.0  0.5197840363746237  0.7065073260298432  0.5928843481826007  1.0000
  H   H9        1.0  0.1941355743884614  0.2642834518868895  0.4435438218433134  1.0000
  H   H10       1.0  0.17555113507580697  0.25540414085654817  0.2602750209954792  1.0000
  H   H11       1.0  0.6254651444254834  0.6726645225176142  0.3054258445526727  1.0000
  H   H12       1.0  0.6440006044497436  0.6821047543342686  0.48979907628499564  1.0000
  H   H13       1.0  0.7710266387329624  0.8322304442697969  0.7419508524903549  1.0000
  H   H14       1.0  0.12001259564787858  0.8608275414774835  0.909590137949273  1.0000
  H   H15       1.0  0.800517481345274  0.9998067587965591  0.09076167292304399  1.0000
  H   H16       1.0  0.9391216896836452  0.18072218820527294  0.771178770499219  1.0000
  H   H17       1.0  0.8889308453361053  0.6519694946024047  0.22233432752454968  1.0000
  H   H18       1.0  0.6860310998167093  0.7033099131255084  0.16347475095968628  1.0000
  H   H19       1.0  0.7815481010605224  0.7906745847709543  0.494097785274846  1.0000
  H   H20       1.0  0.891986706510792  0.619333954811573  0.5776098611978  1.0000
  H   H21       1.0  0.049446954281151485  0.14701416743801593  0.24373520606842192  1.0000
  H   H22       1.0  0.921886255676803  0.3138379853860727  0.1774059143598095  1.0000
  H   H23       1.0  0.13034828945242075  0.2124034085121878  0.572173479235417  1.0000
  H   H24       1.0  0.9281027496397269  0.28199017375764157  0.5285118244112539  1.0000
  H   H25       1.0  0.19309641580514378  0.7463450679242242  0.6128662571207215  1.0000
  H   H26       1.0  0.25096829340616716  0.9494599802618495  0.5614384038799328  1.0000
  H   H27       1.0  0.6071125226915229  0.9537651682550036  0.5291601058240687  1.0000
  H   H28       1.0  0.5225098576215288  0.8445091587471721  0.7006877755989649  1.0000
  H   H29       1.0  0.2722971938783232  0.11031720391510899  0.0572399440616636  1.0000
  H   H30       1.0  0.20637983140370858  0.9828952857147614  0.2242314646774588  1.0000
  H   H31       1.0  0.6016731457267639  0.1914069907743183  0.1230229357263326  1.0000
  H   H32       1.0  0.5572094762743304  0.9890442956569317  0.19142766309821008  1.0000
  H   H33       1.0  0.6420978919842355  0.25350718670809863  0.6569608419088481  1.0000
  H   H34       1.0  0.5906412150345516  0.31223283986102496  0.8599155590983543  1.0000
  H   H35       1.0  0.5583524403612043  0.667509865746638  0.8635195146792398  1.0000
  H   H36       1.0  0.7297375943687212  0.5842731211567911  0.7528966036279172  1.0000
  H   H37       1.0  0.25421500988694123  0.2671301970114471  0.8928336725454217  1.0000
  H   H38       1.0  0.08696376923177238  0.33304757082768777  0.020037795490466696  1.0000
  H   H39       1.0  0.2211201080598569  0.6184512769600088  0.89915672728673  1.0000
  H   H40       1.0  0.150779662506025  0.6613132742257407  0.10136531692803172  1.0000
  C   C1        1.0  0.2641404604482104  0.5340914975181336  0.0211422475913423  1.0000
  C   C2        1.0  0.23534617139778646  0.49434466766608415  0.10748310868255828  1.0000
  C   C3        1.0  0.23107662069673293  0.3967496211432858  0.0975925216332811  1.0000
  C   C4        1.0  0.26074858156633235  0.3733168986451218  0.007076821650663601  1.0000
  C   C5        1.0  0.5462013824442948  0.39552302042676496  0.7384039033445902  1.0000
  C   C6        1.0  0.5787417173711518  0.4351593049413793  0.6532824438600358  1.0000
  C   C7        1.0  0.5846141779824663  0.5326648955768789  0.6636828964852556  1.0000
  C   C8        1.0  0.5530766013178335  0.5559718566749369  0.7537011152356642  1.0000
  C   C9        1.0  0.473154789838503  0.11102269029534989  0.23491125283944567  1.0000
  C   C10       1.0  0.4334866545178642  0.1973068837233072  0.2059098590908377  1.0000
  C   C11       1.0  0.3358840251678926  0.18757056877862507  0.2015167538827924  1.0000
  C   C12       1.0  0.31239810553233827  0.0971333681284179  0.2312467943387944  1.0000
  C   C13       1.0  0.3348203336352498  0.8283054278982007  0.5169615272078119  1.0000
  C   C14       1.0  0.3748664440092355  0.7433685717635186  0.549575074335003  1.0000
  C   C15       1.0  0.47228662273384714  0.7542373976557074  0.5556045749274361  1.0000
  C   C16       1.0  0.4951640851404448  0.8442703636896168  0.5239945999649507  1.0000
  C   C17       1.0  0.050093809856711885  0.325241208794715  0.44441627431167063  1.0000
  C   C18       1.0  0.1363565147766934  0.2961476037031119  0.4047406751028149  1.0000
  C   C19       1.0  0.1264661393440392  0.2915077725819231  0.3071408054794631  1.0000
  C   C20       1.0  0.035986969618186  0.321159756769454  0.2836475908187878  1.0000
  C   C21       1.0  0.767384554373578  0.6072734452562968  0.3053761134936792  1.0000
  C   C22       1.0  0.6820758180716879  0.6394822523629456  0.3449256137590737  1.0000
  C   C23       1.0  0.6922644032992977  0.6452274369973521  0.4425282865980762  1.0000
  C   C24       1.0  0.7822989393141951  0.6138974488925725  0.46592021925501825  1.0000
  C   C25       1.0  0.07068248099507457  0.7190150643357496  0.9887720363755648  1.0000
  C   C26       1.0  0.8762887268338131  0.8124939434186017  0.608680394116604  1.0000
  C   C27       1.0  0.7516082726038319  0.698921311175873  0.8474329228968429  1.0000
  C   C28       1.0  0.1433141032257197  0.8563115953060174  0.7019156063383888  1.0000
  C   C29       1.0  0.73140892773808  0.20431161331718778  0.7668722046107915  1.0000
  C   C30       1.0  0.9452283573622536  0.12216632835446718  0.139549831214147  1.0000
  C   C31       1.0  0.6378169906979919  0.938176769671138  0.7226201296797045  1.0000
  C   C32       1.0  0.017981345079093096  0.1317512195771684  0.6292339816956485  1.0000
  C   C33       1.0  0.16876175934707757  0.005565403498266597  0.0322551078284619  1.0000
  C   C34       1.0  0.7959342345667508  0.7924813739433175  0.11423804260449089  1.0000
  C   C35       1.0  0.6586142917224009  0.07905413985346138  0.04199948601903  1.0000
  C   C36       1.0  0.06207945315172479  0.22915634306480828  0.9156610383271868  1.0000
  C   C37       1.0  0.8121191316466108  0.6502558221454748  0.22348304391660181  1.0000
  C   C38       1.0  0.7623876568446162  0.7083444819044403  0.16497755363607777  1.0000
  C   C39       1.0  0.8285158412639361  0.752508046171442  0.5418718057542762  1.0000
  C   C40       1.0  0.8390474430920063  0.6575285128163274  0.5363090567252868  1.0000
  C   C41       1.0  0.996590505937206  0.18388060305868237  0.2015733862303435  1.0000
  C   C42       1.0  0.9800775187858689  0.27751303662574145  0.21287272326746634  1.0000
  C   C43       1.0  0.05366671927620098  0.21300893499580548  0.5755369730343317  1.0000
  C   C44       1.0  0.004889570111963298  0.27830590778256686  0.5238801041908161  1.0000
  C   C45       1.0  0.8878716304681687  0.5046946011961281  0.37739734943960457  1.0000
  C   C46       1.0  0.9293978207321201  0.4284813614047138  0.3732001619873557  1.0000
  C   C47       1.0  0.19422841564664842  0.8227402020182165  0.6178087052349072  1.0000
  C   C48       1.0  0.25257060010155635  0.8726267165242447  0.5597388042744456  1.0000
  C   C49       1.0  0.5654009205285391  0.9012705901669379  0.5674984350112595  1.0000
  C   C50       1.0  0.5706527363453444  0.8910390563350814  0.6625691466172084  1.0000
  C   C51       1.0  0.23030756127917573  0.0573562203383844  0.0940794299261469  1.0000
  C   C52       1.0  0.24161054949283303  0.04109613383842969  0.18775994666034276  1.0000
  C   C53       1.0  0.6048126006865927  0.11469720141293749  0.12328194698088171  1.0000
  C   C54       1.0  0.552740242611975  0.06585449010739809  0.18811970040242437  1.0000
  C   C55       1.0  0.4062852982396877  0.9490175320933857  0.4143955708187832  1.0000
  C   C56       1.0  0.40207157753393113  0.9903248252756428  0.3380775138042296  1.0000
  C   C57       1.0  0.6471109058281994  0.25494724973304267  0.7333534358174987  1.0000
  C   C58       1.0  0.5889890216078368  0.31348399501486307  0.7830794421015596  1.0000
  C   C59       1.0  0.5966121453580653  0.626306697583999  0.8105421407109005  1.0000
  C   C60       1.0  0.6916059389366893  0.6320278892388133  0.7998767462036723  1.0000
  C   C61       1.0  0.21751334727384367  0.302389849171483  0.950966822785567  1.0000
  C   C62       1.0  0.12387476911633397  0.29096968343413476  0.9671704881662038  1.0000
  C   C63       1.0  0.21719770432027016  0.6135444387942  0.975951054469462  1.0000
  C   C64       1.0  0.15166346691697188  0.6649724042427818  0.02464281072838761  1.0000
  C   C65       1.0  0.44350929698779135  0.46750099586196814  0.8587981433596142  1.0000
  C   C66       1.0  0.36729216054974495  0.4631857923522844  0.9002433948756945  1.0000
  N   N1        1.0  0.29541138279781615  0.4575439906703806  0.9641818594091943  1.0000
  N   N2        1.0  0.5157393809350379  0.47229146354268176  0.7952177780486238  1.0000
  N   N3        1.0  0.39656121225214486  0.0541937498433427  0.2661289062009615  1.0000
  N   N4        1.0  0.4113027048239814  0.8854353387311348  0.4866088512883238  1.0000
  N   N5        1.0  0.9931416582938579  0.3563991399062374  0.3677747194879188  1.0000
  N   N6        1.0  0.8241199130467507  0.5768510179709025  0.3821935763227414  1.0000
  O   O1        1.0  0.03419992057330029  0.776495138309876  0.04830011807762699  1.0000
  O   O2        1.0  0.8617272719523966  0.9013922238248425  0.6012760498922917  1.0000
  O   O3        1.0  0.8405141837743384  0.6914678494264735  0.8327169571457703  1.0000
  O   O4        1.0  0.08929883726592887  0.7947941824164886  0.7407284429911911  1.0000
  O   O5        1.0  0.15903371004159786  0.9369376951576311  0.7360318308379377  1.0000
  O   O6        1.0  0.7091235871618193  0.7623416291858474  0.8959517189413191  1.0000
  O   O7        1.0  0.9248585215744852  0.7699066804469509  0.671991794640455  1.0000
  O   O8        1.0  0.03881968441994839  0.7057131620949734  0.906489661626331  1.0000
  O   O9        1.0  0.9645802280280475  0.9465544923332699  0.7657125008221612  1.0000
  O   O10       1.0  0.8858322163539751  0.85582115403065  0.9353464418405508  1.0000
  O   O11       1.0  0.8095147023115741  0.8705701259559859  0.780397245802142  1.0000
  O   O12       1.0  0.057757447587931686  0.8885855661150615  0.9010122274240331  1.0000
  O   O13       1.0  0.7703557549652018  0.15047332832457266  0.7051817409416543  1.0000
  O   O14       1.0  0.9632720520643615  0.033832352108341  0.1473361509642501  1.0000
  O   O15       1.0  0.6304998000955633  0.9233666487841602  0.811519696232402  1.0000
  O   O16       1.0  0.07760692013056308  0.09498872098568971  0.6864585597321025  1.0000
  O   O17       1.0  0.17679161414479688  0.023412533919881195  0.9438737966294539  1.0000
  O   O18       1.0  0.7343250822739901  0.8313326375452873  0.06026050967693661  1.0000
  O   O19       1.0  0.7160304435423509  0.13858075824850147  0.005469817379371003  1.0000
  O   O20       1.0  0.9737663886767647  0.237139459541531  0.9337899236016725  1.0000
  O   O21       1.0  0.6451641757540896  0.9969078877879409  0.009926318594160898  1.0000
  O   O22       1.0  0.10111635493057487  0.17235604727546414  0.8572059396658956  1.0000
  O   O23       1.0  0.7013582711354899  0.9863765995969586  0.6800531091162085  1.0000
  O   O24       1.0  0.8765299947714167  0.8265733806364751  0.1299848507733401  1.0000
  O   O25       1.0  0.11211201784453097  0.9470846510312967  0.0713658382729463  1.0000
  O   O26       1.0  0.9357424299253052  0.0999056708447696  0.615874629880409  1.0000
  O   O27       1.0  0.7655658780863701  0.22004588508008283  0.8474803929089348  1.0000
  O   O28       1.0  0.8869126431036419  0.16139424681473705  0.0827292027612572  1.0000
  O   O29       1.0  0.9781101904069442  0.0385871796845194  0.948643254833712  1.0000
  O   O30       1.0  0.7950967425454107  0.025555245808781997  0.8566543023781819  1.0000
  O   O31       1.0  0.8281720192805435  0.9912830649049977  0.028449275716099  1.0000
  O   O32       1.0  0.9305380679253756  0.11845463988690598  0.7988531793569534  1.0000
