data_image0
_chemical_formula_structural       Zn8H40C12S8N4O32
_chemical_formula_sum              "Zn8 H40 C12 S8 N4 O32"
_cell_length_a       8.82140153100121
_cell_length_b       11.076894804005322
_cell_length_c       11.076881257003802
_cell_angle_alpha    89.99990507332491
_cell_angle_beta     89.99999811810487
_cell_angle_gamma    89.9999399647239

_space_group_name_H-M_alt    "P 1"
_space_group_IT_number       1

loop_
  _space_group_symop_operation_xyz
  'x, y, z'

loop_
  _atom_site_type_symbol
  _atom_site_label
  _atom_site_symmetry_multiplicity
  _atom_site_fract_x
  _atom_site_fract_y
  _atom_site_fract_z
  _atom_site_occupancy
  Zn  Zn1       1.0  0.7470644416238484  0.7841849833745375  0.21581459984022194  1.0000
  Zn  Zn2       1.0  0.7470648037899748  0.21581403409493313  0.7841871471185088  1.0000
  Zn  Zn3       1.0  0.2470637223479101  0.2841867063485354  0.2841853481504231  1.0000
  Zn  Zn4       1.0  0.24706456301238683  0.7158154366384936  0.7158137034622244  1.0000
  Zn  Zn5       1.0  0.49082188355038164  0.5000001042643518  0.9999985631172738  1.0000
  Zn  Zn6       1.0  0.9908206631668434  0.49999899289894506  0.9999967510558181  1.0000
  Zn  Zn7       1.0  0.990821002510067  1.8808452609000008e-06  0.4999990275967364  1.0000
  Zn  Zn8       1.0  0.49081995568079134  2.089432278800001e-06  0.49999993687778516  1.0000
  H   H1        1.0  0.972869778827224  0.8684198514183594  0.017929405020233  1.0000
  H   H2        1.0  0.9728679764136455  0.13157897765074014  0.9820732388489051  1.0000
  H   H3        1.0  0.4728678453171609  0.4820705196801713  0.36842188818869204  1.0000
  H   H4        1.0  0.47286781626580404  0.5179278237851294  0.631579865899738  1.0000
  H   H5        1.0  0.47286887745399747  0.6315789024504358  0.517929550999007  1.0000
  H   H6        1.0  0.47286791773568376  0.3684194410143888  0.48207220308940896  1.0000
  H   H7        1.0  0.9728691871541244  0.017928087258354708  0.8684222094826383  1.0000
  H   H8        1.0  0.9728697016934617  0.982070741810269  0.13158043438648553  1.0000
  H   H9        1.0  0.5628034140718796  0.8475162414169123  0.9971039577877577  1.0000
  H   H10       1.0  0.5628004911716289  0.15248112423033433  0.0028995995255556004  1.0000
  H   H11       1.0  0.06280034024621269  0.5028960389958785  0.3475197834631629  1.0000
  H   H12       1.0  0.06280147133936957  0.4971008410468304  0.6524837868506311  1.0000
  H   H13       1.0  0.0628002387254227  0.6524793524491204  0.49710508539342163  1.0000
  H   H14       1.0  0.06280157286014539  0.3475175275928423  0.5028993877015608  1.0000
  H   H15       1.0  0.5628010515425573  0.9971016082324557  0.8475211163451419  1.0000
  H   H16       1.0  0.5628028537003188  0.0028966601933860013  0.15248424652980225  1.0000
  H   H17       1.0  0.7369356462531583  0.7907494028642221  0.9419910167024741  1.0000
  H   H18       1.0  0.7369337799723609  0.20925052583647397  0.05801163330006892  1.0000
  H   H19       1.0  0.23693363245781277  0.5580089318223713  0.2907510489920925  1.0000
  H   H20       1.0  0.23693370011095985  0.4419887057128662  0.7092525167936047  1.0000
  H   H21       1.0  0.2369335298127382  0.7092488453555035  0.4419911474640942  1.0000
  H   H22       1.0  0.23693380275545906  0.29074969496056013  0.5580115155396754  1.0000
  H   H23       1.0  0.7369344162761705  0.9419895669425957  0.7907506676311017  1.0000
  H   H24       1.0  0.7369361435572728  0.05800855619820313  0.20925107959173062  1.0000
  H   H25       1.0  0.45957955678675677  0.7170029488732654  0.1784693099093388  1.0000
  H   H26       1.0  0.45958209621242924  0.28299630845587853  0.8215351528673551  1.0000
  H   H27       1.0  0.9595819966210684  0.32153267118679457  0.2170012348553314  1.0000
  H   H28       1.0  0.9595738147833043  0.6784760995592479  0.7829932843204619  1.0000
  H   H29       1.0  0.9595862178527453  0.783002772374289  0.6784655808650017  1.0000
  H   H30       1.0  0.9595763951925063  0.2170050955888314  0.32152893831145246  1.0000
  H   H31       1.0  0.4595787663322639  0.17847161435856412  0.7170067198262658  1.0000
  H   H32       1.0  0.4595806194523248  0.8215294485324381  0.28299684016777604  1.0000
  H   H33       1.0  0.027534835941707997  0.7102088000753927  0.18588025191185412  1.0000
  H   H34       1.0  0.027537366738535192  0.289784498273889  0.8141188054158734  1.0000
  H   H35       1.0  0.5275293412275772  0.3141246437011774  0.2102087209648857  1.0000
  H   H36       1.0  0.5275370198559841  0.6858808764015123  0.7897849066656166  1.0000
  H   H37       1.0  0.5275233503610509  0.7897954638255628  0.6858683865806158  1.0000
  H   H38       1.0  0.5275282738364381  0.2102082507238593  0.3141243382703892  1.0000
  H   H39       1.0  0.027523833986023795  0.18586647188598712  0.7102060686412559  1.0000
  H   H40       1.0  0.0275268301666287  0.8141268264707903  0.28979479424911864  1.0000
  C   C1        1.0  0.9158130310168032  0.9505565865426963  0.0494436233591529  1.0000
  C   C2        1.0  0.9158136052083208  0.049440484571256625  0.9505581192137103  1.0000
  C   C3        1.0  0.4158123048388943  0.45055713112569157  0.45055694735432195  1.0000
  C   C4        1.0  0.4158111041209977  0.5494403571642651  0.5494448082182828  1.0000
  C   C5        1.0  0.6785639146277374  0.872984543069855  0.9716897420116198  1.0000
  C   C6        1.0  0.6785632913983546  0.1270154343357248  0.028309298383788897  1.0000
  C   C7        1.0  0.1785631069968545  0.5283083261389693  0.3729854126034341  1.0000
  C   C8        1.0  0.1785631389791291  0.4716893600976848  0.6270181546998616  1.0000
  C   C9        1.0  0.1785619064003257  0.627012801871601  0.4716918145970724  1.0000
  C   C10       1.0  0.17856320597014988  0.37298307880611503  0.5283108499265552  1.0000
  C   C11       1.0  0.678563851731333  0.9716918906580647  0.8729849820281714  1.0000
  C   C12       1.0  0.678564487900843  0.028308989525633915  0.12701586392884684  1.0000
  S   S1        1.0  0.7413455798172631  0.5050345669385693  0.19660816145047735  1.0000
  S   S2        1.0  0.7413444402472179  0.49496626086472173  0.8033917800930936  1.0000
  S   S3        1.0  0.241343536024921  0.30339268341966635  0.005036361744565501  1.0000
  S   S4        1.0  0.24134325677542273  0.6966067559957312  0.9949681067061749  1.0000
  S   S5        1.0  0.24134533387611867  0.9949631813229521  0.6966077053135251  1.0000
  S   S6        1.0  0.2413448597450554  0.005035355314682002  0.3033922492319904  1.0000
  S   S7        1.0  0.7413435091341752  0.19660671867757176  0.5050354841938401  1.0000
  S   S8        1.0  0.741343110111373  0.8033923035677194  0.49496355457007724  1.0000
  N   N1        1.0  0.7572305415624712  0.917690916588811  0.08231030451221241  1.0000
  N   N2        1.0  0.7572310738681268  0.08230899517859312  0.9176914421814574  1.0000
  N   N3        1.0  0.2572286831425855  0.4176897100568201  0.4176930331266959  1.0000
  N   N4        1.0  0.25722970502452813  0.5823079105448556  0.5823105321313307  1.0000
  O   O1        1.0  0.5996311825473624  0.43789942737875265  0.1457545546974046  1.0000
  O   O2        1.0  0.5996310861315308  0.5621015186634185  0.8542453905306362  1.0000
  O   O3        1.0  0.099630174326073  0.3542437663104111  0.9378981767266767  1.0000
  O   O4        1.0  0.09963113430692519  0.6457485691045053  0.06210358707093632  1.0000
  O   O5        1.0  0.09962810538908677  0.06209805428304803  0.6457539130212668  1.0000
  O   O6        1.0  0.09962866881289757  0.9379006005943399  0.35424785077116644  1.0000
  O   O7        1.0  0.5996302350969458  0.14575232860457285  0.43789839969791444  1.0000
  O   O8        1.0  0.5996297663679613  0.8542495202201227  0.5620997399670388  1.0000
  O   O9        1.0  0.8804051620489446  0.4357723617076845  0.14414399117347904  1.0000
  O   O10       1.0  0.8804039291584473  0.5642319611946932  0.8558523356268851  1.0000
  O   O11       1.0  0.3804041513786983  0.3558551133868378  0.9357712192670677  1.0000
  O   O12       1.0  0.3804051133871127  0.6441442100073972  0.06422782888104452  1.0000
  O   O13       1.0  0.3804020820882172  0.06423030503684403  0.6441460543121381  1.0000
  O   O14       1.0  0.3804026482494933  0.9357708239172029  0.35585570217809703  1.0000
  O   O15       1.0  0.8804030806591853  0.1441470702483798  0.4357723476844058  1.0000
  O   O16       1.0  0.8804048769426557  0.8558554470935609  0.5642248818986532  1.0000
  O   O17       1.0  0.7425131182643127  0.6235037472981663  0.12535425260668384  1.0000
  O   O18       1.0  0.7425155324498859  0.3764979823058498  0.8746502028116655  1.0000
  O   O19       1.0  0.2425111015978985  0.37465172502230365  0.12350376384463152  1.0000
  O   O20       1.0  0.24251092102685579  0.6253567412227101  0.8764970934435325  1.0000
  O   O21       1.0  0.24251416181893856  0.8764995347165582  0.6253440621713225  1.0000
  O   O22       1.0  0.2425112616314137  0.12350080651077629  0.3746513784364112  1.0000
  O   O23       1.0  0.7425077676574857  0.12534567429086962  0.6235002960257532  1.0000
  O   O24       1.0  0.7425095469926647  0.8746515414219548  0.37649874270936584  1.0000
  O   O25       1.0  0.5181382533820765  0.7534860167548559  0.24651821639067617  1.0000
  O   O26       1.0  0.5181397100309012  0.2465149972742538  0.7534889532056115  1.0000
  O   O27       1.0  0.018138668987326398  0.25348688781264883  0.2534808856386803  1.0000
  O   O28       1.0  0.018139467973234995  0.7465262795478228  0.7465073385426707  1.0000
  O   O29       1.0  0.9714641841308518  0.74289169459405  0.25712048152473  1.0000
  O   O30       1.0  0.9714633600721355  0.2570990106303981  0.7428776484817448  1.0000
  O   O31       1.0  0.4714623329676895  0.24288445818755383  0.242888556872316  1.0000
  O   O32       1.0  0.4714619839584131  0.7571247198235229  0.7570987527447103  1.0000
