data_image0
_chemical_formula_structural       Mn2H8C8N6O10
_chemical_formula_sum              "Mn2 H8 C8 N6 O10"
_cell_length_a       6.904842854157499
_cell_length_b       7.315016126673047
_cell_length_c       9.0418860149522
_cell_angle_alpha    99.11517193220361
_cell_angle_beta     99.07553865675882
_cell_angle_gamma    112.08907159228956

_space_group_name_H-M_alt    "P 1"
_space_group_IT_number       1

loop_
  _space_group_symop_operation_xyz
  'x, y, z'

loop_
  _atom_site_type_symbol
  _atom_site_label
  _atom_site_symmetry_multiplicity
  _atom_site_fract_x
  _atom_site_fract_y
  _atom_site_fract_z
  _atom_site_occupancy
  Mn  Mn1       1.0  0.7449221602761612  0.9796481252652998  0.7721201409739679  1.0000
  Mn  Mn2       1.0  0.2550831888652709  0.020353347973980404  0.2278799801613474  1.0000
  H   H1        1.0  0.8062428101351529  0.707623590866099  0.4527615522511965  1.0000
  H   H2        1.0  0.193756153394645  0.2923733265348644  0.5472371791097856  1.0000
  H   H3        1.0  0.1264411142104863  0.4673821183867942  0.7583217150099131  1.0000
  H   H4        1.0  0.8735528321057658  0.5326131037305828  0.24167955723847  1.0000
  H   H5        1.0  0.019887258025931914  0.2774089288809733  0.007700826989832899  1.0000
  H   H6        1.0  0.980114481468604  0.7225910833668794  0.9922975854071298  1.0000
  H   H7        1.0  0.17676676085414303  0.20722740703256906  0.9358587544141558  1.0000
  H   H8        1.0  0.8232392357148157  0.7927756424408231  0.0641405844990288  1.0000
  C   C1        1.0  0.8780009796479573  0.6787919693204427  0.5568470584852959  1.0000
  C   C2        1.0  0.12199796917322912  0.32120500646322375  0.4431505738544886  1.0000
  C   C3        1.0  0.047262437695614806  0.5572442054532232  0.7139876282196552  1.0000
  C   C4        1.0  0.9527357215692475  0.44275422903779565  0.2860112734813569  1.0000
  C   C5        1.0  0.4023317326847006  0.9047252180596884  0.5037054221849004  1.0000
  C   C6        1.0  0.5976629884792712  0.09526860373303242  0.4962934816810645  1.0000
  C   C7        1.0  0.5198884054434387  0.9121121620067995  0.028155719934304112  1.0000
  C   C8        1.0  0.4801165614374199  0.08789824090878542  0.971849159681902  1.0000
  N   N1        1.0  0.8803395568719168  0.7568038553147076  0.6991921254725852  1.0000
  N   N2        1.0  0.11965924982046522  0.24319615541042344  0.3008059940062964  1.0000
  N   N3        1.0  0.9872662676165689  0.6802691036003453  0.7978776639155213  1.0000
  N   N4        1.0  0.01273041053860169  0.319729388512016  0.20211999230524919  1.0000
  N   N5        1.0  0.9813751823994394  0.5526295168390618  0.561841370832788  1.0000
  N   N6        1.0  0.01862166730175117  0.44736582356642873  0.4381579962912808  1.0000
  O   O1        1.0  0.43664006622888957  0.8009094141908264  0.5959236978478302  1.0000
  O   O2        1.0  0.5633537820843841  0.19908866771992012  0.4040813586032499  1.0000
  O   O3        1.0  0.22274327521983384  0.8686678274841382  0.4158464589505683  1.0000
  O   O4        1.0  0.7772559431503437  0.13132313679928842  0.5841491000898174  1.0000
  O   O5        1.0  0.6365494250989486  0.8443784093969813  0.9598470750647792  1.0000
  O   O6        1.0  0.36345778303071086  0.15563059395530132  0.040155582628038616  1.0000
  O   O7        1.0  0.4371020732534133  0.8499856818356618  0.13470225106249245  1.0000
  O   O8        1.0  0.5629079108409839  0.1500264163635094  0.8653000876663057  1.0000
  O   O9        1.0  0.04366276310611992  0.2300634685075877  0.9042221155091141  1.0000
  O   O10       1.0  0.9563411049256273  0.7699380623530276  0.09577676014595937  1.0000
