data_image0
_chemical_formula_structural       Ag4H68C48S4N16O8
_chemical_formula_sum              "Ag4 H68 C48 S4 N16 O8"
_cell_length_a       6.431581161251159
_cell_length_b       11.060667047471416
_cell_length_c       18.889413358654345
_cell_angle_alpha    90.00077261132758
_cell_angle_beta     90.00038627402247
_cell_angle_gamma    102.16624805684187

_space_group_name_H-M_alt    "P 1"
_space_group_IT_number       1

loop_
  _space_group_symop_operation_xyz
  'x, y, z'

loop_
  _atom_site_type_symbol
  _atom_site_label
  _atom_site_symmetry_multiplicity
  _atom_site_fract_x
  _atom_site_fract_y
  _atom_site_fract_z
  _atom_site_occupancy
  Ag  Ag1       1.0  0.3868039929346949  0.39362522273193434  0.4609019696361685  1.0000
  Ag  Ag2       1.0  0.11319038696850468  0.10637776420517044  0.9609012234064096  1.0000
  Ag  Ag3       1.0  0.6131888534862638  0.6063666671250516  0.5390907826659088  1.0000
  Ag  Ag4       1.0  0.8868250527731406  0.8936299407634182  0.0390968229546971  1.0000
  H   H1        1.0  0.6576627795375243  0.3041785377983929  0.3311694610079812  1.0000
  H   H2        1.0  0.8423393655562634  0.19583826068593882  0.8311778831466012  1.0000
  H   H3        1.0  0.3423326821852157  0.6958253664845345  0.6688201149624929  1.0000
  H   H4        1.0  0.15767172186453854  0.8041703439287886  0.1688286335662426  1.0000
  H   H5        1.0  0.4641186762077253  0.17519388294208937  0.3630511387226036  1.0000
  H   H6        1.0  0.03587846991598553  0.3248139285867282  0.8630551351240783  1.0000
  H   H7        1.0  0.5358664755556859  0.8248071962153888  0.6369384372250408  1.0000
  H   H8        1.0  0.9641378856512545  0.675191935167433  0.1369450288189782  1.0000
  H   H9        1.0  0.8996112653780628  0.3848055009064168  0.5040928408022864  1.0000
  H   H10       1.0  0.6003947794117648  0.1151971719830485  0.0040970784078738  1.0000
  H   H11       1.0  0.10038034422007773  0.615187305340335  0.495898852707917  1.0000
  H   H12       1.0  0.3996394016048938  0.8848152501310691  0.9959136735226437  1.0000
  H   H13       1.0  0.9087053585407076  0.426337669173428  0.4120991589715786  1.0000
  H   H14       1.0  0.5912981892282758  0.07367388193149078  0.9121007499869903  1.0000
  H   H15       1.0  0.09129940292044134  0.5736616700164419  0.5878946521676837  1.0000
  H   H16       1.0  0.4087232081676292  0.926337547822698  0.0879068255428237  1.0000
  H   H17       1.0  0.45657579197356307  0.12241517949740913  0.487769986501668  1.0000
  H   H18       1.0  0.043430388330683946  0.37759780950278105  0.9877728321059819  1.0000
  H   H19       1.0  0.5434000128932368  0.8775858490717143  0.5122211776264649  1.0000
  H   H20       1.0  0.9566044345462642  0.6224164621415086  0.0122268024942471  1.0000
  H   H21       1.0  0.6451715838222752  0.21413359032272442  0.5466273412204998  1.0000
  H   H22       1.0  0.8548316978109726  0.2858720332683262  0.04663403943251859  1.0000
  H   H23       1.0  0.3548094892777911  0.7858646974629266  0.45336329350556775  1.0000
  H   H24       1.0  0.14520779858926156  0.71414226373674  0.9533698303495867  1.0000
  H   H25       1.0  0.02243339508696355  0.2924467683527824  0.32551738697076615  1.0000
  H   H26       1.0  0.47756359495770784  0.20756282382834712  0.8255225005887681  1.0000
  H   H27       1.0  0.9775585355399768  0.707546962746676  0.6744753653376208  1.0000
  H   H28       1.0  0.5224465294635081  0.7924430063053763  0.17448666309727653  1.0000
  H   H29       1.0  0.10402670259535539  0.1549038604367823  0.353627385606643  1.0000
  H   H30       1.0  0.39596645207283376  0.34510645072300866  0.8536281175385837  1.0000
  H   H31       1.0  0.8959611493524517  0.8450870792768227  0.6463653666860337  1.0000
  H   H32       1.0  0.6040446826166671  0.654906769671264  0.1463799873838951  1.0000
  H   H33       1.0  0.8429941766029857  0.9822042239846241  0.3977943433678631  1.0000
  H   H34       1.0  0.6570092102864179  0.5177989980172127  0.8977972251733348  1.0000
  H   H35       1.0  0.15699308054803401  0.017789481796114604  0.6021973501410328  1.0000
  H   H36       1.0  0.34300902416123347  0.4822077990525884  0.10220611515794789  1.0000
  H   H37       1.0  0.5699888455923697  0.9937602630797144  0.40244165952775285  1.0000
  H   H38       1.0  0.9300063432443721  0.506250421660262  0.9024455921063889  1.0000
  H   H39       1.0  0.42998819607357314  0.006239849078603801  0.5975489752010574  1.0000
  H   H40       1.0  0.07001569605129286  0.49376285765914935  0.0975535130784664  1.0000
  H   H41       1.0  0.01528949010154432  0.20147905835218446  0.5410472675163263  1.0000
  H   H42       1.0  0.48472238528123057  0.2985231277111069  0.0410532995592376  1.0000
  H   H43       1.0  0.9846958409792775  0.7985090984034569  0.45894495536537516  1.0000
  H   H44       1.0  0.5153108799966546  0.7014911356945391  0.958961158157045  1.0000
  H   H45       1.0  0.09691591729618658  0.1023084040486566  0.476805689140491  1.0000
  H   H46       1.0  0.4030873680143828  0.3976968959387436  0.976810561776027  1.0000
  H   H47       1.0  0.9030625404468466  0.8976778692619832  0.5231844161377239  1.0000
  H   H48       1.0  0.5969477760176362  0.6023183006703975  0.023198601975423092  1.0000
  H   H49       1.0  0.2608590577321053  0.4453923655866917  0.2771816649179542  1.0000
  H   H50       1.0  0.23913107125943606  0.0545734545716456  0.7771760245856284  1.0000
  H   H51       1.0  0.7391205425646987  0.5545837600134007  0.7228243222330945  1.0000
  H   H52       1.0  0.7608628327379704  0.9454304413604933  0.2228199041478476  1.0000
  H   H53       1.0  0.3709706817570932  0.3145368721813356  0.1815631576757681  1.0000
  H   H54       1.0  0.1290346007820631  0.18542005183109472  0.6815583122647695  1.0000
  H   H55       1.0  0.6290415855788255  0.6854348148491739  0.8184470646708206  1.0000
  H   H56       1.0  0.8709478038281658  0.814586551257058  0.3184466162166828  1.0000
  H   H57       1.0  0.755565034221206  0.334712617587023  0.15461100670143677  1.0000
  H   H58       1.0  0.7444452620546969  0.16527096194577243  0.654598319034953  1.0000
  H   H59       1.0  0.24444146458260016  0.6652738078181458  0.8453992156973769  1.0000
  H   H60       1.0  0.255523075016903  0.8347309495468734  0.3454124327797317  1.0000
  H   H61       1.0  0.027183738976951692  0.48814811349974024  0.2204487361673202  1.0000
  H   H62       1.0  0.47281662310459177  0.011855039143867398  0.7204401040738588  1.0000
  H   H63       1.0  0.9728087865967368  0.5118428516657546  0.7795551334690884  1.0000
  H   H64       1.0  0.5271633926952646  0.9881312428119532  0.2795658831181029  1.0000
  H   H65       1.0  0.9155896691740252  0.613672635290648  0.31668297393832745  1.0000
  H   H66       1.0  0.5843728165256437  0.8863430001934918  0.8166886282196231  1.0000
  H   H67       1.0  0.08440446133845828  0.3863229539561176  0.6833124253652585  1.0000
  H   H68       1.0  0.4156253455314455  0.11365076477873261  0.1833141826401388  1.0000
  C   C1        1.0  0.6283855502882003  0.22757948156268532  0.36914118635154836  1.0000
  C   C2        1.0  0.8716124114521547  0.27243644736135053  0.86914551984988  1.0000
  C   C3        1.0  0.37160954315282885  0.7724188821020023  0.630846801405248  1.0000
  C   C4        1.0  0.128405823019179  0.7275703497294758  0.1308594086725918  1.0000
  C   C5        1.0  0.8783430838450526  0.3490764097382026  0.4497913588081772  1.0000
  C   C6        1.0  0.621666214039962  0.15093154902415762  0.9497957510582821  1.0000
  C   C7        1.0  0.12166103556639041  0.6509210797532747  0.5502008641318028  1.0000
  C   C8        1.0  0.37833987893924353  0.8490761054752268  0.0502128832334279  1.0000
  C   C9        1.0  0.6206008380515229  0.17528224048168542  0.4931130565171458  1.0000
  C   C10       1.0  0.8794009994123257  0.3247240487360941  0.9931178240529094  1.0000
  C   C11       1.0  0.3793774404214573  0.8247169552728552  0.506877578209405  1.0000
  C   C12       1.0  0.12063377625906212  0.675285607184719  0.0068844575142109  1.0000
  C   C13       1.0  0.9931684495639458  0.21617143692791527  0.3638856966588833  1.0000
  C   C14       1.0  0.5068308660468047  0.28383974550661856  0.8638898307904411  1.0000
  C   C15       1.0  0.006832233225956939  0.7838251108831074  0.6361086438617463  1.0000
  C   C16       1.0  0.49318649992288494  0.71617350862725  0.1361182741391644  1.0000
  C   C17       1.0  0.735239129636227  0.04516218195248461  0.4079496199352519  1.0000
  C   C18       1.0  0.7647642944501455  0.45484925931267384  0.9079541076099032  1.0000
  C   C19       1.0  0.26474285925785074  0.9548342645907014  0.5920410147845132  1.0000
  C   C20       1.0  0.23525586611505392  0.5451630868242744  0.092051879730974  1.0000
  C   C21       1.0  0.9864235792516494  0.16374320147029664  0.4874186973036813  1.0000
  C   C22       1.0  0.5135790514609226  0.33626571147655687  0.9874232642084664  1.0000
  C   C23       1.0  0.013547731456640233  0.8362448793782705  0.5125740549590319  1.0000
  C   C24       1.0  0.48646017126602453  0.663752276532456  0.01258695835282  1.0000
  C   C25       1.0  0.5811093909653807  0.5379099365553728  0.30094967443194776  1.0000
  C   C26       1.0  0.9188361218392913  0.9620756536667021  0.800949801442691  1.0000
  C   C27       1.0  0.4188225588254753  0.46206777714209585  0.6990489011129738  1.0000
  C   C28       1.0  0.08117519208869337  0.037924644255646504  0.1990556564431927  1.0000
  C   C29       1.0  0.42778758726322497  0.4536217572197359  0.2636875540285927  1.0000
  C   C30       1.0  0.0722079652686958  0.04636496884049991  0.7637095312116315  1.0000
  C   C31       1.0  0.5722012181319727  0.5463405716370743  0.7363126097101258  1.0000
  C   C32       1.0  0.9277653663076322  0.9536378928235649  0.23630333820070598  1.0000
  C   C33       1.0  0.4899199930441255  0.3805885264697508  0.2108175068190903  1.0000
  C   C34       1.0  0.010080298596683714  0.1193746789139425  0.7108028682713365  1.0000
  C   C35       1.0  0.510060891194236  0.6193912983869438  0.7891810687892187  1.0000
  C   C36       1.0  0.9899404566627011  0.8806349010647522  0.28919729569147273  1.0000
  C   C37       1.0  0.7058384583420078  0.3926703173195347  0.19518999613624288  1.0000
  C   C38       1.0  0.7941965944254078  0.10730154079639928  0.6951758997164034  1.0000
  C   C39       1.0  0.2941982337289986  0.6073135021834375  0.8048138735213256  1.0000
  C   C40       1.0  0.20576830583523517  0.8926994288475778  0.304824264149353  1.0000
  C   C41       1.0  0.8588066221900805  0.47674150469378423  0.2328523394595621  1.0000
  C   C42       1.0  0.6411642766920949  0.023276229320316602  0.7328483471099929  1.0000
  C   C43       1.0  0.14118260851292064  0.5232623660808499  0.7671547066069379  1.0000
  C   C44       1.0  0.35881583360569647  0.9767192841595572  0.2671581695159162  1.0000
  C   C45       1.0  0.7971943906870178  0.5496113986081924  0.2860834354015438  1.0000
  C   C46       1.0  0.7027725355164308  0.9503785317522785  0.7860792779504422  1.0000
  C   C47       1.0  0.20277508857529367  0.4503803648514833  0.7139188460209525  1.0000
  C   C48       1.0  0.2972181584534325  0.049616115884134615  0.21392353290444527  1.0000
  S   S1        1.0  0.4958304215077121  0.6424738508894308  0.3633166751759446  1.0000
  S   S2        1.0  0.0041355680785103155  0.8575295396377032  0.8633266842759894  1.0000
  S   S3        1.0  0.5041468939104375  0.3575225703350356  0.6366729007443439  1.0000
  S   S4        1.0  0.995882345348235  0.14247633258639783  0.1366761266541801  1.0000
  N   N1        1.0  0.6545567594580817  0.28013487195268993  0.44204204797072316  1.0000
  N   N2        1.0  0.8454436024732599  0.21987468067894161  0.9420464334036183  1.0000
  N   N3        1.0  0.345435218358638  0.7198634748562258  0.5579469985766394  1.0000
  N   N4        1.0  0.15457683182836493  0.7801339745101288  0.057957436334604  1.0000
  N   N5        1.0  0.7747536400133652  0.14541830973185202  0.3552792907917635  1.0000
  N   N6        1.0  0.7252404245090529  0.35459169466510343  0.85528342046058  1.0000
  N   N7        1.0  0.2252380168297989  0.8545791122734201  0.6447124027368787  1.0000
  N   N8        1.0  0.27477689419193757  0.6454169436892202  0.1447230962593977  1.0000
  N   N9        1.0  0.031406088196007424  0.26837711675731424  0.4364185748411771  1.0000
  N   N10       1.0  0.4685951243510685  0.23163357079511826  0.9364233306406078  1.0000
  N   N11       1.0  0.9685876740584333  0.7316129318922506  0.5635768244399272  1.0000
  N   N12       1.0  0.5314229309133509  0.7683861487956705  0.0635863625067259  1.0000
  N   N13       1.0  0.7672174146005728  0.09234518612861113  0.4809754043885305  1.0000
  N   N14       1.0  0.7327902922508753  0.40766081544004623  0.9809810325444062  1.0000
  N   N15       1.0  0.23275802202397952  0.9076503018573167  0.5190168185112539  1.0000
  N   N16       1.0  0.2672510830139885  0.5923544148666339  0.0190249548317851  1.0000
  O   O1        1.0  0.3020764074348321  0.5598175947224675  0.3984008600210628  1.0000
  O   O2        1.0  0.19791184285345775  0.9401896089057475  0.8984045513507084  1.0000
  O   O3        1.0  0.6979127758179402  0.4401816601114065  0.6015924217033017  1.0000
  O   O4        1.0  0.8021079966119088  0.059821812315412615  0.1015956126184037  1.0000
  O   O5        1.0  0.6834008408531743  0.6720130114162047  0.4140020079920674  1.0000
  O   O6        1.0  0.8165578998336116  0.8279950109699783  0.9140098368069117  1.0000
  O   O7        1.0  0.31657931641340287  0.32798711757686766  0.5859859797549801  1.0000
  O   O8        1.0  0.1834509876385084  0.17201173544135884  0.0859897977342072  1.0000
