data_image0
_chemical_formula_structural       K4H28C16O24
_chemical_formula_sum              "K4 H28 C16 O24"
_cell_length_a       6.499228708952139
_cell_length_b       8.39456910786045
_cell_length_c       13.688811673035765
_cell_angle_alpha    89.99977006054449
_cell_angle_beta     89.99993461133982
_cell_angle_gamma    104.45754380992459

_space_group_name_H-M_alt    "P 1"
_space_group_IT_number       1

loop_
  _space_group_symop_operation_xyz
  'x, y, z'

loop_
  _atom_site_type_symbol
  _atom_site_label
  _atom_site_symmetry_multiplicity
  _atom_site_fract_x
  _atom_site_fract_y
  _atom_site_fract_z
  _atom_site_occupancy
  K   K1        1.0  0.11253546153261595  0.9632330184380962  0.6484392860690705  1.0000
  K   K2        1.0  0.3874620762215174  0.0367642912345403  0.14844005613637995  1.0000
  K   K3        1.0  0.8874657506413541  0.0367642235929608  0.3515620111247841  1.0000
  K   K4        1.0  0.612534568058841  0.9632378715229563  0.851561971576189  1.0000
  H   H1        1.0  0.9589122792182039  0.5858011211691405  0.7297007831579096  1.0000
  H   H2        1.0  0.541092057593815  0.41419819049852435  0.22970226308311945  1.0000
  H   H3        1.0  0.04108898102195719  0.41420104166237337  0.27029832245903423  1.0000
  H   H4        1.0  0.45891069323460704  0.5857990515590143  0.7702975730631254  1.0000
  H   H5        1.0  0.06793363061358802  0.24862338294416025  0.8072596661003077  1.0000
  H   H6        1.0  0.43206472205338997  0.7513776653296133  0.3072586431536807  1.0000
  H   H7        1.0  0.9320653456771028  0.751381240246495  0.19274090056139676  1.0000
  H   H8        1.0  0.5679361415070545  0.24862326729584786  0.6927411929884927  1.0000
  H   H9        1.0  0.9151122314459313  0.2604796358682647  0.7214835375140753  1.0000
  H   H10       1.0  0.5848867840564511  0.7395221972975109  0.22148272769743477  1.0000
  H   H11       1.0  0.08488977409102456  0.73952006658034  0.2785148375821151  1.0000
  H   H12       1.0  0.41511100220397174  0.2604787352885721  0.778516377921953  1.0000
  H   H13       1.0  0.34555519083373554  0.031415039648962306  0.41928462110291065  1.0000
  H   H14       1.0  0.15444490138233394  0.9685827143738877  0.9192838156065479  1.0000
  H   H15       1.0  0.6544355513348137  0.9685735908453453  0.5807188676751809  1.0000
  H   H16       1.0  0.8455529329354051  0.0314231389990596  0.08071675105394151  1.0000
  H   H17       1.0  0.22842302680291476  0.8465105167085554  0.4384679232930254  1.0000
  H   H18       1.0  0.2715708175781018  0.15348709442172037  0.9384705350495753  1.0000
  H   H19       1.0  0.7715665733997741  0.15347934397891547  0.5615326433894341  1.0000
  H   H20       1.0  0.7284281587090432  0.846517528763499  0.061531492659334205  1.0000
  H   H21       1.0  0.024420828730299552  0.7342598883422368  0.016505265279285204  1.0000
  H   H22       1.0  0.47557814351899447  0.2657408638098175  0.5165089521551139  1.0000
  H   H23       1.0  0.9755762602995122  0.265748425427212  0.9834923792839448  1.0000
  H   H24       1.0  0.5244238139535397  0.7342539178410448  0.48349088399437795  1.0000
  H   H25       1.0  0.277598936586287  0.581503386258504  0.05401485221537432  1.0000
  H   H26       1.0  0.22239677609091757  0.41849708665676383  0.5540139117367461  1.0000
  H   H27       1.0  0.7223970104634674  0.41850615768235855  0.9459857144410437  1.0000
  H   H28       1.0  0.7776028493783829  0.5814952345718184  0.44598446336921443  1.0000
  C   C1        1.0  0.991059253041975  0.6734588088701088  0.8651631185521609  1.0000
  C   C2        1.0  0.5089452188327996  0.32654195485587684  0.3651648325357898  1.0000
  C   C3        1.0  0.00893902601989536  0.32655319550663353  0.1348352565297901  1.0000
  C   C4        1.0  0.4910578325553772  0.6734466758258362  0.6348335425738372  1.0000
  C   C5        1.0  0.0068463418944589025  0.6253577485919308  0.9703559150760699  1.0000
  C   C6        1.0  0.49315543745748164  0.3746408554827595  0.47035798417469027  1.0000
  C   C7        1.0  0.9931514924268258  0.37464810478645216  0.029643190537207407  1.0000
  C   C8        1.0  0.5068492006389178  0.6253526960068642  0.529641851975619  1.0000
  C   C9        1.0  0.17234435559920058  0.5230800382596925  0.9944282116035341  1.0000
  C   C10       1.0  0.3276546261546898  0.4769196167996199  0.49442719296811094  1.0000
  C   C11       1.0  0.827652336747349  0.4769270452982611  0.005571624532123602  1.0000
  C   C12       1.0  0.6723488699705273  0.52307516487501  0.5055719126573734  1.0000
  C   C13       1.0  0.3103459626682011  0.49450843264086336  0.9101703488080519  1.0000
  C   C14       1.0  0.1896557124909819  0.5054893892481616  0.4101693324792564  1.0000
  C   C15       1.0  0.6896534103039829  0.5054974207585731  0.08982875680482043  1.0000
  C   C16       1.0  0.8103493222833579  0.49450539244480046  0.5898305036694254  1.0000
  O   O1        1.0  0.999913946298321  0.8174167869407967  0.8389904689245004  1.0000
  O   O2        1.0  0.5000925400321207  0.18258048103853503  0.3389925440442809  1.0000
  O   O3        1.0  7.808203111639635e-05  0.18258537575628253  0.1610108282656881  1.0000
  O   O4        1.0  0.499910607472465  0.8174179912196279  0.6610080226239322  1.0000
  O   O5        1.0  0.96537470288267  0.5493981461436023  0.8041367983393857  1.0000
  O   O6        1.0  0.5346308108513185  0.4506006114624909  0.3041381915506776  1.0000
  O   O7        1.0  0.03462546344540131  0.45061016766250367  0.19586230727023232  1.0000
  O   O8        1.0  0.46537422392479755  0.549394170233185  0.6958609140744088  1.0000
  O   O9        1.0  0.42784474858113  0.6238089064943537  0.8711024859629506  1.0000
  O   O10       1.0  0.07215478442269331  0.3761867457741346  0.37110258251022543  1.0000
  O   O11       1.0  0.5721503570536512  0.3761932562502536  0.12889735017922282  1.0000
  O   O12       1.0  0.9278464277566059  0.6238104962650795  0.6288965231128216  1.0000
  O   O13       1.0  0.3029906069466932  0.3491113459854702  0.8819445598544963  1.0000
  O   O14       1.0  0.19700927005585808  0.6508854557943451  0.3819409880546446  1.0000
  O   O15       1.0  0.6970037533877473  0.6508932771366103  0.11805746785563542  1.0000
  O   O16       1.0  0.8029950194216938  0.34911178628152584  0.6180595786147906  1.0000
  O   O17       1.0  0.9551251652871359  0.1812036024885373  0.7663326605197657  1.0000
  O   O18       1.0  0.544874774236341  0.8187966666446016  0.2663331366419897  1.0000
  O   O19       1.0  0.04487569826975596  0.8187973301314884  0.23366863666961282  1.0000
  O   O20       1.0  0.4551287699426396  0.1812030358114569  0.7336688910718012  1.0000
  O   O21       1.0  0.23034511288511086  0.9599740836513107  0.4581013346211478  1.0000
  O   O22       1.0  0.2696493813868416  0.040020920956997906  0.9581013062437337  1.0000
  O   O23       1.0  0.7696436939545991  0.0400133166186123  0.5419021541589758  1.0000
  O   O24       1.0  0.7303511335565318  0.9599837022574248  0.04189852989396311  1.0000
