data_image0
_chemical_formula_structural       Zn4H32C44N16O8
_chemical_formula_sum              "Zn4 H32 C44 N16 O8"
_cell_length_a       9.554250484
_cell_length_b       9.600095850313256
_cell_length_c       12.2372
_cell_angle_alpha    90.0
_cell_angle_beta     90.0
_cell_angle_gamma    98.84193664625964

_space_group_name_H-M_alt    "P 1"
_space_group_IT_number       1

loop_
  _space_group_symop_operation_xyz
  'x, y, z'

loop_
  _atom_site_type_symbol
  _atom_site_label
  _atom_site_symmetry_multiplicity
  _atom_site_fract_x
  _atom_site_fract_y
  _atom_site_fract_z
  _atom_site_occupancy
  Zn  Zn1       1.0  0.08315793495231108  0.3846253722388013  0.061617036576997485  1.0000
  Zn  Zn2       1.0  0.5831574230289647  0.884624862593526  0.4383829634230024  1.0000
  Zn  Zn3       1.0  0.91684273911644  0.6153778252068136  0.9383845977838092  1.0000
  Zn  Zn4       1.0  0.41684220438521186  0.1153783348520818  0.5616170365769975  1.0000
  H   H1        1.0  0.09844474642542882  0.6649708592026968  0.7556932958519906  1.0000
  H   H2        1.0  0.5984467427909266  0.164974531400091  0.744306704148009  1.0000
  H   H3        1.0  0.9015542297278786  0.3350281215067596  0.2443067041480091  1.0000
  H   H4        1.0  0.4015570712415625  0.835028666045524  0.2556941130323906  1.0000
  H   H5        1.0  0.2939148643881709  0.7305706236677878  0.6258261693851564  1.0000
  H   H6        1.0  0.7939187912476059  0.23057324168114227  0.8741738306148433  1.0000
  H   H7        1.0  0.7060841117651366  0.2694283570416616  0.37417546497565  1.0000
  H   H8        1.0  0.20608590662424583  0.7694289015804259  0.1258245350243499  1.0000
  H   H9        1.0  0.5167002980607832  0.626111527106012  0.6419867289902896  1.0000
  H   H10       1.0  0.016703949947860505  0.1261120367512873  0.8580132710097104  1.0000
  H   H11       1.0  0.48329851527730494  0.3738863994193977  0.3580132710097104  1.0000
  H   H12       1.0  0.983300422293546  0.8738879981422016  0.1419842774490903  1.0000
  H   H13       1.0  0.5372513368916074  0.4541161299969545  0.7924288235870947  1.0000
  H   H14       1.0  0.037250712811122404  0.9541145661676396  0.7075703592325053  1.0000
  H   H15       1.0  0.46274747644648073  0.5458817965284553  0.2075711764129053  1.0000
  H   H16       1.0  0.9627479377117468  0.0458823061737306  0.2924280064066949  1.0000
  H   H17       1.0  0.5682584845794665  0.2528586922948861  0.08525071094695137  1.0000
  H   H18       1.0  0.06825851175985781  0.7528613452017368  0.41475010623345543  1.0000
  H   H19       1.0  0.4317403287586218  0.7471392342305236  0.9147484718726487  1.0000
  H   H20       1.0  0.9317411156543258  0.24714185224387816  0.5852498937665445  1.0000
  H   H21       1.0  0.49074572660572374  0.10929463875502418  0.9999133788775223  1.0000
  H   H22       1.0  0.990746424152171  0.6092951832937885  0.500084169581278  1.0000
  H   H23       1.0  0.5092509934232083  0.8907032877703855  8.58039420777e-05  1.0000
  H   H24       1.0  0.009253598655711001  0.3907037974156609  0.4999133788775225  1.0000
  H   H25       1.0  0.2647140473813039  0.1118404932125543  0.0861340829601573  1.0000
  H   H26       1.0  0.7647128144338212  0.6118420919353582  0.4138659170398426  1.0000
  H   H27       1.0  0.7352838821174218  0.8881584874969022  0.9138650998594429  1.0000
  H   H28       1.0  0.23528423122554903  0.3881579429581308  0.5861357173209569  1.0000
  H   H29       1.0  0.3440641354184493  0.2489898368666772  0.17394910600464186  1.0000
  H   H30       1.0  0.8440639491255412  0.7489914355894811  0.3260517111757578  1.0000
  H   H31       1.0  0.6559337940802763  0.7510091438427793  0.826050893995358  1.0000
  H   H32       1.0  0.1559329337186099  0.2510075451199683  0.6739482888242421  1.0000
  C   C1        1.0  0.2055357946716398  0.5270119022055582  0.8537819108946465  1.0000
  C   C2        1.0  0.7055376282219187  0.0270145202189127  0.6462189062857532  1.0000
  C   C3        1.0  0.7944621348270928  0.4729870785038912  0.1462189062857533  1.0000
  C   C4        1.0  0.29446272021640146  0.9729865688586229  0.3537810937142467  1.0000
  C   C5        1.0  0.1958286715608963  0.6205559772131863  0.7651162030529832  1.0000
  C   C6        1.0  0.6958297840870387  0.12056070359462011  0.7348821625862101  1.0000
  C   C7        1.0  0.8041699789619728  0.3794408951281838  0.23488216258621009  1.0000
  C   C8        1.0  0.3041720994515131  0.8794435480350346  0.2651170202333901  1.0000
  C   C9        1.0  0.3056836828806624  0.6562780576056753  0.691386101395743  1.0000
  C   C10       1.0  0.805686725900742  0.1562817298030765  0.8086122642434573  1.0000
  C   C11       1.0  0.6943137581724131  0.3437177605516553  0.3086130814238571  1.0000
  C   C12       1.0  0.194316925316528  0.8437204134584989  0.1913852842153432  1.0000
  C   C13       1.0  0.4310527254348174  0.5978804785044929  0.7003562906547243  1.0000
  C   C14       1.0  0.931054558985096  0.0978830965178545  0.799641257804076  1.0000
  C   C15       1.0  0.5689457622728327  0.4021153396528305  0.29964207498447587  1.0000
  C   C16       1.0  0.06894683610779852  0.9021179925596811  0.2003562906547245  1.0000
  C   C17       1.0  0.4418998834358447  0.502243848176704  0.7834896871833408  1.0000
  C   C18       1.0  0.9419027636406982  0.0022464661900585  0.7165094956362592  1.0000
  C   C19       1.0  0.5580975576172307  0.4977519699806265  0.21651031281665914  1.0000
  C   C20       1.0  0.05809935247634004  0.997752514519391  0.2834896871833407  1.0000
  C   C21       1.0  0.3325469597570248  0.46458839425414306  0.8604950478867721  1.0000
  C   C22       1.0  0.8325451686006176  0.9645931555290731  0.6395041349328281  1.0000
  C   C23       1.0  0.6674525746051998  0.5354074239031874  0.1395041349328281  1.0000
  C   C24       1.0  0.16745220268919073  0.0354089877325023  0.36049586506717185  1.0000
  C   C25       1.0  0.35481636326696997  0.3633276920708965  0.9444513450789386  1.0000
  C   C26       1.0  0.8548182702832108  0.8633292907937076  0.5555511064622607  1.0000
  C   C27       1.0  0.6451791472921684  0.6366691802704736  0.055550289281860885  1.0000
  C   C28       1.0  0.1451794964002957  0.1366686357317093  0.4444488935377392  1.0000
  C   C29       1.0  0.47775531552994016  0.21249609375662004  0.0331350308894187  1.0000
  C   C30       1.0  0.9777549664218128  0.7124966382953843  0.4668649691105813  1.0000
  C   C31       1.0  0.5222414044989919  0.7875018327687968  0.9668641519301815  1.0000
  C   C32       1.0  0.022244335361932602  0.2875044507821514  0.5331358480698184  1.0000
  C   C33       1.0  0.3335263656977077  0.21451591037799736  0.0883739744385963  1.0000
  C   C34       1.0  0.8335263422200114  0.714518563284841  0.4116268427418034  1.0000
  C   C35       1.0  0.6664705171464435  0.785483070331459  0.9116260255614036  1.0000
  C   C36       1.0  0.16647175009393322  0.285481471608648  0.588374791618996  1.0000
  C   C37       1.0  0.8572684782980674  0.1178809677639592  0.0870583139933956  1.0000
  C   C38       1.0  0.357269063687383  0.6178804581186839  0.4129416860066044  1.0000
  C   C39       1.0  0.142736056758558  0.8821201213135694  0.912942503187004  1.0000
  C   C40       1.0  0.6427345875298869  0.3821216851428844  0.5870583139933955  1.0000
  C   C41       1.0  0.7003498414725797  0.9892083528720691  0.2042599614290879  1.0000
  C   C42       1.0  0.20034809727155084  0.48920780833330463  0.2957400385709121  1.0000
  C   C43       1.0  0.29965485639927186  0.0107937903895063  0.7957416729317187  1.0000
  C   C44       1.0  0.799653623451782  0.5107953891123103  0.7042599614290878  1.0000
  N   N1        1.0  0.2699157839992736  0.3171428350775827  0.023524989376653593  1.0000
  N   N2        1.0  0.7699154348911393  0.817143379616347  0.4764741934429466  1.0000
  N   N3        1.0  0.7300835177844719  0.682858253999953  0.9764741934429465  1.0000
  N   N4        1.0  0.23008370407738  0.182856655277142  0.5235258065570533  1.0000
  N   N5        1.0  0.9552548041346969  0.1989761834386741  0.0581930506978736  1.0000
  N   N6        1.0  0.4552552267087862  0.6989746196093591  0.44180449776092695  1.0000
  N   N7        1.0  0.0447476376127796  0.8010249056388545  0.9418053149413267  1.0000
  N   N8        1.0  0.5447501921872019  0.3010254152841298  0.5581938678782734  1.0000
  N   N9        1.0  0.7488553299617422  0.0246278475514785  0.1082453502435214  1.0000
  N   N10       1.0  0.2488548686964762  0.5246273379062032  0.3917546497564785  1.0000
  N   N11       1.0  0.2511481584403086  0.9753732415260502  0.8917554669368783  1.0000
  N   N12       1.0  0.7511478986814383  0.4753758595394046  0.6082478017847208  1.0000
  N   N13       1.0  0.6464746972404998  0.9483871842762284  0.2869643382473086  1.0000
  N   N14       1.0  0.14647399969405234  0.44838663973746407  0.2130364789330912  1.0000
  N   N15       1.0  0.3535256511978205  0.0516139048013002  0.7130389304742905  1.0000
  N   N16       1.0  0.8535218364955242  0.5516123409719853  0.7869627038865089  1.0000
  O   O1        1.0  0.0999751397268795  0.5031420129791115  0.9250138920668148  1.0000
  O   O2        1.0  0.5999733448677702  0.0031414684403472  0.5749877422939917  1.0000
  O   O3        1.0  0.9000276276510278  0.4968611844664963  0.07498774229399169  1.0000
  O   O4        1.0  0.40002474744617433  0.9968585664531417  0.4250138920668148  1.0000
  O   O5        1.0  0.4783378136707057  0.3090962482973225  0.940308240447159  1.0000
  O   O6        1.0  0.9783360922775587  0.8090946844680076  0.5596933939136406  1.0000
  O   O7        1.0  0.521659953012808  0.6909016782280943  0.05969012519203429  1.0000
  O   O8        1.0  0.0216616744059479  0.1909032420574093  0.440308240447159  1.0000
