data_image0
_chemical_formula_structural       Ag2H22C28N8O6
_chemical_formula_sum              "Ag2 H22 C28 N8 O6"
_cell_length_a       8.900754134178523
_cell_length_b       9.350996018381148
_cell_length_c       9.814868551074458
_cell_angle_alpha    102.90776579167031
_cell_angle_beta     116.2293218174046
_cell_angle_gamma    101.8386604366033

_space_group_name_H-M_alt    "P 1"
_space_group_IT_number       1

loop_
  _space_group_symop_operation_xyz
  'x, y, z'

loop_
  _atom_site_type_symbol
  _atom_site_label
  _atom_site_symmetry_multiplicity
  _atom_site_fract_x
  _atom_site_fract_y
  _atom_site_fract_z
  _atom_site_occupancy
  Ag  Ag1       1.0  0.7363585646968218  0.7183425952848382  0.23790377821447356  1.0000
  Ag  Ag2       1.0  0.26363943196148654  0.28165816088527157  0.7620971088762404  1.0000
  H   H1        1.0  0.035400976573157446  0.7891075398501356  0.5829250897240074  1.0000
  H   H2        1.0  0.9645960818832789  0.21089087747206042  0.4170739025018121  1.0000
  H   H3        1.0  0.589378993058837  0.412733704330897  0.1025642924772399  1.0000
  H   H4        1.0  0.41062008484430373  0.5872635204267026  0.8974352767323168  1.0000
  H   H5        1.0  0.06808839505403338  0.1266811371222971  0.9111684345620862  1.0000
  H   H6        1.0  0.931912897556302  0.8733184175618617  0.08883151290388724  1.0000
  H   H7        1.0  0.1330776673163996  0.1237928156596055  0.1886368592103622  1.0000
  H   H8        1.0  0.8669203436670189  0.8762079416878237  0.8113630150729848  1.0000
  H   H9        1.0  0.430442552443175  0.2880052740356049  0.42937201394065033  1.0000
  H   H10       1.0  0.5695587401671531  0.7119942806485537  0.5706279335253229  1.0000
  H   H11       1.0  0.7779495005521966  0.3727543798183675  0.6180301880069408  1.0000
  H   H12       1.0  0.22205128714442424  0.6272440024985358  0.38197134404499183  1.0000
  H   H13       1.0  0.03601740147957597  0.43906047638290596  0.8649930288774641  1.0000
  H   H14       1.0  0.9639823192973298  0.5609414385238269  0.1350088082482657  1.0000
  H   H15       1.0  0.2707869092743565  0.5359619505901422  0.1548256961983158  1.0000
  H   H16       1.0  0.7292140593576448  0.46403995304059714  0.8451766499336628  1.0000
  H   H17       1.0  0.48039693788049936  0.8135984783478278  0.292729644618099  1.0000
  H   H18       1.0  0.5196027972215091  0.18640343773622445  0.7072711797002641  1.0000
  H   H19       1.0  0.4568627577820976  0.9884998308941914  0.13323835553599386  1.0000
  H   H20       1.0  0.5431374535834051  0.0115032552024701  0.8667629098111433  1.0000
  H   H21       1.0  0.22072820133270446  0.8945100428069778  0.8444016422213495  1.0000
  H   H22       1.0  0.7792690380591054  0.10549189582905429  0.15559816408451616  1.0000
  C   C1        1.0  0.48984782335750054  0.35430476393784016  0.12696015502887564  1.0000
  C   C2        1.0  0.5101517737844503  0.6456936343643205  0.8730368167873551  1.0000
  C   C3        1.0  0.19985230230038556  0.18959975771953447  0.01982986388073021  1.0000
  C   C4        1.0  0.8001477567799499  0.8103998094179232  0.9801685617716276  1.0000
  C   C5        1.0  0.23549141209022653  0.19157907092465362  0.17334924755706996  1.0000
  C   C6        1.0  0.7645073704848004  0.8084205051341656  0.8266506947037657  1.0000
  C   C7        1.0  0.40315351050765713  0.2832923638493057  0.30851997564193573  1.0000
  C   C8        1.0  0.5968485966696022  0.7167060130781877  0.6914770013794326  1.0000
  C   C9        1.0  0.5334309891109115  0.3709603970621771  0.2869229011651768  1.0000
  C   C10       1.0  0.46657186100774345  0.6290367962220814  0.7130761694484067  1.0000
  C   C11       1.0  0.7075753217614819  0.47824571116550635  0.42492671977258584  1.0000
  C   C12       1.0  0.2924262518518503  0.5217514910401135  0.5750738674494684  1.0000
  C   C13       1.0  0.8081153164968741  0.46828828359517155  0.5782096639716344  1.0000
  C   C14       1.0  0.19188597611345412  0.5317112710889803  0.42179028349433884  1.0000
  C   C15       1.0  0.9610377923394681  0.6031923027639579  0.6660125126181456  1.0000
  C   C16       1.0  0.038960975910448815  0.3968072721175417  0.33398844245005693  1.0000
  C   C17       1.0  0.10826140880773498  0.6599341612712452  0.8339117465686813  1.0000
  C   C18       1.0  0.8917341207905951  0.3400666198054765  0.16608609689480164  1.0000
  C   C19       1.0  0.1268686906488909  0.5598945755006425  0.9234924678586155  1.0000
  C   C20       1.0  0.8731280868045346  0.4401061943000855  0.07650588461112323  1.0000
  C   C21       1.0  0.26008808838557235  0.6147184024436285  0.08690179410041315  1.0000
  C   C22       1.0  0.739912880246429  0.38528350118711063  0.9131005520315656  1.0000
  C   C23       1.0  0.37837504134872546  0.7693630299819957  0.163943675836002  1.0000
  C   C24       1.0  0.6216259559334887  0.23063887600337551  0.83605664468125  1.0000
  C   C25       1.0  0.36346667538227706  0.8684172550541475  0.07441743370119988  1.0000
  C   C26       1.0  0.6365325691311342  0.13158348983996862  0.9255839623957698  1.0000
  C   C27       1.0  0.23002120647831964  0.8148400488859123  0.9113312722126211  1.0000
  C   C28       1.0  0.7699763139165012  0.18515953727158058  0.08866917384932557  1.0000
  N   N1        1.0  0.3270403763182657  0.2675519916657407  0.9969729209450551  1.0000
  N   N2        1.0  0.672958420581871  0.7324475855703908  0.0030260085084137804  1.0000
  N   N3        1.0  0.7944083515533863  0.6121277330818344  0.4193629841655523  1.0000
  N   N4        1.0  0.20559323638505594  0.387869470301098  0.5806365902491423  1.0000
  N   N5        1.0  0.9456541448627435  0.6849607920138894  0.5648644765899038  1.0000
  N   N6        1.0  0.05434514262599067  0.3150399564121712  0.4351338810849726  1.0000
  N   N7        1.0  0.8257110049610932  0.044979650377697994  0.5285424851400864  1.0000
  N   N8        1.0  0.1742890397941396  0.9550199155824403  0.47145695331963844  1.0000
  O   O1        1.0  0.8253562707973147  0.0361574547087358  0.3950122890978776  1.0000
  O   O2        1.0  0.17464329769442336  0.9638409412387928  0.6049867083330795  1.0000
  O   O3        1.0  0.7388124575167581  0.9268137819013375  0.5368363196661009  1.0000
  O   O4        1.0  0.26118712530009  0.07318461522351069  0.4631616649574967  1.0000
  O   O5        1.0  0.9151606840643325  0.17262645265185483  0.6486657524405146  1.0000
  O   O6        1.0  0.0848380985106942  0.8273731234069643  0.35133418982032083  1.0000
