data_image0
_chemical_formula_structural       Sr2H60C36N24O28
_chemical_formula_sum              "Sr2 H60 C36 N24 O28"
_cell_length_a       7.523626517313441
_cell_length_b       7.541559939190633
_cell_length_c       26.5416
_cell_angle_alpha    83.75577072949407
_cell_angle_beta     83.74082747632363
_cell_angle_gamma    61.55024816471933

_space_group_name_H-M_alt    "P 1"
_space_group_IT_number       1

loop_
  _space_group_symop_operation_xyz
  'x, y, z'

loop_
  _atom_site_type_symbol
  _atom_site_label
  _atom_site_symmetry_multiplicity
  _atom_site_fract_x
  _atom_site_fract_y
  _atom_site_fract_z
  _atom_site_occupancy
  Sr  Sr1       1.0  0.24685461801875877  0.7531283672112534  0.7498844439190718  1.0000
  Sr  Sr2       1.0  0.7531444822396481  0.2468756020947893  0.2501153858623013  1.0000
  H   H1        1.0  0.8795108317378251  0.8958111968905342  0.8614452340572923  1.0000
  H   H2        1.0  0.8952977668251093  0.8802855035392412  0.3614733299889608  1.0000
  H   H3        1.0  0.12048915522275652  0.10418521586272789  0.1385551786235695  1.0000
  H   H4        1.0  0.10470008357383163  0.1197154431456866  0.6385266318338834  1.0000
  H   H5        1.0  0.595798249246812  0.9767902391516825  0.8251341768406135  1.0000
  H   H6        1.0  0.9771181353266201  0.5972759773389384  0.32513036767978315  1.0000
  H   H7        1.0  0.4041988889649205  0.0232122188438098  0.1748657602852361  1.0000
  H   H8        1.0  0.02288042725953693  0.4027234580354389  0.6748696188400556  1.0000
  H   H9        1.0  0.46476573315507613  0.979861222203354  0.8851276638447272  1.0000
  H   H10       1.0  0.9812590237780086  0.46613200376177827  0.3851077973614565  1.0000
  H   H11       1.0  0.5352328294310738  0.0201382131710233  0.11487269944214518  1.0000
  H   H12       1.0  0.01873953880814844  0.5338674316125989  0.614892565925416  1.0000
  H   H13       1.0  0.8567367222994663  0.5034855554867335  0.8809374382847324  1.0000
  H   H14       1.0  0.5032054911961624  0.8566440724972679  0.3808852834244973  1.0000
  H   H15       1.0  0.14326442726309815  0.4965169025087518  0.1190616213358169  1.0000
  H   H16       1.0  0.4967944085069433  0.1433553628771094  0.6191146617715972  1.0000
  H   H17       1.0  0.5979957023388496  0.3703511859061095  0.8365713871670266  1.0000
  H   H18       1.0  0.37021860904513193  0.5984638674366778  0.3362931344129123  1.0000
  H   H19       1.0  0.4020062466684067  0.6296467381577102  0.1634281646352775  1.0000
  H   H20       1.0  0.6297792413538092  0.4015370792482571  0.663706827409932  1.0000
  H   H21       1.0  0.7729933201551589  0.23522642032201443  0.8849099747286927  1.0000
  H   H22       1.0  0.2344434187285671  0.7721678576073927  0.3848082241367763  1.0000
  H   H23       1.0  0.2270113030859876  0.7647715037418052  0.11508949442612959  1.0000
  H   H24       1.0  0.7655557687873227  0.22783308907753505  0.6151916963623235  1.0000
  H   H25       1.0  0.07131805969579119  0.9803826243454878  0.907147663599815  1.0000
  H   H26       1.0  0.9808057025306597  0.0711328539827818  0.4072838603667534  1.0000
  H   H27       1.0  0.9286798779606329  0.0196152997183248  0.09285238894076292  1.0000
  H   H28       1.0  0.01919419717243905  0.9288665813915955  0.5927157080623074  1.0000
  H   H29       1.0  0.1727506861164798  0.7269207308436235  0.8887488179739973  1.0000
  H   H30       1.0  0.726857609155374  0.17213524981262648  0.3888138706250359  1.0000
  H   H31       1.0  0.8272506379610434  0.2730756819096385  0.11125155338311997  1.0000
  H   H32       1.0  0.2731402412435671  0.8278656968723013  0.6111860911978083  1.0000
  H   H33       1.0  0.25888073007416795  0.7752887139074429  0.9429337642047102  1.0000
  H   H34       1.0  0.7748928622011704  0.258310177768486  0.4430201460801582  1.0000
  H   H35       1.0  0.7411171203247733  0.2247122327774846  0.057066951152208396  1.0000
  H   H36       1.0  0.22510570038498667  0.7416892576058913  0.5569798404396806  1.0000
  H   H37       1.0  0.4108559770998781  0.7127174342296385  0.02390795258444459  1.0000
  H   H38       1.0  0.7126685160941478  0.4120724251405789  0.5238372073798273  1.0000
  H   H39       1.0  0.5891426727437548  0.2872789785236236  0.976092124653121  1.0000
  H   H40       1.0  0.2873347700300572  0.5879254989232408  0.4761626798657729  1.0000
  H   H41       1.0  0.558783171113916  0.665776128331558  0.0776128612775651  1.0000
  H   H42       1.0  0.6658565245080725  0.55916223640385  0.5776299332356771  1.0000
  H   H43       1.0  0.4412153914722339  0.3342233070428193  0.9223871252422737  1.0000
  H   H44       1.0  0.33415014803723164  0.4408341763494121  0.4223698960594362  1.0000
  H   H45       1.0  0.7492260661229865  0.5148717692226086  0.7351884289004147  1.0000
  H   H46       1.0  0.5153894555006249  0.7483239109507875  0.23533481678525445  1.0000
  H   H47       1.0  0.2507750834395779  0.4851306887728839  0.2648110074871681  1.0000
  H   H48       1.0  0.4846083076408335  0.2516800583552552  0.764666184620971  1.0000
  H   H49       1.0  0.661486425642018  0.6755271040448318  0.6872583632859417  1.0000
  H   H50       1.0  0.6763540300865573  0.6602583334882225  0.18744369743791367  1.0000
  H   H51       1.0  0.33851338680360504  0.32447535395065324  0.3127403608913113  1.0000
  H   H52       1.0  0.3236416837507504  0.3397471471283779  0.812556943828028  1.0000
  H   H53       1.0  0.18991206420086132  0.1673700876266437  0.7414252272673209  1.0000
  H   H54       1.0  0.16830741139099817  0.189887103614268  0.24155338890579967  1.0000
  H   H55       1.0  0.8100924717828096  0.832630859058291  0.2585737744027341  1.0000
  H   H56       1.0  0.8316930259843575  0.810116865691775  0.7584471530859104  1.0000
  H   H57       1.0  0.42884427195357944  0.0625486100194479  0.7230971256183166  1.0000
  H   H58       1.0  0.06305273218163172  0.4282691403791432  0.2232115967489818  1.0000
  H   H59       1.0  0.5711596391003582  0.9374508253549294  0.276902318839511  1.0000
  H   H60       1.0  0.9369477051937171  0.5717348289269069  0.7767878149416134  1.0000
  C   C1        1.0  0.8009788622047722  0.8128931431848513  0.9347777675900133  1.0000
  C   C2        1.0  0.8128317216711666  0.8014993728961954  0.4348389327971204  1.0000
  C   C3        1.0  0.19902103749832634  0.1871062921895259  0.0652221776060813  1.0000
  C   C4        1.0  0.18716746584471622  0.1985015737887394  0.5651606109349387  1.0000
  C   C5        1.0  0.6016611971815777  0.890325139568894  0.8614253426909996  1.0000
  C   C6        1.0  0.8908497690936414  0.6025882339465269  0.3614693958091522  1.0000
  C   C7        1.0  0.3983387025215209  0.1096742958054833  0.1385746025050949  1.0000
  C   C8        1.0  0.1091487934925155  0.3974112014278504  0.6385305907106869  1.0000
  C   C9        1.0  0.5879832373005626  0.7044248732037914  0.8491106454316436  1.0000
  C   C10       1.0  0.7048587756445316  0.5881612633701181  0.34924244053024  1.0000
  C   C11       1.0  0.41201523802811113  0.2955775847916939  0.15088925037046858  1.0000
  C   C12       1.0  0.29513916201188556  0.4118366606936944  0.650758365544405  1.0000
  C   C13       1.0  0.7444962839697383  0.3361441827606697  0.850373450120358  1.0000
  C   C14       1.0  0.33575184675250824  0.7443854356394437  0.3502993305315059  1.0000
  C   C15       1.0  0.25550762708419955  0.6638552526137003  0.14962561757042883  1.0000
  C   C16       1.0  0.6642480529505905  0.2556139997349334  0.6497009914316221  1.0000
  C   C17       1.0  0.9073673538305799  0.2238160256172321  0.8088537645868  1.0000
  C   C18       1.0  0.22335398225832404  0.9074649125949816  0.30890760369758397  1.0000
  C   C19       1.0  0.09263513284893322  0.7761864323782603  0.19114525371000465  1.0000
  C   C20       1.0  0.7766452052575589  0.09253603408995298  0.6910923168015161  1.0000
  C   C21       1.0  0.12745800016060838  0.8217751153278954  0.9209520753505839  1.0000
  C   C22       1.0  0.8217484609004162  0.1271253988062924  0.42103890836364133  1.0000
  C   C23       1.0  0.8725412746127574  0.1782228087359243  0.07904831263328299  1.0000
  C   C24       1.0  0.17824938949852517  0.8728755478786425  0.578960676692162  1.0000
  C   C25       1.0  0.0008413033078227524  0.7532386928819079  0.006527490710638495  1.0000
  C   C26       1.0  0.7528830092628667  0.0009521256508619998  0.5066153095536521  1.0000
  C   C27       1.0  0.99915734653581  0.24675771987135417  0.9934722097598936  1.0000
  C   C28       1.0  0.24711617825302315  0.9990488210340729  0.4933849877124884  1.0000
  C   C29       1.0  0.8456581131438982  0.7182367403835314  0.0373098232435964  1.0000
  C   C30       1.0  0.7182377223542247  0.845814021046344  0.537390123895662  1.0000
  C   C31       1.0  0.1543391123253102  0.2817626949908458  0.9626905813670206  1.0000
  C   C32       1.0  0.2817642266530386  0.1541839030174756  0.4626098046736828  1.0000
  C   C33       1.0  0.6750948497691527  0.7361140329613958  0.012272669264618187  1.0000
  C   C34       1.0  0.7362015538133734  0.6756298731627053  0.5123171030971321  1.0000
  C   C35       1.0  0.3249030006297886  0.2638869137235389  0.9877276693252666  1.0000
  C   C36       1.0  0.2638003951938829  0.3243680509011142  0.48768244870517197  1.0000
  N   N1        1.0  0.6562045210599411  0.7850563140368505  0.962401495521533  1.0000
  N   N2        1.0  0.7851142083276129  0.6569319389524324  0.4624461737319691  1.0000
  N   N3        1.0  0.34379332933900036  0.21494463264808417  0.037598843068351984  1.0000
  N   N4        1.0  0.21488702849243432  0.34306749642194484  0.5375537301403809  1.0000
  N   N5        1.0  0.7806731449349159  0.8589654455127016  0.8848363329179421  1.0000
  N   N6        1.0  0.8588002441182496  0.7814049877313209  0.3848836247349609  1.0000
  N   N7        1.0  0.21932470546402538  0.141035501172226  0.11516362890490225  1.0000
  N   N8        1.0  0.14119965558484893  0.2185944476430564  0.615115943694093  1.0000
  N   N9        1.0  0.7363746935992382  0.521761834051631  0.8622497171356398  1.0000
  N   N10       1.0  0.5216495586613591  0.7362908562965558  0.3622829052461825  1.0000
  N   N11       1.0  0.26362449391665177  0.4782391126333039  0.13774982659642626  1.0000
  N   N12       1.0  0.4783490039247908  0.2637085790778215  0.6377174580406902  1.0000
  N   N13       1.0  0.9727254084260508  0.7946244211727418  0.95437932106298  1.0000
  N   N14       1.0  0.7944457185959948  0.9728290941819819  0.45446038377670567  1.0000
  N   N15       1.0  0.027274491277047713  0.2053750142016355  0.0456210009001552  1.0000
  N   N16       1.0  0.20555213180294635  0.027171852502952693  0.5455399548131794  1.0000
  N   N17       1.0  0.8799265914364014  0.6686702880480695  0.0869269708332752  1.0000
  N   N18       1.0  0.6687812119173988  0.879807929403256  0.5870240391106732  1.0000
  N   N19       1.0  0.12007134622001563  0.3313276360157502  0.9130734584743362  1.0000
  N   N20       1.0  0.33122207420680644  0.1201899946605636  0.4129758481349342  1.0000
  N   N21       1.0  0.5351902960286593  0.7005649860414066  0.039558872826852096  1.0000
  N   N22       1.0  0.7006920799672472  0.5358532936843972  0.5395664801597988  1.0000
  N   N23       1.0  0.4648096036744392  0.2994344493329706  0.960441449136283  1.0000
  N   N24       1.0  0.2993112061569575  0.4641446303794226  0.4604334070858016  1.0000
  O   O1        1.0  0.4361508748461632  0.7336536193747207  0.8273888272644072  1.0000
  O   O2        1.0  0.7345171839670288  0.4362443261880316  0.32764559353255146  1.0000
  O   O3        1.0  0.5638490248569357  0.2663458159996566  0.1726111179316874  1.0000
  O   O4        1.0  0.26548137861912835  0.5637551091863385  0.6723551465213614  1.0000
  O   O5        1.0  0.9570222136488199  0.3273015046921017  0.7740956272128584  1.0000
  O   O6        1.0  0.3272978967792996  0.9566852748129121  0.2741475962208355  1.0000
  O   O7        1.0  0.04297964810095327  0.672699441992826  0.22590345710468537  1.0000
  O   O8        1.0  0.6727039649704807  0.04331567187202269  0.7258526183978162  1.0000
  O   O9        1.0  0.978374178260637  0.0341934013504286  0.8111734100018422  1.0000
  O   O10       1.0  0.03317121101857625  0.9791403270676966  0.3113135682228076  1.0000
  O   O11       1.0  0.0216303577230336  0.9658075453345061  0.18882559166821264  1.0000
  O   O12       1.0  0.9668293136142552  0.0208606196172312  0.6886855574184805  1.0000
  O   O13       1.0  0.15020019633868031  0.7470695231885428  0.023981058786723998  1.0000
  O   O14       1.0  0.7462964998249433  0.1502076449422063  0.5240578431092188  1.0000
  O   O15       1.0  0.8498019271835346  0.2529223556330464  0.9760186744510405  1.0000
  O   O16       1.0  0.2537033998781553  0.8497917904321709  0.4759421020868756  1.0000
  O   O17       1.0  0.7468651313022363  0.640124654248872  0.1166520670048641  1.0000
  O   O18       1.0  0.6404917573825346  0.7468080664621934  0.6167121871400025  1.0000
  O   O19       1.0  0.2531334312839206  0.3598747811255052  0.8833482962820156  1.0000
  O   O20       1.0  0.3595122409288792  0.2531883462910685  0.38328772480259227  1.0000
  O   O21       1.0  0.6265443546709266  0.6078747982746506  0.7174797965079022  1.0000
  O   O22       1.0  0.6083528495183046  0.6257082628463664  0.2176739705707078  1.0000
  O   O23       1.0  0.37345403340026456  0.3921306823419569  0.2825200085764762  1.0000
  O   O24       1.0  0.391642864318996  0.3742972177702413  0.7823270474622674  1.0000
  O   O25       1.0  0.3008891217972832  0.0563794403260829  0.7224019260059151  1.0000
  O   O26       1.0  0.057216270046488694  0.3004757423066877  0.22247964008707294  1.0000
  O   O27       1.0  0.6991154141863872  0.943621506358852  0.277597075664147  1.0000
  O   O28       1.0  0.9427828302119181  0.6995282269993551  0.7775209432283744  1.0000
