data_image0
_chemical_formula_structural       Ag2H40C52N14O6
_chemical_formula_sum              "Ag2 H40 C52 N14 O6"
_cell_length_a       10.324773776208131
_cell_length_b       10.941163460006148
_cell_length_c       11.2975
_cell_angle_alpha    105.94692213492105
_cell_angle_beta     91.4896854127949
_cell_angle_gamma    103.13050387999732

_space_group_name_H-M_alt    "P 1"
_space_group_IT_number       1

loop_
  _space_group_symop_operation_xyz
  'x, y, z'

loop_
  _atom_site_type_symbol
  _atom_site_label
  _atom_site_symmetry_multiplicity
  _atom_site_fract_x
  _atom_site_fract_y
  _atom_site_fract_z
  _atom_site_occupancy
  Ag  Ag1       1.0  0.1492501319019084  0.33605666178893767  0.9840073881627022  1.0000
  Ag  Ag2       1.0  0.8507524686055847  0.6639410120720727  0.015992231710917827  1.0000
  H   H1        1.0  0.3199540647077157  0.5913732774140641  0.9514765992093501  1.0000
  H   H2        1.0  0.6800373911485806  0.4086224361899298  0.0485257749021173  1.0000
  H   H3        1.0  0.5308189593204773  0.6693866060665883  0.8605574372301775  1.0000
  H   H4        1.0  0.469172750574586  0.3306179286939824  0.13944906036137183  1.0000
  H   H5        1.0  0.6583216526231511  0.5019404715063018  0.756109735974917  1.0000
  H   H6        1.0  0.3416717567376395  0.4980670036397968  0.24389050316137434  1.0000
  H   H7        1.0  0.3433465231490445  0.20512129430743192  0.8254218483690678  1.0000
  H   H8        1.0  0.6566536578060963  0.7948783398105945  0.17457203954521117  1.0000
  H   H9        1.0  0.6729932176858284  0.2754141506966761  0.6872970622550412  1.0000
  H   H10       1.0  0.32700478724830623  0.7245884238068784  0.3126993266435889  1.0000
  H   H11       1.0  0.7823894381772973  0.9931436351994449  0.5110654505613752  1.0000
  H   H12       1.0  0.2176025152491121  0.006861879689630301  0.48893865815487203  1.0000
  H   H13       1.0  0.9063003067676122  0.8461410210742955  0.37377421150694806  1.0000
  H   H14       1.0  0.0936950455902377  0.1538703745858356  0.6262297724209276  1.0000
  H   H15       1.0  0.8577247532972408  0.6115541234088511  0.36083524101135817  1.0000
  H   H16       1.0  0.14227519988767773  0.38845629212276833  0.639163280522844  1.0000
  H   H17       1.0  0.6878818030564702  0.519561221836284  0.48717795173654116  1.0000
  H   H18       1.0  0.3121300148662627  0.4804462533098075  0.5128271505196693  1.0000
  H   H19       1.0  0.5639619269823299  0.664180163428199  0.6226769487763023  1.0000
  H   H20       1.0  0.43604624847760937  0.33582045081833206  0.37733243744674644  1.0000
  H   H21       1.0  0.3174180661766783  0.7251470970568548  0.8427436903170928  1.0000
  H   H22       1.0  0.6825736384646817  0.2748535171896762  0.1572608788241396  1.0000
  H   H23       1.0  0.08736116865535591  0.5930081317666307  0.7527497565701468  1.0000
  H   H24       1.0  0.9126329607920596  0.40699444273692365  0.24725008085859201  1.0000
  H   H25       1.0  0.9996835354719807  0.6008491598364856  0.549881838715109  1.0000
  H   H26       1.0  0.0003176091011312054  0.3991465537675083  0.4501145695258161  1.0000
  H   H27       1.0  0.139589037675897  0.7344416557051616  0.4328139072414743  1.0000
  H   H28       1.0  0.8604106562165512  0.26555601815584856  0.5671847584234015  1.0000
  H   H29       1.0  0.3687612942802545  0.8632815084350014  0.520708726747614  1.0000
  H   H30       1.0  0.6312352599732165  0.1367230263255692  0.4792961156360391  1.0000
  H   H31       1.0  0.6212562785459284  0.9236525239303504  0.060437088506454045  1.0000
  H   H32       1.0  0.3787528552782788  0.0763402492881156  0.9395631529255227  1.0000
  H   H33       1.0  0.8098623579739198  0.9628361014524389  0.22356097234130354  1.0000
  H   H34       1.0  0.1901455687009701  0.0371596121515552  0.7764329415782497  1.0000
  H   H35       1.0  0.039234882468655  0.0928612954313053  0.3212539727176846  1.0000
  H   H36       1.0  0.9607684486328837  0.9071393188152328  0.6787455617426942  1.0000
  H   H37       1.0  0.1729431720341168  0.2469531790601138  0.2191603056070548  1.0000
  H   H38       1.0  0.8270599207897718  0.7530503755719523  0.7808408907241998  1.0000
  H   H39       1.0  0.8759337986529729  0.14797784199134162  0.9305608021808424  1.0000
  H   H40       1.0  0.12407243380989291  0.852018851741164  0.06943510258321335  1.0000
  C   C1        1.0  0.3755285119094864  0.5235670070514757  0.9005412535912569  1.0000
  C   C2        1.0  0.6244723943859897  0.4764316469380462  0.09945770167212231  1.0000
  C   C3        1.0  0.4937132449481041  0.5651920846888103  0.8507328306442119  1.0000
  C   C4        1.0  0.5062803974366121  0.43480852955772065  0.14926647362563727  1.0000
  C   C5        1.0  0.5624730936994666  0.4733658049627323  0.7920837260581166  1.0000
  C   C6        1.0  0.4375256365750034  0.5266357894123175  0.20791330443169898  1.0000
  C   C7        1.0  0.5089228356618207  0.3406985504062945  0.782907549620603  1.0000
  C   C8        1.0  0.4910700813825599  0.6593030439687482  0.21708580214856  1.0000
  C   C9        1.0  0.3875336675592039  0.307287929800637  0.8325816904978821  1.0000
  C   C10       1.0  0.6124616690375291  0.6927117043173894  0.1674129674727141  1.0000
  C   C11       1.0  0.5779417995838897  0.2419604044366324  0.7233814493514501  1.0000
  C   C12       1.0  0.422054511138228  0.7580431501954266  0.2766142749369322  1.0000
  C   C13       1.0  0.5904213355105696  0.9250109820434532  0.6535565478636087  1.0000
  C   C14       1.0  0.4095815137819727  0.0749915924601012  0.3464505779492697  1.0000
  C   C15       1.0  0.6648422490651171  0.8387488918614424  0.5756559035387953  1.0000
  C   C16       1.0  0.3351608437587786  0.1612546627706237  0.4243461779440381  1.0000
  C   C17       1.0  0.7622132232322015  0.8892509934023637  0.5046125246606437  1.0000
  C   C18       1.0  0.23778091146891714  0.1107555016152233  0.4953910115215834  1.0000
  C   C19       1.0  0.8305677621511408  0.8074876930754301  0.4285118616529289  1.0000
  C   C20       1.0  0.1694285590783977  0.19252370258470114  0.5714921452939947  1.0000
  C   C21       1.0  0.8037226162823148  0.6741735537032341  0.4216002067307159  1.0000
  C   C22       1.0  0.19627563743687662  0.32583392144286455  0.5783983771976794  1.0000
  C   C23       1.0  0.7083232366643841  0.6232656789596902  0.49210005186048983  1.0000
  C   C24       1.0  0.2916839804312871  0.3767427763149129  0.5079060870314791  1.0000
  C   C25       1.0  0.639358352476556  0.704880979881807  0.5688053868693076  1.0000
  C   C26       1.0  0.3606413466695955  0.2951206144932357  0.43120228845854314  1.0000
  C   C27       1.0  0.4962411918112366  0.8722291015912162  0.7373384382055121  1.0000
  C   C28       1.0  0.5037560825288594  0.12777053252681012  0.2626651173190098  1.0000
  C   C29       1.0  0.3600342296159483  0.7987880724319254  0.6862982034981044  1.0000
  C   C30       1.0  0.6399632882555013  0.20121254181460563  0.3137011928479581  1.0000
  C   C31       1.0  0.27872219074550497  0.7234387330661392  0.7518508466013999  1.0000
  C   C32       1.0  0.7212755706572836  0.2765628613089035  0.24814970147568968  1.0000
  C   C33       1.0  0.15089547562168804  0.6510758452664547  0.7021162381841464  1.0000
  C   C34       1.0  0.8491037364617712  0.34892378885157177  0.2978811673174064  1.0000
  C   C35       1.0  0.10113172506858353  0.6553550863355753  0.5872267821770123  1.0000
  C   C36       1.0  0.8988689376955463  0.344642587525435  0.4127701362037541  1.0000
  C   C37       1.0  0.1795361830867463  0.7314297207978271  0.5220954570732843  1.0000
  C   C38       1.0  0.8204659356117575  0.2685699133201993  0.4779029026370125  1.0000
  C   C39       1.0  0.3088571672689612  0.8023665216173087  0.5710833687788792  1.0000
  C   C40       1.0  0.6911425318771977  0.19763507275773412  0.42891899563948505  1.0000
  C   C41       1.0  0.6948542938787129  0.9678308363329364  0.00605043977080304  1.0000
  C   C42       1.0  0.30515121324382477  0.0321668375280737  0.9939465937052319  1.0000
  C   C43       1.0  0.8263840219459979  0.0418887322061892  0.0667671428229468  1.0000
  C   C44       1.0  0.17362269757956741  0.9581099217833327  0.93323106540317  1.0000
  C   C45       1.0  0.8728907609467313  0.0282796478624476  0.1792436587736432  1.0000
  C   C46       1.0  0.1271159585788341  0.9717190061270743  0.8207527791493092  1.0000
  C   C47       1.0  0.9990539496618497  0.1006621382323019  0.23437613523006462  1.0000
  C   C48       1.0  0.0009503503113634794  0.8993384760142362  0.7656234222493695  1.0000
  C   C49       1.0  0.0745675589355272  0.1871124130879878  0.1777441013009309  1.0000
  C   C50       1.0  0.9254357721660043  0.8128882011585432  0.8222545480078621  1.0000
  C   C51       1.0  0.9090902953934404  0.1313578028687701  0.01595925164092191  1.0000
  C   C52       1.0  0.0909144863887619  0.8686408511207446  0.9840371402439274  1.0000
  N   N1        1.0  0.322977159148394  0.3961404996312297  0.8912855960163242  1.0000
  N   N2        1.0  0.6770186592573282  0.6038571742297805  0.10871386272392408  1.0000
  N   N3        1.0  0.5300565654547216  0.11853478158902672  0.7118916073967085  1.0000
  N   N4        1.0  0.4699402323300959  0.8814707333000485  0.2881055352021491  1.0000
  N   N5        1.0  0.6077401662089629  0.043126634512717  0.644197046938082  1.0000
  N   N6        1.0  0.392256144513162  0.9568769201193492  0.35580398825979387  1.0000
  N   N7        1.0  0.5330186666076315  0.8849374478354335  0.8522101765424567  1.0000
  N   N8        1.0  0.4669844157088505  0.1150582657685604  0.1477907034944863  1.0000
  N   N9        1.0  0.6637930970981927  0.9552548074373917  0.8907442757436427  1.0000
  N   N10       1.0  0.3362109593436813  0.0447448266806347  0.10925590030792881  1.0000
  N   N11       1.0  0.02994868008622121  0.20271997946103681  0.0707151853601999  1.0000
  N   N12       1.0  0.9700553763556458  0.7972796546569898  0.9292823352366214  1.0000
  N   N13       1.0  0.9022256725081306  0.39802332649649946  0.8416000639102847  1.0000
  N   N14       1.0  0.0977735395753356  0.601976307621527  0.15839734159127516  1.0000
  O   O1        1.0  0.8617357659815211  0.4130016503669438  0.9490855747057553  1.0000
  O   O2        1.0  0.1382627207616096  0.5869989638795943  0.050912074356190815  1.0000
  O   O3        1.0  0.9668204980845516  0.31155540932766  0.800406109051238  1.0000
  O   O4        1.0  0.03317847046756129  0.6884432446618618  0.19959280017403097  1.0000
  O   O5        1.0  0.8785525129762277  0.4692463248405332  0.7761126232534679  1.0000
  O   O6        1.0  0.12144645557588521  0.5307523291489886  0.22388451566864384  1.0000
