data_image0
_chemical_formula_structural       Nd4H96C96N24O48
_chemical_formula_sum              "Nd4 H96 C96 N24 O48"
_cell_length_a       16.050771222176678
_cell_length_b       16.050767987941043
_cell_length_c       16.460937197004526
_cell_angle_alpha    89.99991585809198
_cell_angle_beta     90.00004940768422
_cell_angle_gamma    119.99981607328856

_space_group_name_H-M_alt    "P 1"
_space_group_IT_number       1

loop_
  _space_group_symop_operation_xyz
  'x, y, z'

loop_
  _atom_site_type_symbol
  _atom_site_label
  _atom_site_symmetry_multiplicity
  _atom_site_fract_x
  _atom_site_fract_y
  _atom_site_fract_z
  _atom_site_occupancy
  Nd  Nd1       1.0  0.6666669362324171  0.3333343946077037  0.33336016102753524  1.0000
  Nd  Nd2       1.0  0.33333428702718476  0.6666672819858022  0.1666396292328116  1.0000
  Nd  Nd3       1.0  0.33333210270254193  0.6666654166093622  0.6666397143741918  1.0000
  Nd  Nd4       1.0  0.6666657346318346  0.333332792550138  0.8333596386703095  1.0000
  H   H1        1.0  0.7448645957785942  0.4931744072671265  0.5141590199857546  1.0000
  H   H2        1.0  0.5068234019045336  0.2516922634296251  0.5141584851329242  1.0000
  H   H3        1.0  0.7483101743708217  0.255136319691978  0.5141604060770322  1.0000
  H   H4        1.0  0.4931750918171999  0.7448649647368057  0.9858408703642993  1.0000
  H   H5        1.0  0.25169298089282666  0.5068237393350258  0.9858415466189713  1.0000
  H   H6        1.0  0.25513670894329016  0.7483109359102614  0.9858395534492389  1.0000
  H   H7        1.0  0.2551357855832919  0.5068253075654283  0.4858408554165977  1.0000
  H   H8        1.0  0.4931752773275093  0.7483079074912596  0.4858401752707452  1.0000
  H   H9        1.0  0.2516898472882545  0.7448637548435286  0.4858394693249154  1.0000
  H   H10       1.0  0.5068252895446789  0.25513475009574893  0.014159005038052903  1.0000
  H   H11       1.0  0.7483070407662493  0.4931763352004809  0.0141583287829761  1.0000
  H   H12       1.0  0.7448635760343477  0.2516901213491566  0.014160929450945  1.0000
  H   H13       1.0  0.5895819074907042  0.6849712466293244  0.4408294577774187  1.0000
  H   H14       1.0  0.3150297438934545  0.9046141458230113  0.4408310090122854  1.0000
  H   H15       1.0  0.09538761523309348  0.4104157972592901  0.440830661962572  1.0000
  H   H16       1.0  0.6849708378971683  0.5895812695823253  0.05917025152368181  1.0000
  H   H17       1.0  0.9046142642604804  0.31502962577576454  0.059168716480300504  1.0000
  H   H18       1.0  0.4104166419844688  0.09538812747358356  0.05916927402709861  1.0000
  H   H19       1.0  0.41041811416837237  0.3150288279061825  0.5591704176245288  1.0000
  H   H20       1.0  0.6849700144471739  0.09538494598771759  0.5591694738890711  1.0000
  H   H21       1.0  0.9046124064260398  0.5895842772757904  0.5591698209381946  1.0000
  H   H22       1.0  0.3150295434647674  0.4104184452498032  0.9408302313774968  1.0000
  H   H23       1.0  0.0953857573985957  0.6849704487597422  0.9408311589216467  1.0000
  H   H24       1.0  0.5895840026959219  0.904612570083316  0.940830601374664  1.0000
  H   H25       1.0  0.8076024080632821  0.6574555930753192  0.5705378575365643  1.0000
  H   H26       1.0  0.34254415852472414  0.15014945562002424  0.5705380247837226  1.0000
  H   H27       1.0  0.849852339905091  0.19239710185739498  0.5705382066455585  1.0000
  H   H28       1.0  0.6574550310078917  0.8076015609118273  0.9294619658704877  1.0000
  H   H29       1.0  0.15014923071644395  0.34254423727202976  0.929461477854723  1.0000
  H   H30       1.0  0.19239693370178665  0.8498525492516011  0.9294623489374843  1.0000
  H   H31       1.0  0.19239823661710895  0.3425451044815803  0.4294620178651983  1.0000
  H   H32       1.0  0.6574548804101853  0.8498503555974678  0.42946124311917805  1.0000
  H   H33       1.0  0.15014830477529967  0.8076035956995112  0.4294616687562041  1.0000
  H   H34       1.0  0.3425453503540439  0.19239815392030124  0.07053851703069111  1.0000
  H   H35       1.0  0.8498507909426889  0.6574558372630434  0.07053900504605083  1.0000
  H   H36       1.0  0.8076037109786539  0.15014814830487216  0.0705381339631046  1.0000
  H   H37       1.0  0.731943775058646  0.7557723251249088  0.5329408685908349  1.0000
  H   H38       1.0  0.24422660088536913  0.9761748540750331  0.5329392927217997  1.0000
  H   H39       1.0  0.023826423149138524  0.2680513216725302  0.5329384903247674  1.0000
  H   H40       1.0  0.755772949106685  0.7319441170009853  0.9670595556332701  1.0000
  H   H41       1.0  0.9761753533858762  0.2442267822340937  0.9670606028292641  1.0000
  H   H42       1.0  0.268051621908505  0.02382700004888962  0.9670616790289375  1.0000
  H   H43       1.0  0.26805624660048716  0.24422774941016467  0.4670596143099388  1.0000
  H   H44       1.0  0.7557731574552591  0.023824237735695468  0.4670611901795638  1.0000
  H   H45       1.0  0.9761735985099377  0.7319487528629766  0.4670613850771802  1.0000
  H   H46       1.0  0.24422805527650834  0.2680562208529692  0.0329403197689047  1.0000
  H   H47       1.0  0.023825027976009598  0.7557729325984611  0.03293927257308841  1.0000
  H   H48       1.0  0.7319490227718861  0.9761736975080099  0.0329381963728252  1.0000
  H   H49       1.0  0.47217320560821446  0.5596807810617861  0.36327559056128683  1.0000
  H   H50       1.0  0.44032024347651333  0.9124969772554578  0.3632765407912474  1.0000
  H   H51       1.0  0.08750668319222402  0.5278252028036121  0.3632754525371453  1.0000
  H   H52       1.0  0.5596799821946377  0.47217286435491684  0.13672479780537833  1.0000
  H   H53       1.0  0.912496439044254  0.44031948660610687  0.1367237529302088  1.0000
  H   H54       1.0  0.5278253435833875  0.08750650620672218  0.13672384365615645  1.0000
  H   H55       1.0  0.5278274390722256  0.4403199164946868  0.6367248923393021  1.0000
  H   H56       1.0  0.5596804012038701  0.08750372030144142  0.6367233346105154  1.0000
  H   H57       1.0  0.9124933384668522  0.47217487173189454  0.6367244228648019  1.0000
  H   H58       1.0  0.4403200394644953  0.5278272101801561  0.8632756850953953  1.0000
  H   H59       1.0  0.08750295959345776  0.5596799649084402  0.863275514973097  1.0000
  H   H60       1.0  0.4721753010970033  0.9124941913501844  0.8632760317456132  1.0000
  H   H61       1.0  0.340504386506872  0.4319895875129448  0.30266972130817044  1.0000
  H   H62       1.0  0.5680093828309726  0.9085162150841912  0.30267069173706324  1.0000
  H   H63       1.0  0.09148519712012876  0.6594946995129194  0.3026700626104955  1.0000
  H   H64       1.0  0.43198975022948366  0.3405042525774249  0.19733074353880656  1.0000
  H   H65       1.0  0.9085159206342439  0.5680096057522377  0.19732956550468123  1.0000
  H   H66       1.0  0.6594944079895412  0.09148532546581832  0.1973298010813522  1.0000
  H   H67       1.0  0.6594956351522613  0.5680104870221286  0.6973307615925963  1.0000
  H   H68       1.0  0.43199027912530125  0.09148421915426744  0.6973291836644793  1.0000
  H   H69       1.0  0.9085148245389477  0.34050537502258743  0.697329812791452  1.0000
  H   H70       1.0  0.5680108944509071  0.6594964449794817  0.802669131862956  1.0000
  H   H71       1.0  0.091483478003525  0.43198984576187627  0.802670309897451  1.0000
  H   H72       1.0  0.3405062366908496  0.908515372091081  0.8026700743204104  1.0000
  H   H73       1.0  0.3253121303749539  0.3161840964171177  0.32062867775152887  1.0000
  H   H74       1.0  0.6838154687690688  0.009128481270664674  0.32062843889285386  1.0000
  H   H75       1.0  0.990872056499896  0.674688044861867  0.32062748533781626  1.0000
  H   H76       1.0  0.31618367637126  0.3253113960788668  0.17937182572424604  1.0000
  H   H77       1.0  0.009128455144946288  0.6838158547132879  0.17937144191255786  1.0000
  H   H78       1.0  0.6746878811724174  0.9908724355851322  0.1793727161613816  1.0000
  H   H79       1.0  0.6746885143054868  0.6838166011393484  0.6793718051490603  1.0000
  H   H80       1.0  0.3161845528900075  0.9908715932648422  0.6793714365090937  1.0000
  H   H81       1.0  0.00912796515918052  0.3253120296736398  0.6793723900641312  1.0000
  H   H82       1.0  0.6838167049906261  0.6746883187536881  0.8206280496781064  1.0000
  H   H83       1.0  0.9908709434928226  0.31618359680082625  0.8206284334895744  1.0000
  H   H84       1.0  0.3253121404867088  0.009127638949941336  0.8206277667393922  1.0000
  H   H85       1.0  0.49504735502333114  0.38867579532632845  0.354103097243673  1.0000
  H   H86       1.0  0.611324852270883  0.10637299550416666  0.3541027395321521  1.0000
  H   H87       1.0  0.893628703318413  0.5049530062571536  0.3541025734143446  1.0000
  H   H88       1.0  0.3886756627695931  0.4950476601744286  0.1458967273047946  1.0000
  H   H89       1.0  0.10637233136471021  0.6113246035278338  0.14589713397401746  1.0000
  H   H90       1.0  0.5049526326494413  0.8936281172020769  0.1458970993132027  1.0000
  H   H91       1.0  0.5049526666358022  0.6113242792087451  0.6458973856571009  1.0000
  H   H92       1.0  0.3886751693881935  0.8936270790313402  0.6458971358697952  1.0000
  H   H93       1.0  0.10637167804346605  0.49504670857540134  0.6458973019880148  1.0000
  H   H94       1.0  0.6113239991866736  0.5049527740640302  0.8541031480967478  1.0000
  H   H95       1.0  0.8936264442517441  0.3886742249648807  0.8541027414282925  1.0000
  H   H96       1.0  0.4950473890096417  0.10637195733342959  0.8541027760887447  1.0000
  C   C1        1.0  0.5874555123542675  0.5508914507524665  0.4250242555287542  1.0000
  C   C2        1.0  0.449107945492635  0.03656800246291433  0.4250251717881356  1.0000
  C   C3        1.0  0.9634356731632393  0.4125439908910878  0.42502511872893234  1.0000
  C   C4        1.0  0.5508910679018226  0.5874548820232948  0.0749754939368259  1.0000
  C   C5        1.0  0.036568002516062785  0.4491083297619554  0.07497477013646403  1.0000
  C   C6        1.0  0.412543695671154  0.9634351623973175  0.0749745606634775  1.0000
  C   C7        1.0  0.41254513232612305  0.44910924680443287  0.5749756198730083  1.0000
  C   C8        1.0  0.5508910934422745  0.9634318087545849  0.5749740961147654  1.0000
  C   C9        1.0  0.036564348495836896  0.5874560836444189  0.574974756673015  1.0000
  C   C10       1.0  0.449109313460056  0.41254483280926013  0.9250243814655336  1.0000
  C   C11       1.0  0.9634316594402107  0.550892104476503  0.9250251052650783  1.0000
  C   C12       1.0  0.5874563259879223  0.03656491213819625  0.9250253147384698  1.0000
  C   C13       1.0  0.6320697648183753  0.494610467865691  0.4446659662816686  1.0000
  C   C14       1.0  0.5053869204373242  0.1374623591718205  0.44466434539807415  1.0000
  C   C15       1.0  0.8625404855434339  0.36793004847788074  0.4446661528683863  1.0000
  C   C16       1.0  0.4946117241066474  0.6320700526055774  0.055333786624224515  1.0000
  C   C17       1.0  0.13746235191561598  0.5053873185190696  0.055335550179251014  1.0000
  C   C18       1.0  0.36792940423511306  0.8625403256066376  0.05533296193252821  1.0000
  C   C19       1.0  0.36792999352214645  0.5053886239458976  0.5553333016220492  1.0000
  C   C20       1.0  0.4946117587947755  0.8625378117486309  0.5553349225044146  1.0000
  C   C21       1.0  0.13745917641283972  0.632070385760578  0.555333722533156  1.0000
  C   C22       1.0  0.5053902630006633  0.3679305485668181  0.9446660887781706  1.0000
  C   C23       1.0  0.8625376697434672  0.4946127560164371  0.9446643252226963  1.0000
  C   C24       1.0  0.6320702577211605  0.1374601086318208  0.9446669134690141  1.0000
  C   C25       1.0  0.7115517286553086  0.5359559778869069  0.49868415801460503  1.0000
  C   C26       1.0  0.46404160015155327  0.17559910183719304  0.49868188143294395  1.0000
  C   C27       1.0  0.8244044794176659  0.2884483034249215  0.4986849890706466  1.0000
  C   C28       1.0  0.5359562846278152  0.7115518025855679  0.0013155592614424003  1.0000
  C   C29       1.0  0.1755991124478343  0.464042015669449  0.0013174075916993  1.0000
  C   C30       1.0  0.2884477090748305  0.8244043535669832  0.0013147679122056004  1.0000
  C   C31       1.0  0.2884482930037676  0.46404409664859975  0.5013157173873424  1.0000
  C   C32       1.0  0.5359560963562661  0.8244008057661107  0.5013155639728526  1.0000
  C   C33       1.0  0.17559554224141022  0.7115517711105851  0.5013148863313008  1.0000
  C   C34       1.0  0.4640440967340708  0.28844791224698707  0.9986843161409099  1.0000
  C   C35       1.0  0.824400909211242  0.5359580588660648  0.9986824678102479  1.0000
  C   C36       1.0  0.7115523125842458  0.17559572096852355  0.998685107489742  1.0000
  C   C37       1.0  0.6247515313313982  0.6445370665909779  0.4577349785834387  1.0000
  C   C38       1.0  0.3554611290432346  0.980217992177046  0.4577334118203994  1.0000
  C   C39       1.0  0.019783662577722884  0.37524530488008884  0.4577343102352246  1.0000
  C   C40       1.0  0.6445373069968169  0.6247515418536055  0.0422647322698779  1.0000
  C   C41       1.0  0.9802187292873084  0.35546164519136153  0.04226688695435851  1.0000
  C   C42       1.0  0.3752451767135767  0.019783906445752574  0.04226565841939591  1.0000
  C   C43       1.0  0.37524885003048775  0.3554626482415769  0.5422648968189138  1.0000
  C   C44       1.0  0.6445386292973366  0.019781099634116103  0.5422664635821377  1.0000
  C   C45       1.0  0.9802163590813606  0.6247547696554179  0.5422655651667228  1.0000
  C   C46       1.0  0.3554627146622663  0.3752485326819013  0.9577351431320695  1.0000
  C   C47       1.0  0.01978129237176776  0.6445384293441451  0.9577329884475888  1.0000
  C   C48       1.0  0.6247554679668639  0.9802167911107134  0.9577348244811933  1.0000
  C   C49       1.0  0.7465055699370354  0.6280349371204181  0.5289661009062314  1.0000
  C   C50       1.0  0.37196388742567166  0.11847440302130252  0.5289638775860726  1.0000
  C   C51       1.0  0.8815284553207334  0.2534926358962225  0.5289652092691314  1.0000
  C   C52       1.0  0.6280349718708182  0.7465053074392786  0.9710337491924437  1.0000
  C   C53       1.0  0.11847416466837762  0.37196395242055763  0.9710356257174269  1.0000
  C   C54       1.0  0.25349180665390486  0.8815280160480726  0.9710347114587778  1.0000
  C   C55       1.0  0.25349445172204094  0.3719651374150956  0.4710337744957158  1.0000
  C   C56       1.0  0.6280345284879233  0.881524785174804  0.47103539031701314  1.0000
  C   C57       1.0  0.11847218935965742  0.7465080616606841  0.47103466613263123  1.0000
  C   C58       1.0  0.37196540949106793  0.2534944073932763  0.028966126209908807  1.0000
  C   C59       1.0  0.8815258569906984  0.628036122114949  0.0289642496845204  1.0000
  C   C60       1.0  0.7465082150051714  0.1184720584874342  0.028965163943169607  1.0000
  C   C61       1.0  0.7036930013096736  0.6835334991319681  0.5084447331656676  1.0000
  C   C62       1.0  0.31646529500650183  0.02016398000683482  0.5084432216660062  1.0000
  C   C63       1.0  0.9798396108952119  0.2963045407345177  0.5084433020385577  1.0000
  C   C64       1.0  0.6835341234613707  0.7036933300958026  0.9915551131919856  1.0000
  C   C65       1.0  0.020163747824639616  0.31646534550245065  0.9915563269927006  1.0000
  C   C66       1.0  0.2963043234217649  0.9798398025170556  0.9915565770748032  1.0000
  C   C67       1.0  0.29630738005226925  0.31646621570015304  0.4915557497355113  1.0000
  C   C68       1.0  0.6835341036312669  0.9798354715072791  0.491556653736126  1.0000
  C   C69       1.0  0.020160674082376203  0.7036965165253407  0.4915565733628  1.0000
  C   C70       1.0  0.316466521219013  0.296307367461104  0.008444762209777001  1.0000
  C   C71       1.0  0.9798362738344363  0.6835347290330559  0.008443548409246701  1.0000
  C   C72       1.0  0.7036966809614282  0.02016053533689896  0.008443298327371503  1.0000
  C   C73       1.0  0.5044639943851337  0.5148124143256328  0.3750526082469535  1.0000
  C   C74       1.0  0.48518611863173056  0.9896548174653217  0.3750528692622055  1.0000
  C   C75       1.0  0.010346187888124811  0.49553330847344773  0.3750512005288159  1.0000
  C   C76       1.0  0.5148126219080851  0.5044639384860047  0.12494717632998231  1.0000
  C   C77       1.0  0.9896548949104299  0.48518599381542055  0.124947995975532  1.0000
  C   C78       1.0  0.4955334549081059  0.010346001848233772  0.12494873543862893  1.0000
  C   C79       1.0  0.4955360272739424  0.4851876602098741  0.6249472671549938  1.0000
  C   C80       1.0  0.5148139030274024  0.010345257069751307  0.6249476136385682  1.0000
  C   C81       1.0  0.9896538337710084  0.5044667660616325  0.6249492823719579  1.0000
  C   C82       1.0  0.4851871364324367  0.4955351533255907  0.8750520915737355  1.0000
  C   C83       1.0  0.010345126748703136  0.5148140807196526  0.8750524869252347  1.0000
  C   C84       1.0  0.5044665667510274  0.9896540726868395  0.8750517474621449  1.0000
  C   C85       1.0  0.37412563198859755  0.38755891054634617  0.29510336916176544  1.0000
  C   C86       1.0  0.6124411397492865  0.9865679756108605  0.2951036493134751  1.0000
  C   C87       1.0  0.013433175426548854  0.6258738954342391  0.2951036560983979  1.0000
  C   C88       1.0  0.38755908499563674  0.3741255083397662  0.20489649137387295  1.0000
  C   C89       1.0  0.9865680211465389  0.6124409997104011  0.20489657181072832  1.0000
  C   C90       1.0  0.625873597750001  0.013433282604204101  0.2048962405235386  1.0000
  C   C91       1.0  0.6258743896704785  0.6124411639891605  0.7048965062401822  1.0000
  C   C92       1.0  0.38755950493115415  0.013432721945612493  0.704896833587114  1.0000
  C   C93       1.0  0.9865668462325272  0.37412617910126744  0.7048962193035495  1.0000
  C   C94       1.0  0.6124409366634395  0.6258745661957406  0.7951033840280746  1.0000
  C   C95       1.0  0.013432000512594217  0.38755907482467217  0.7951039110900382  1.0000
  C   C96       1.0  0.3741264239090756  0.9865667919313098  0.7951036348784088  1.0000
  N   N1        1.0  0.4626985153804881  0.4292049277881205  0.3416311039709825  1.0000
  N   N2        1.0  0.5707958492622467  0.033495914926874065  0.3416320386657361  1.0000
  N   N3        1.0  0.9665082447742321  0.5373005249242483  0.3416324524376933  1.0000
  N   N4        1.0  0.42920414920926203  0.46269817560867904  0.15836871816546966  1.0000
  N   N5        1.0  0.03349525715209013  0.5707955916432753  0.15836847578044205  1.0000
  N   N6        1.0  0.537300144639481  0.9665076661213237  0.1583677967593218  1.0000
  N   N7        1.0  0.5373021292999026  0.5707957697687789  0.6583687714307801  1.0000
  N   N8        1.0  0.42920381269408386  0.9665045193111511  0.6583684442346254  1.0000
  N   N9        1.0  0.03349177688490104  0.46269954961082504  0.6583680304630805  1.0000
  N   N10       1.0  0.570794889725697  0.5373016356083866  0.8416311572362574  1.0000
  N   N11       1.0  0.9665044048042334  0.429204842594757  0.8416320071199197  1.0000
  N   N12       1.0  0.46269951731684233  0.03349276811670884  0.8416326861410398  1.0000
  N   N13       1.0  0.4860723412376515  0.2085563899112871  0.23819062362601073  1.0000
  N   N14       1.0  0.7914416752215487  0.27751318983519  0.23819191707175247  1.0000
  N   N15       1.0  0.7224920660189157  0.5139297542483023  0.23819232726257417  1.0000
  N   N16       1.0  0.20855980349605124  0.48607400890082897  0.261810471680768  1.0000
  N   N17       1.0  0.2775134143968144  0.7914416429771621  0.26180846035481414  1.0000
  N   N18       1.0  0.5139292830286877  0.7224913604977985  0.2618086082803616  1.0000
  N   N19       1.0  0.5139259077418997  0.7914404731318712  0.7618104667751383  1.0000
  N   N20       1.0  0.20855834643758447  0.7224868846998832  0.7618085658290215  1.0000
  N   N21       1.0  0.27750795564021047  0.4860703202867711  0.7618081556381924  1.0000
  N   N22       1.0  0.7914418239084567  0.5139269519745184  0.7381894037212222  1.0000
  N   N23       1.0  0.7224866072622689  0.20855843155834464  0.7381914150471331  1.0000
  N   N24       1.0  0.48607011560913077  0.277508091015882  0.7381918746205971  1.0000
  O   O1        1.0  0.5998644455082597  0.4085900174758592  0.4139034886501635  1.0000
  O   O2        1.0  0.5914103617576245  0.19127731930550607  0.4139036400003207  1.0000
  O   O3        1.0  0.8087256632057275  0.4001360346962244  0.4139041894443808  1.0000
  O   O4        1.0  0.4085906503095273  0.5998640939997985  0.08609690661715062  1.0000
  O   O5        1.0  0.19127666695100487  0.5914101335332091  0.0860962143416444  1.0000
  O   O6        1.0  0.40013660145234536  0.8087267113635832  0.08609553922701711  1.0000
  O   O7        1.0  0.400135935853683  0.5914096973562621  0.5860969942510152  1.0000
  O   O8        1.0  0.40858831747447516  0.8087228516149454  0.5860956279021752  1.0000
  O   O9        1.0  0.1912731124107267  0.5998627937964899  0.5860956859579362  1.0000
  O   O10       1.0  0.5914107137764758  0.4001358841511972  0.913902968785422  1.0000
  O   O11       1.0  0.8087223719839542  0.4085896776838567  0.9139036610600828  1.0000
  O   O12       1.0  0.5998636835252354  0.191274345896268  0.9139043361743406  1.0000
  O   O13       1.0  0.4855918472534028  0.2570817699123041  0.3000206042167193  1.0000
  O   O14       1.0  0.7429221819832745  0.22851235806779588  0.3000261995903771  1.0000
  O   O15       1.0  0.7714885690857258  0.5144073285350145  0.3000284377594085  1.0000
  O   O16       1.0  0.25708252407299875  0.48559373957336766  0.19997865442483945  1.0000
  O   O17       1.0  0.22851226810797703  0.7429225415179204  0.19997420659256457  1.0000
  O   O18       1.0  0.514407525318113  0.7714885382164738  0.19997187569558866  1.0000
  O   O19       1.0  0.5144065686601922  0.7429174182838028  0.6999786636863661  1.0000
  O   O20       1.0  0.25707747997304864  0.7714880761702291  0.6999742833099846  1.0000
  O   O21       1.0  0.22851145257340721  0.48559274600005853  0.6999720451413652  1.0000
  O   O22       1.0  0.7429167781803016  0.5144070543693431  0.8000193984798188  1.0000
  O   O23       1.0  0.7714877535511562  0.2570775330171532  0.8000262763082091  1.0000
  O   O24       1.0  0.48559249634097046  0.2285115363190328  0.8000279997063587  1.0000
  O   O25       1.0  0.566541583194649  0.21211901650882942  0.22219824815073966  1.0000
  O   O26       1.0  0.7878806428104779  0.3544213062925721  0.22219884671201134  1.0000
  O   O27       1.0  0.6455807818174077  0.43346460783369156  0.22219933841704184  1.0000
  O   O28       1.0  0.21212072784260275  0.5665437181176429  0.2778016073780308  1.0000
  O   O29       1.0  0.35442114004867137  0.7878809490230906  0.2778015090855632  1.0000
  O   O30       1.0  0.4334641379383442  0.6455800564724682  0.27780042853541437  1.0000
  O   O31       1.0  0.43345719242180564  0.787879811983885  0.7778016272515771  1.0000
  O   O32       1.0  0.2121193788486551  0.6455787682425012  0.7778016361887552  1.0000
  O   O33       1.0  0.3544195995444709  0.5665351069988631  0.7778005369853177  1.0000
  O   O34       1.0  0.7878799168377312  0.43345697943968997  0.7221976605249055  1.0000
  O   O35       1.0  0.6455788816104046  0.21211912551241605  0.722198366316384  1.0000
  O   O36       1.0  0.5665356204022275  0.35441903533869384  0.7221994468671228  1.0000
  O   O37       1.0  0.4136432166106303  0.16137915254847718  0.1960296010561251  1.0000
  O   O38       1.0  0.8386108446331165  0.25225693914607933  0.19602667635929552  1.0000
  O   O39       1.0  0.7477551767665886  0.5863564274609915  0.19602640027778054  1.0000
  O   O40       1.0  0.1613887024746035  0.41364740751119206  0.30397456701505393  1.0000
  O   O41       1.0  0.2522561678242283  0.838610538855697  0.3039736946053751  1.0000
  O   O42       1.0  0.5863565369232686  0.7477550650559904  0.3039738989593985  1.0000
  O   O43       1.0  0.5863528294368052  0.8386111911254729  0.8039739193440456  1.0000
  O   O44       1.0  0.16138881732321403  0.7477434950919458  0.8039738065410733  1.0000
  O   O45       1.0  0.25224520459535427  0.41364328737113  0.8039740826233983  1.0000
  O   O46       1.0  0.8386145306754925  0.5863544397026957  0.6960271308834437  1.0000
  O   O47       1.0  0.7477438538348479  0.1613895356798095  0.6960261807965722  1.0000
  O   O48       1.0  0.4136434847358074  0.25224500947951617  0.6960259764425488  1.0000
