data_image0
_chemical_formula_structural       Al2H24C48Cl6O12
_chemical_formula_sum              "Al2 H24 C48 Cl6 O12"
_cell_length_a       3.966671019635672
_cell_length_b       28.553489815059436
_cell_length_c       28.554586186354136
_cell_angle_alpha    120.0042812611769
_cell_angle_beta     90.00471243841811
_cell_angle_gamma    89.99265790035918

_space_group_name_H-M_alt    "P 1"
_space_group_IT_number       1

loop_
  _space_group_symop_operation_xyz
  'x, y, z'

loop_
  _atom_site_type_symbol
  _atom_site_label
  _atom_site_symmetry_multiplicity
  _atom_site_fract_x
  _atom_site_fract_y
  _atom_site_fract_z
  _atom_site_occupancy
  Al  Al1       1.0  0.015292455761958501  0.5000018055672798  0.500002467444638  1.0000
  Al  Al2       1.0  0.015215559039575097  0.16666873800583212  0.8333275087248212  1.0000
  H   H1        1.0  0.33671936661772145  0.1838441031394495  0.699859431485834  1.0000
  H   H2        1.0  0.32821646299803586  0.23461382029155683  0.6504943333102489  1.0000
  H   H3        1.0  0.6311613900954641  0.37839049559932664  0.7972697524027127  1.0000
  H   H4        1.0  0.6311099926316572  0.2882627233360537  0.5360616931333412  1.0000
  H   H5        1.0  0.32843119763894174  0.4320655050745118  0.6828441796937882  1.0000
  H   H6        1.0  0.33700810896390726  0.4828313404723375  0.6334753294324217  1.0000
  H   H7        1.0  0.49831482279956424  0.386642793201979  0.7210497850049864  1.0000
  H   H8        1.0  0.4984896166991817  0.2800237312974189  0.6122889550255195  1.0000
  H   H9        1.0  0.33677617415018096  0.016041561506476558  0.8161412558748967  1.0000
  H   H10       1.0  0.32830714997269433  0.915889048449664  0.7653708637825787  1.0000
  H   H11       1.0  0.6313795376208233  0.9188521913172708  0.621595464492437  1.0000
  H   H12       1.0  0.6309933468827892  0.747822083797175  0.7117518112821916  1.0000
  H   H13       1.0  0.32851008506638374  0.750792606389375  0.5679538586690571  1.0000
  H   H14       1.0  0.33698659019114535  0.650638591091024  0.5171852757706646  1.0000
  H   H15       1.0  0.4986417804712602  0.8343883428887011  0.6133562179727651  1.0000
  H   H16       1.0  0.49845324077536907  0.832287483854003  0.7199841861894498  1.0000
  H   H17       1.0  0.33677360523000743  0.3001207900275631  0.9839701906499911  1.0000
  H   H18       1.0  0.32826196927243256  0.3494923825791219  0.08411633411710542  1.0000
  H   H19       1.0  0.6312739314776294  0.20272212556809419  0.08111766320894284  1.0000
  H   H20       1.0  0.6310635916030948  0.4639322276245749  0.252194865753495  1.0000
  H   H21       1.0  0.3284316810097678  0.3171668701670782  0.24921400666298152  1.0000
  H   H22       1.0  0.3369463083016058  0.36655175524518313  0.34936046216667194  1.0000
  H   H23       1.0  0.4983502841502272  0.2789414393442939  0.16557724991716338  1.0000
  H   H24       1.0  0.49846484528259793  0.38770649633568155  0.16773499494637895  1.0000
  C   C1        1.0  0.5134756439812377  0.4666616081543325  0.4173554639885567  1.0000
  C   C2        1.0  0.5135914585507139  0.4507063994114874  0.533354987321829  1.0000
  C   C3        1.0  0.5134817293594053  0.5826500955657393  0.5493073007978637  1.0000
  C   C4        1.0  0.5134373193555746  0.21595338913662235  0.7999723958766937  1.0000
  C   C5        1.0  0.5135747752799772  0.08402233756579144  0.7840375649835494  1.0000
  C   C6        1.0  0.5135102638447079  0.20001757668060796  0.9159735120308029  1.0000
  C   C7        1.0  0.5058616389539026  0.25071014591799223  0.7748215458609524  1.0000
  C   C8        1.0  0.40837740401164513  0.2263830506873746  0.7202110777737901  1.0000
  C   C9        1.0  0.4046096280966367  0.2549497870720855  0.6928150883976443  1.0000
  C   C10       1.0  0.4881596088582683  0.3103648680599562  0.7198559949743314  1.0000
  C   C11       1.0  0.5734872573203801  0.33529407730667055  0.7749365364292018  1.0000
  C   C12       1.0  0.5890209844811451  0.30596312374711243  0.801897343277041  1.0000
  C   C13       1.0  0.487401990394524  0.3429007360553414  0.6936319451061976  1.0000
  C   C14       1.0  0.48744448920886907  0.32376583523188884  0.639703850573703  1.0000
  C   C15       1.0  0.5735086183578916  0.33136424311283014  0.5583963268545561  1.0000
  C   C16       1.0  0.4882524152514378  0.3563017007277694  0.6134798097446464  1.0000
  C   C17       1.0  0.40475803814405964  0.4117205225419625  0.6405183723537605  1.0000
  C   C18       1.0  0.4085784909808012  0.44028463372791987  0.6131222413776101  1.0000
  C   C19       1.0  0.5060310211175859  0.4159509081975371  0.5585094152331536  1.0000
  C   C20       1.0  0.5890891451815748  0.3606908352838119  0.531433008910895  1.0000
  C   C21       1.0  0.5059788126585333  0.024110742139242945  0.7492720491461854  1.0000
  C   C22       1.0  0.40849903908616614  0.9938377676063866  0.7736043148567904  1.0000
  C   C23       1.0  0.4047313220707096  0.9378689472944968  0.745037120785753  1.0000
  C   C24       1.0  0.48830830439516854  0.9094921352355172  0.6896217828469988  1.0000
  C   C25       1.0  0.5737004680436897  0.9396349158769083  0.6646937901756333  1.0000
  C   C26       1.0  0.589218556992883  0.995932208673807  0.6940216979067133  1.0000
  C   C27       1.0  0.4875944605300901  0.8507257186254831  0.6570973280716644  1.0000
  C   C28       1.0  0.4874341989831734  0.8159490387146491  0.6762426535046304  1.0000
  C   C29       1.0  0.5734120367558971  0.727041010029879  0.6686506477861088  1.0000
  C   C30       1.0  0.488215309462099  0.7571832489050365  0.6437119647986125  1.0000
  C   C31       1.0  0.4047277688513303  0.7288057057626177  0.5882938570669155  1.0000
  C   C32       1.0  0.40851802736269605  0.6728373605601661  0.5597304268054587  1.0000
  C   C33       1.0  0.5059188834350722  0.6425630334666296  0.5840700042476287  1.0000
  C   C34       1.0  0.5889376133750304  0.6707431869813972  0.639329714393334  1.0000
  C   C35       1.0  0.5059323567847615  0.22516297890748407  0.9758831123844163  1.0000
  C   C36       1.0  0.4084534105340794  0.279777980337002  0.006164987973129129  1.0000
  C   C37       1.0  0.4046821997715285  0.3071719226064218  0.062132079966609466  1.0000
  C   C38       1.0  0.48822639151067193  0.2801300164353933  0.09050068295211136  1.0000
  C   C39       1.0  0.5736054651622596  0.22504862037411755  0.060349516415854544  1.0000
  C   C40       1.0  0.589154433945268  0.1980854607367064  0.004052196178648253  1.0000
  C   C41       1.0  0.48743651456089043  0.3063611691443313  0.1492618999598392  1.0000
  C   C42       1.0  0.4874004846457183  0.36029410677805623  0.18405832435571068  1.0000
  C   C43       1.0  0.5734237793625779  0.44160842318014903  0.27296404221876003  1.0000
  C   C44       1.0  0.4882190115083348  0.3865225370158285  0.24282087525948276  1.0000
  C   C45       1.0  0.404681026360926  0.35949472373440017  0.27119990100285213  1.0000
  C   C46       1.0  0.4084829097234319  0.3868989043385653  0.3271679808457578  1.0000
  C   C47       1.0  0.5059376027970758  0.44151302298161005  0.35744338079692994  1.0000
  C   C48       1.0  0.5889714076285487  0.4685825912305148  0.32926167622974845  1.0000
  Cl  Cl1       1.0  0.6959550812009356  0.34075230317615274  0.8696701520798129  1.0000
  Cl  Cl2       1.0  0.6959766660313704  0.32589659894378553  0.46365914886853704  1.0000
  Cl  Cl3       1.0  0.6961955035839085  0.02891320395720235  0.6592382636748725  1.0000
  Cl  Cl4       1.0  0.6957891766380444  0.6377563069948593  0.6741152639182887  1.0000
  Cl  Cl5       1.0  0.6961384092016588  0.1303094013154152  0.9710607166262478  1.0000
  Cl  Cl6       1.0  0.6959067684890528  0.5363544536031668  0.3622507843535701  1.0000
  O   O1        1.0  0.7520666030214329  0.5566160910972614  0.5557618632212356  1.0000
  O   O2        1.0  0.7520653943317869  0.499146231460017  0.4433858457139053  1.0000
  O   O3        1.0  0.7521353864614684  0.44423996243457253  0.5008615354464185  1.0000
  O   O4        1.0  0.2811263297173809  0.5614532135880808  0.5137708751488292  1.0000
  O   O5        1.0  0.2812044097963308  0.4862408171130994  0.5476881001627804  1.0000
  O   O6        1.0  0.28119028754579745  0.4523182070772052  0.43855263118019394  1.0000
  O   O7        1.0  0.7520964661578164  0.16752482123766316  0.8899413516390312  1.0000
  O   O8        1.0  0.7519861472759929  0.2224193079903146  0.8324704624580052  1.0000
  O   O9        1.0  0.7520927390218475  0.1100556154981548  0.7775773045267941  1.0000
  O   O10       1.0  0.28115159450785404  0.21435797841629525  0.89477881664358  1.0000
  O   O11       1.0  0.28122564014051227  0.1052217669246929  0.8195723028465025  1.0000
  O   O12       1.0  0.28109462303743277  0.18042251666992828  0.7856394003062165  1.0000
