data_image0
_chemical_formula_structural       Cd2H18C26N2O8
_chemical_formula_sum              "Cd2 H18 C26 N2 O8"
_cell_length_a       7.916454916429706
_cell_length_b       9.841828607124935
_cell_length_c       9.841856911368168
_cell_angle_alpha    60.2602102639882
_cell_angle_beta     75.48062546920639
_cell_angle_gamma    75.48057084984708

_space_group_name_H-M_alt    "P 1"
_space_group_IT_number       1

loop_
  _space_group_symop_operation_xyz
  'x, y, z'

loop_
  _atom_site_type_symbol
  _atom_site_label
  _atom_site_symmetry_multiplicity
  _atom_site_fract_x
  _atom_site_fract_y
  _atom_site_fract_z
  _atom_site_occupancy
  Cd  Cd1       1.0  0.7500004062163513  0.4791015860757497  0.5208999409106171  1.0000
  Cd  Cd2       1.0  0.24999918565156076  0.5208994549960124  0.4791008863399427  1.0000
  H   H1        1.0  0.21391939947496752  0.6770822481999375  0.9383860749300581  1.0000
  H   H2        1.0  0.28608552335757764  0.06161452753541851  0.32291504984931413  1.0000
  H   H3        1.0  0.786080216106143  0.3229187969857747  0.06161372961313554  1.0000
  H   H4        1.0  0.7139157479235083  0.9383841355068512  0.6770866299352604  1.0000
  H   H5        1.0  0.8992413004806111  0.3187997233074356  0.2809863141466594  1.0000
  H   H6        1.0  0.6007573366019017  0.7190111936759465  0.6812030893766093  1.0000
  H   H7        1.0  0.1007581523075132  0.6812025095843383  0.719011921871811  1.0000
  H   H8        1.0  0.39924374817298514  0.28098865295844183  0.3187980445905937  1.0000
  H   H9        1.0  0.11909021552418861  0.1910889877666833  0.6304417398471287  1.0000
  H   H10       1.0  0.380909631429418  0.3695560168024983  0.8089142189350512  1.0000
  H   H11       1.0  0.8809090507577368  0.8089144287172091  0.36955595035397687  1.0000
  H   H12       1.0  0.6190918263578525  0.6304414626476527  0.19108800666688106  1.0000
  H   H13       1.0  0.11737038442482378  0.9327629775539988  0.8784152432207364  1.0000
  H   H14       1.0  0.38263105086951305  0.12158087458065839  0.06723670783772208  1.0000
  H   H15       1.0  0.8826279721818936  0.06723808670484739  0.1215827550084398  1.0000
  H   H16       1.0  0.6173706408503463  0.8784154295052601  0.9327640181668502  1.0000
  H   H17       1.0  0.2500016203327391  0.8963168323337953  0.10367929461163065  1.0000
  H   H18       1.0  0.7499984394003507  0.10368185800950157  0.8963185334441875  1.0000
  C   C1        1.0  0.12045385187884257  0.5029302896924362  0.2526057438318078  1.0000
  C   C2        1.0  0.3795453695002778  0.7473931562404419  0.49707077248209675  1.0000
  C   C3        1.0  0.879544457301485  0.49707076633852426  0.7473942998121005  1.0000
  C   C4        1.0  0.6204545953800179  0.2526055176470763  0.5029311464031849  1.0000
  C   C5        1.0  0.06102344975741405  0.4992815978936205  0.12204668368624284  1.0000
  C   C6        1.0  0.43897834413311204  0.8779519412600791  0.5007179805133575  1.0000
  C   C7        1.0  0.9389748594229063  0.50071945813734  0.8779533599576655  1.0000
  C   C8        1.0  0.5610229271479669  0.12204672178219059  0.49928369927121  1.0000
  C   C9        1.0  0.11937789438155737  0.6009214933690786  0.9637334066641047  1.0000
  C   C10       1.0  0.38062402415155117  0.0362678211428218  0.39907832019862627  1.0000
  C   C11       1.0  0.8806216974863545  0.3990795477026836  0.036267420586455046  1.0000
  C   C12       1.0  0.6193768741171513  0.9637332090836923  0.6009222679512192  1.0000
  C   C13       1.0  0.057830086651954195  0.6023425054785392  0.842491577160729  1.0000
  C   C14       1.0  0.44217102249664464  0.15750775284199392  0.39765934580586315  1.0000
  C   C15       1.0  0.9421669398407746  0.3976585655116197  0.15750768287652753  1.0000
  C   C16       1.0  0.557831531472033  0.8424908952410773  0.6023431175853631  1.0000
  C   C17       1.0  0.17746273593384393  0.16916314601748889  0.730077111841787  1.0000
  C   C18       1.0  0.322538480562237  0.26992141698231353  0.8308365972376563  1.0000
  C   C19       1.0  0.8225382097612554  0.8308378924369109  0.26992143089332626  1.0000
  C   C20       1.0  0.6774641208328376  0.7300772393286509  0.16916382073883798  1.0000
  C   C21       1.0  0.1770888550402745  0.026165423989091604  0.8684678224249256  1.0000
  C   C22       1.0  0.32291106708043327  0.13152848771836292  0.9738334011291415  1.0000
  C   C23       1.0  0.822909362486648  0.9738368320897663  0.13152758457215447  1.0000
  C   C24       1.0  0.677090461846433  0.868469004073617  0.026165756350700044  1.0000
  C   C25       1.0  0.2500013404892698  0.0066678829145488  0.9933283913939165  1.0000
  C   C26       1.0  0.7499986955306143  0.9933308033148056  0.0066704593692744245  1.0000
  N   N1        1.0  0.2499999818982063  0.28855253758104027  0.7114469673142737  1.0000
  N   N2        1.0  0.7500011028766808  0.7114473090533481  0.2885541666529363  1.0000
  O   O1        1.0  0.23379503731427323  0.5913371113877873  0.21825914394193546  1.0000
  O   O2        1.0  0.26620692492804937  0.7817396509062321  0.4086628191660183  1.0000
  O   O3        1.0  0.7662045782668373  0.4086639337979178  0.7817406606012584  1.0000
  O   O4        1.0  0.7337928534460473  0.21826020657340447  0.5913385539018989  1.0000
  O   O5        1.0  0.9442631123140118  0.5832105696840914  0.6035333722378837  1.0000
  O   O6        1.0  0.5557370856710194  0.39646592160640654  0.41679110454001733  1.0000
  O   O7        1.0  0.055736713486489065  0.41678929602343817  0.39646595541530877  1.0000
  O   O8        1.0  0.4442641856100594  0.6035327414358633  0.5832105752445571  1.0000
