data_image0
_chemical_formula_structural       Sm2H42C54O12
_chemical_formula_sum              "Sm2 H42 C54 O12"
_cell_length_a       7.642122006265916
_cell_length_b       13.305797457255885
_cell_length_c       13.305798043671167
_cell_angle_alpha    116.4159895755203
_cell_angle_beta     101.04637781978929
_cell_angle_gamma    101.04647153867117

_space_group_name_H-M_alt    "P 1"
_space_group_IT_number       1

loop_
  _space_group_symop_operation_xyz
  'x, y, z'

loop_
  _atom_site_type_symbol
  _atom_site_label
  _atom_site_symmetry_multiplicity
  _atom_site_fract_x
  _atom_site_fract_y
  _atom_site_fract_z
  _atom_site_occupancy
  Sm  Sm1       1.0  0.0008678086033385002  4.1631436147299986e-05  3.793731144700001e-05  1.0000
  Sm  Sm2       1.0  0.5008687448794332  3.813092570939998e-05  4.1272329362113e-05  1.0000
  H   H1        1.0  0.4309693973736656  0.6509636559587406  0.8252381710931689  1.0000
  H   H2        1.0  0.7798593369026675  0.17434020951937867  0.34907135719140575  1.0000
  H   H3        1.0  0.605484566021829  0.17466070665692257  0.8256275304336216  1.0000
  H   H4        1.0  0.10548431498141733  0.8256273608717418  0.17466032795997669  1.0000
  H   H5        1.0  0.9309688002762894  0.8252379537330936  0.6509642038217153  1.0000
  H   H6        1.0  0.2798580994102834  0.3490706894836464  0.174340265184405  1.0000
  H   H7        1.0  0.7647446741791484  0.6196246754775884  0.9669366612504364  1.0000
  H   H8        1.0  0.14501581078211237  0.3473356670022411  0.3804013507894766  1.0000
  H   H9        1.0  0.7976308193580551  0.033135858867829895  0.6526840770315945  1.0000
  H   H10       1.0  0.29763069444160084  0.6526846025803008  0.03313556952216599  1.0000
  H   H11       1.0  0.2647410376283258  0.9669361461003799  0.6196231030559006  1.0000
  H   H12       1.0  0.6450159397995776  0.380401789534531  0.3473363384986002  1.0000
  H   H13       1.0  0.6948258197246489  0.4707658955765552  0.01730280706733823  1.0000
  H   H14       1.0  0.2240034824856564  0.5465584347776087  0.5291913735332586  1.0000
  H   H15       1.0  0.6775737498189967  0.9828199690586245  0.45356352413917733  1.0000
  H   H16       1.0  0.17757427002233328  0.45356360318776007  0.9828198973825838  1.0000
  H   H17       1.0  0.19482529027007436  0.0173026302301054  0.47076518445881294  1.0000
  H   H18       1.0  0.7240026974665807  0.5291907293556335  0.5465578746376141  1.0000
  H   H19       1.0  0.4925350211842101  0.2819387247059524  0.9825360584452911  1.0000
  H   H20       1.0  0.21057768246046737  0.7006101567034264  0.718022864214099  1.0000
  H   H21       1.0  0.5099757777422482  0.017536304475577  0.2994527890790125  1.0000
  H   H22       1.0  0.009975461060676562  0.299453037520486  0.01753582181984109  1.0000
  H   H23       1.0  0.9925324786963327  0.9825364123669614  0.28193912347195743  1.0000
  H   H24       1.0  0.7105788069287939  0.7180230296222803  0.7006108770697355  1.0000
  H   H25       1.0  0.1802194298869821  0.17862485820668894  0.826494047114892  1.0000
  H   H26       1.0  0.0015877970900675007  0.6478137926839268  0.8212793256058152  1.0000
  H   H27       1.0  0.35371716378860896  0.1735323344896074  0.35217797438351545  1.0000
  H   H28       1.0  0.8537171485261793  0.35217818900577663  0.17353112449318797  1.0000
  H   H29       1.0  0.6802171667365396  0.8264941812319291  0.17862475428898955  1.0000
  H   H30       1.0  0.5015887315134716  0.8212790343734607  0.6478133536589398  1.0000
  H   H31       1.0  0.07214912601509126  0.2676318876981298  0.7051310548296075  1.0000
  H   H32       1.0  0.8046473237271526  0.4374513324414054  0.7323414150534905  1.0000
  H   H33       1.0  0.3669718389465685  0.2948632726108613  0.5624867790062498  1.0000
  H   H34       1.0  0.8669719325210178  0.5624867504357524  0.29486279726953063  1.0000
  H   H35       1.0  0.5721465315411434  0.7051288914036106  0.26763014597616325  1.0000
  H   H36       1.0  0.30464762310738536  0.7323412610517793  0.43745101894741384  1.0000
  H   H37       1.0  0.272426223132939  0.4570010435177281  0.7407459866548154  1.0000
  H   H38       1.0  0.8155458651861662  0.28371417564378726  0.5429895358435602  1.0000
  H   H39       1.0  0.5314507598835262  0.25914670211501795  0.7162156490563591  1.0000
  H   H40       1.0  0.03144992057978142  0.7162157217696927  0.2591457789229849  1.0000
  H   H41       1.0  0.772425761190057  0.7407437523568348  0.45699809090309185  1.0000
  H   H42       1.0  0.3155452054429586  0.5429897115183735  0.2837143945117263  1.0000
  C   C1        1.0  0.7105464645990974  0.7809688141024578  0.9152139237312727  1.0000
  C   C2        1.0  0.9293911121678277  0.13430146531969456  0.21909045835958815  1.0000
  C   C3        1.0  0.7951927972258731  0.08474129933655658  0.865699777206814  1.0000
  C   C4        1.0  0.2951914751543255  0.8656989833735267  0.08473977508859325  1.0000
  C   C5        1.0  0.21054668068980922  0.9152146479536684  0.7809682948800047  1.0000
  C   C6        1.0  0.4293927738820287  0.2190905282524227  0.13430290153942792  1.0000
  C   C7        1.0  0.5729371406530746  0.6674840414914343  0.8766777849917278  1.0000
  C   C8        1.0  0.9052684272081919  0.20926977792920096  0.3325480335728274  1.0000
  C   C9        1.0  0.6959901862601328  0.12323067415705681  0.7907373397718943  1.0000
  C   C10       1.0  0.19599045244581234  0.7907365611837774  0.1232293872457504  1.0000
  C   C11       1.0  0.07293587939422937  0.8766785508483463  0.6674843398671939  1.0000
  C   C12       1.0  0.4052694676902532  0.3325478149002805  0.2092701948942804  1.0000
  C   C13       1.0  0.6205573008342355  0.5916687166760042  0.9100221714774154  1.0000
  C   C14       1.0  0.028775637176622064  0.3184184946473181  0.4083436519183366  1.0000
  C   C15       1.0  0.7102688564574322  0.0899493098414155  0.6816041426064035  1.0000
  C   C16       1.0  0.21026989443419805  0.6816037381214741  0.08994916095490885  1.0000
  C   C17       1.0  0.12055558506688843  0.9100230458493568  0.5916686049183185  1.0000
  C   C18       1.0  0.5287749357515565  0.40834314793743687  0.3184187452515631  1.0000
  C   C19       1.0  0.4978655630875933  0.4784533694793822  0.8827643060071397  1.0000
  C   C20       1.0  0.019387180246532326  0.4043455385849342  0.5215415146485045  1.0000
  C   C21       1.0  0.6148888695998878  0.11722415530533675  0.5956841953897368  1.0000
  C   C22       1.0  0.1148900386544439  0.5956840928602389  0.11722411455780708  1.0000
  C   C23       1.0  0.9978658820418999  0.8827613813743225  0.4784510682469048  1.0000
  C   C24       1.0  0.5193881643565985  0.5215420205262831  0.4043457836507401  1.0000
  C   C25       1.0  0.5580857484982785  0.4262114630388183  0.9489835205937498  1.0000
  C   C26       1.0  0.1318024806821611  0.5228032310052128  0.5737374452471615  1.0000
  C   C27       1.0  0.6089601527611137  0.05102606903387401  0.47725592646100534  1.0000
  C   C28       1.0  0.10896083092560353  0.47725545463904945  0.05102601766756016  1.0000
  C   C29       1.0  0.058086590379204384  0.9489820431476943  0.42621047497004855  1.0000
  C   C30       1.0  0.6318031548704964  0.5737384448836238  0.5228036199236784  1.0000
  C   C31       1.0  0.44400559088709457  0.3199352969947427  0.9293627596827962  1.0000
  C   C32       1.0  0.12410404889006085  0.6094319975543032  0.6800312823956391  1.0000
  C   C33       1.0  0.5145933395852892  0.07065749538676157  0.39060202423383583  1.0000
  C   C34       1.0  0.01459333789081531  0.3906025266968669  0.07065690073684294  1.0000
  C   C35       1.0  0.9440059603950602  0.9293616255229082  0.31993450031234993  1.0000
  C   C36       1.0  0.62410261238999  0.6800312581310308  0.6094319568818991  1.0000
  C   C37       1.0  0.26878564215284223  0.26196744650914633  0.8416602740064222  1.0000
  C   C38       1.0  0.006892625473845624  0.5796410790554631  0.7379917434864469  1.0000
  C   C39       1.0  0.42706977701261195  0.1583474887382792  0.4203429132230597  1.0000
  C   C40       1.0  0.9270700489986151  0.42034205697557053  0.15834695060217993  1.0000
  C   C41       1.0  0.7687833964250143  0.8416602929415049  0.26196650691876755  1.0000
  C   C42       1.0  0.5068930871049132  0.7379915576201982  0.5796406925631248  1.0000
  C   C43       1.0  0.2083694574567189  0.31216524939856777  0.7739979876572392  1.0000
  C   C44       1.0  0.8962838561501555  0.4617767675332089  0.6878022299269162  1.0000
  C   C45       1.0  0.4343101931050413  0.22601343478125807  0.5381784006079331  1.0000
  C   C46       1.0  0.9343123660738539  0.5381783351888954  0.2260135389335645  1.0000
  C   C47       1.0  0.708368504643516  0.7739958369813561  0.312163010880873  1.0000
  C   C48       1.0  0.3962862621102587  0.6878031849064853  0.46177675503300725  1.0000
  C   C49       1.0  0.3208834860967755  0.41928471437829257  0.7943799122955115  1.0000
  C   C50       1.0  0.9016357715940231  0.3750815280088489  0.5806968959489612  1.0000
  C   C51       1.0  0.5262961880266346  0.20557632165930065  0.624877617318923  1.0000
  C   C52       1.0  0.026296704969070064  0.6248778864620589  0.20557541393894496  1.0000
  C   C53       1.0  0.8208822986176326  0.7943765098626513  0.4192824842374493  1.0000
  C   C54       1.0  0.4016372300314259  0.5806967373305696  0.375080956562819  1.0000
  O   O1        1.0  0.8836990324019779  0.8035440995385553  0.9664073518825307  1.0000
  O   O2        1.0  0.07992158338332435  0.16297818076509427  0.19651313424521535  1.0000
  O   O3        1.0  0.9171104185988525  0.033552434377647  0.8370545700501567  1.0000
  O   O4        1.0  0.4171094221485417  0.8370540519339825  0.033550832956023985  1.0000
  O   O5        1.0  0.38369839419534174  0.9664075365244427  0.8035418106280121  1.0000
  O   O6        1.0  0.5799239213919234  0.19651382138412288  0.1629790013433023  1.0000
  O   O7        1.0  0.6569815913533716  0.8596553658746161  0.8957762983668901  1.0000
  O   O8        1.0  0.7971542199032696  0.0361297877425741  0.14043815672486915  1.0000
  O   O9        1.0  0.7612411499212398  0.10424902498717607  0.9638787590967868  1.0000
  O   O10       1.0  0.26124209435511125  0.963878812167202  0.1042484864906469  1.0000
  O   O11       1.0  0.1569813104826706  0.8957772612583811  0.8596555240149045  1.0000
  O   O12       1.0  0.297154422584171  0.14043700209464297  0.03613005721609141  1.0000
