data_image0
_chemical_formula_structural       Cu4H32C24O32
_chemical_formula_sum              "Cu4 H32 C24 O32"
_cell_length_a       6.9023854673643426
_cell_length_b       8.110136088679681
_cell_length_c       15.122916236011704
_cell_angle_alpha    89.99986116615926
_cell_angle_beta     90.00006212620637
_cell_angle_gamma    95.4074565516593

_space_group_name_H-M_alt    "P 1"
_space_group_IT_number       1

loop_
  _space_group_symop_operation_xyz
  'x, y, z'

loop_
  _atom_site_type_symbol
  _atom_site_label
  _atom_site_symmetry_multiplicity
  _atom_site_fract_x
  _atom_site_fract_y
  _atom_site_fract_z
  _atom_site_occupancy
  Cu  Cu1       1.0  0.7477781779484828  0.3327344281215901  0.3184921661914686  1.0000
  Cu  Cu2       1.0  0.25222418902144034  0.16726330405924023  0.818494884566775  1.0000
  Cu  Cu3       1.0  0.2522232833389779  0.6672685215863512  0.681508415176431  1.0000
  Cu  Cu4       1.0  0.7477781377894247  0.8327334707606941  0.1815076805497853  1.0000
  H   H1        1.0  0.769510055987432  0.7790509935935079  0.5269397751134052  1.0000
  H   H2        1.0  0.2304831090252151  0.7209429289669914  0.026944144846872606  1.0000
  H   H3        1.0  0.23048803620545036  0.2209469680452686  0.473058161264163  1.0000
  H   H4        1.0  0.7695109825601706  0.2790586963120419  0.973055114023289  1.0000
  H   H5        1.0  0.7807088949031853  0.9827899183439259  0.6691688282332038  1.0000
  H   H6        1.0  0.21929000793443276  0.5172009657393987  0.16916948748819752  1.0000
  H   H7        1.0  0.21929621598136606  0.0172056524718442  0.33083043064440437  1.0000
  H   H8        1.0  0.7807056511931947  0.4828019151627815  0.8308284488853988  1.0000
  H   H9        1.0  0.3945567435467511  0.2725636480039527  0.280562238662931  1.0000
  H   H10       1.0  0.6054414605596463  0.22743667754420474  0.7805611372496915  1.0000
  H   H11       1.0  0.6054435012080859  0.7274417613356906  0.7194383427029862  1.0000
  H   H12       1.0  0.39455953271394145  0.7725613184945176  0.21943944412127794  1.0000
  H   H13       1.0  0.4048044571502557  0.40513747743243317  0.3634013373005943  1.0000
  H   H14       1.0  0.5951985484111902  0.09486624777003531  0.8634017237262911  1.0000
  H   H15       1.0  0.5951956706015055  0.5948666934884415  0.6365999053142133  1.0000
  H   H16       1.0  0.4048055799484587  0.9051342595091116  0.1365988576440529  1.0000
  H   H17       1.0  0.08050116273806651  0.2810238559640085  0.2544606856092457  1.0000
  H   H18       1.0  0.9195013618497966  0.2189766368890389  0.7544617796019395  1.0000
  H   H19       1.0  0.9194971634633261  0.7189765825035156  0.7455398957592864  1.0000
  H   H20       1.0  0.08050276651103873  0.78102387038571  0.2455407855127731  1.0000
  H   H21       1.0  0.09077039202776403  0.4627934576061677  0.2997031677386488  1.0000
  H   H22       1.0  0.9092319525253173  0.03720435786863161  0.7997025071042858  1.0000
  H   H23       1.0  0.9092335023249518  0.5372045728383698  0.7002974136332227  1.0000
  H   H24       1.0  0.09076904074866124  0.9627936381686272  0.2002987355148065  1.0000
  H   H25       1.0  0.7346083514059174  0.499550948348933  0.4622546698624745  1.0000
  H   H26       1.0  0.265391402991348  0.00044735059189799975  0.9622536454539274  1.0000
  H   H27       1.0  0.2653915423389038  0.5004507457373393  0.537746572753868  1.0000
  H   H28       1.0  0.7346134738862633  0.9995457433892633  0.0377456134252085  1.0000
  H   H29       1.0  0.7458309996089626  0.6350993884241236  0.3822091775911218  1.0000
  H   H30       1.0  0.2541687423971553  0.8648967433995554  0.8822083347215894  1.0000
  H   H31       1.0  0.25416901113972296  0.36490354407798264  0.6177927262725831  1.0000
  H   H32       1.0  0.745838801552253  0.13509390815428196  0.1177902629118535  1.0000
  C   C1        1.0  0.7276727321503175  0.9695105157920242  0.3584436973954511  1.0000
  C   C2        1.0  0.2723339536985421  0.5304981743567938  0.8584452834572716  1.0000
  C   C3        1.0  0.2723271615945038  0.030491178294241212  0.6415575452208915  1.0000
  C   C4        1.0  0.7276689581265146  0.4695047925613809  0.14155199167046825  1.0000
  C   C5        1.0  0.7390959505348105  0.009279023422223502  0.45321771101424707  1.0000
  C   C6        1.0  0.2609065771580461  0.49071811156249384  0.9532180318095271  1.0000
  C   C7        1.0  0.26089802404867873  0.9907213634336501  0.5467841928491809  1.0000
  C   C8        1.0  0.739095749649664  0.5092786632691643  0.0467792433220353  1.0000
  C   C9        1.0  0.7599560787542429  0.9114940776883034  0.5263511753686246  1.0000
  C   C10       1.0  0.24002728278780694  0.5885034423198123  0.0263524166837215  1.0000
  C   C11       1.0  0.24003087713678886  0.08850869999351121  0.47364808349851023  1.0000
  C   C12       1.0  0.7599611236427888  0.4114993525649101  0.973646842183868  1.0000
  C   C13       1.0  0.7690590021280881  0.018428091495110308  0.6005345393506047  1.0000
  C   C14       1.0  0.23093561811843702  0.48156804398450975  0.10053658770974752  1.0000
  C   C15       1.0  0.2309419911447108  0.9815699045465466  0.3994647195241114  1.0000
  C   C16       1.0  0.7690573739381817  0.5184372793420735  0.8994633324057872  1.0000
  C   C17       1.0  0.7514979601217037  0.17572717207023913  0.5689816550015437  1.0000
  C   C18       1.0  0.2485096773376014  0.32426925810621315  0.0689812735442956  1.0000
  C   C19       1.0  0.24850605123447883  0.8242720967916101  0.4310189263695676  1.0000
  C   C20       1.0  0.751491666945597  0.6757324531873579  0.9310179853281257  1.0000
  C   C21       1.0  0.7349913114246434  0.3338339964824116  0.6143345723527531  1.0000
  C   C22       1.0  0.2650109289922895  0.16616587909532402  0.1143350676853245  1.0000
  C   C23       1.0  0.2650142674749674  0.6661665279981791  0.38566667026616847  1.0000
  C   C24       1.0  0.7349862976803437  0.8338382574197356  0.8856661749285878  1.0000
  O   O1        1.0  0.7080913399881368  0.8175232454533516  0.3365399455419862  1.0000
  O   O2        1.0  0.291903995918716  0.6824730371943561  0.836542008306502  1.0000
  O   O3        1.0  0.29190722022019605  0.18247966984878164  0.6634606358250181  1.0000
  O   O4        1.0  0.708101348970409  0.31752501046481296  0.16345328308082685  1.0000
  O   O5        1.0  0.7392968512058359  0.08373114151195442  0.2998279353414972  1.0000
  O   O6        1.0  0.2607040429563838  0.41626665620741937  0.7998270300439715  1.0000
  O   O7        1.0  0.26069869092030024  0.9162705009655953  0.7001733072734881  1.0000
  O   O8        1.0  0.7392923646896036  0.5837288113953037  0.2001702450865466  1.0000
  O   O9        1.0  0.7334174321067407  0.17130085807311707  0.4785857272164408  1.0000
  O   O10       1.0  0.2665866933915311  0.32869742008626457  0.9785842779693752  1.0000
  O   O11       1.0  0.2665795605593503  0.8287008016058695  0.5214161766471221  1.0000
  O   O12       1.0  0.7334203360460663  0.6713031216030886  0.0214143196574952  1.0000
  O   O13       1.0  0.6775941394409344  0.45506636607456147  0.5719564056087165  1.0000
  O   O14       1.0  0.3224065998804094  0.044933680150641905  0.07195709480612322  1.0000
  O   O15       1.0  0.32240987191643455  0.5449329027828897  0.4280461595067635  1.0000
  O   O16       1.0  0.677593293863623  0.9550680139385508  0.9280428253139732  1.0000
  O   O17       1.0  0.7784981229933552  0.3404458700901716  0.6973893301654073  1.0000
  O   O18       1.0  0.2215027659663491  0.15955362012571334  0.19738980626842562  1.0000
  O   O19       1.0  0.22150722189971367  0.6595521775543394  0.30261257370316497  1.0000
  O   O20       1.0  0.7784968937703526  0.8404455971303408  0.8026094526050757  1.0000
  O   O21       1.0  0.4675388144511886  0.3119180140575325  0.3336558321398186  1.0000
  O   O22       1.0  0.5324642726283457  0.18808708141480682  0.8336567188575685  1.0000
  O   O23       1.0  0.5324631148493566  0.6880898893225622  0.6663434267287798  1.0000
  O   O24       1.0  0.4675381711844084  0.811910931828294  0.16634320126572533  1.0000
  O   O25       1.0  0.0290397264028925  0.34688769530141883  0.30374344919653856  1.0000
  O   O26       1.0  0.9709611724316999  0.15311008505685925  0.803744661473317  1.0000
  O   O27       1.0  0.9709599333345978  0.6531115219517079  0.6962571321732085  1.0000
  O   O28       1.0  0.029044055457895  0.8468867241703465  0.19625724239602255  1.0000
  O   O29       1.0  0.7899194955715602  0.527435312643654  0.4026272810676944  1.0000
  O   O30       1.0  0.2100791712644039  0.972564426718606  0.902627592923267  1.0000
  O   O31       1.0  0.2100790646371706  0.47256760265700865  0.5973739615474329  1.0000
  O   O32       1.0  0.7899287236958089  0.02742994008566771  0.097371665956004  1.0000
