data_image0
_chemical_formula_structural       Hf6H32C90Br40O32
_chemical_formula_sum              "Hf6 H32 C90 Br40 O32"
_cell_length_a       11.594552940023837
_cell_length_b       20.490272430699644
_cell_length_c       34.67161882563021
_cell_angle_alpha    91.06141673680139
_cell_angle_beta     99.47935031251204
_cell_angle_gamma    90.19627102077516

_space_group_name_H-M_alt    "P 1"
_space_group_IT_number       1

loop_
  _space_group_symop_operation_xyz
  'x, y, z'

loop_
  _atom_site_type_symbol
  _atom_site_label
  _atom_site_symmetry_multiplicity
  _atom_site_fract_x
  _atom_site_fract_y
  _atom_site_fract_z
  _atom_site_occupancy
  Hf  Hf1       1.0  0.0564171237682416  0.8993124219170813  0.042405763231748515  1.0000
  Hf  Hf2       1.0  0.014574400997076983  0.08957341013248771  0.9627289903433933  1.0000
  Hf  Hf3       1.0  0.915222172573273  0.0484216843773027  0.04873626849458652  1.0000
  Hf  Hf4       1.0  0.16346061164344405  0.9425668832705015  0.9574567591187132  1.0000
  Hf  Hf5       1.0  0.8550214569289593  0.9426775038558405  0.9607147263630935  1.0000
  Hf  Hf6       1.0  0.2243777769345172  0.04439101030077101  0.041733177222468505  1.0000
  H   H1        1.0  0.007748870463245982  0.8376478286479243  0.9692242491453912  1.0000
  H   H2        1.0  0.7791850867566624  0.0694037535298335  0.9658102099810366  1.0000
  H   H3        1.0  0.25497727809192117  0.06915789930417299  0.9628293510360278  1.0000
  H   H4        1.0  0.11133628634721758  0.9958776159333028  0.1030275000603709  1.0000
  H   H5        1.0  0.6598509428502765  0.9169611857562573  0.9944474151455439  1.0000
  H   H6        1.0  0.9682030981190834  0.0894429347577343  0.1233275862537511  1.0000
  H   H7        1.0  0.2557539820842507  0.1031643300005953  0.1136355403803364  1.0000
  H   H8        1.0  0.8221946805672002  0.8760387459980594  0.8928969769033017  1.0000
  H   H9        1.0  0.12494888597432666  0.8305235294121049  0.9135533541355088  1.0000
  H   H10       1.0  0.3827711278633075  0.9589976617642721  0.9379693474856126  1.0000
  H   H11       1.0  0.387583736333454  0.9954309638700496  0.9959563006557134  1.0000
  H   H12       1.0  0.7700794773223549  0.9893844894231952  0.89092123930012  1.0000
  H   H13       1.0  0.8690909660769672  0.1789829954626541  0.9209295064868995  1.0000
  H   H14       1.0  0.23468068891956048  0.8327171107158262  0.0913597026891608  1.0000
  H   H15       1.0  0.3313345268011432  0.9810069564872704  0.1059756574522908  1.0000
  H   H16       1.0  0.9976184531060567  0.8718383843657876  0.9084878321248553  1.0000
  H   H17       1.0  0.9350098909576587  0.1384657105502853  0.8910942629207312  1.0000
  H   H18       1.0  0.6893637913375699  0.08040154347626331  0.03734434073164291  1.0000
  H   H19       1.0  0.6976037028752557  0.9910357515727598  0.008982191864355105  1.0000
  H   H20       1.0  0.438036283950602  0.005635594860649501  0.0428702662467231  1.0000
  H   H21       1.0  0.11317866486439239  0.11306555876208084  0.0977711755626061  1.0000
  H   H22       1.0  0.1415202610739428  0.8545120185236216  0.1181940431959347  1.0000
  H   H23       1.0  0.31883396166264777  0.4923081970755448  0.9993060069906504  1.0000
  H   H24       1.0  0.7492503862651817  0.496238593708796  0.021012075211743298  1.0000
  H   H25       1.0  0.6539784030737507  0.9405424193771524  0.2750185476328042  1.0000
  H   H26       1.0  0.8758962639152017  0.9816786457522612  0.3847877994601632  1.0000
  H   H27       1.0  0.029374591504556173  0.9455688801860375  0.2821346365019863  1.0000
  H   H28       1.0  0.24872401952238476  0.06493421215463968  0.7109790878543762  1.0000
  H   H29       1.0  0.019661432756151728  0.0555543055233088  0.6001490148742475  1.0000
  H   H30       1.0  0.8745041901458989  0.05917558021869951  0.7063247423915087  1.0000
  H   H31       1.0  0.24068617255453256  0.021462804439117602  0.49610186521580607  1.0000
  H   H32       1.0  0.6600060838698383  0.0194519229836061  0.4879374068272355  1.0000
  C   C1        1.0  0.8411841468011545  0.8043923865808652  0.009470585487171904  1.0000
  C   C2        1.0  0.2280676955835617  0.8038186440485052  0.0023381678123613058  1.0000
  C   C3        1.0  0.9067787001028832  0.9320405446962425  0.11237663770985762  1.0000
  C   C4        1.0  0.8609712120555243  0.19026819427455174  0.009085723295775908  1.0000
  C   C5        1.0  0.22641846698207502  0.18366215265649538  5.49267714049954e-05  1.0000
  C   C6        1.0  0.12077890936008359  0.04535587749157341  0.884104955704224  1.0000
  C   C7        1.0  0.47113762984213997  0.5534960021467797  0.007231778449593699  1.0000
  C   C8        1.0  0.5949298688349032  0.5543247884219369  0.012986818372631612  1.0000
  C   C9        1.0  0.654190856618115  0.49517297452617043  0.016115989884880808  1.0000
  C   C10       1.0  0.5970511045337972  0.43463930281438234  0.012224654331561202  1.0000
  C   C11       1.0  0.4729929730663756  0.4335221330269122  0.005923932001195502  1.0000
  C   C12       1.0  0.4138738951912515  0.4931272381494339  0.0038331195183972004  1.0000
  C   C13       1.0  0.8403916989625628  0.9411941686027988  0.2739329811451441  1.0000
  C   C14       1.0  0.740966149575044  0.9476263575589031  0.2919340440717519  1.0000
  C   C15       1.0  0.7541435184296503  0.9641945909776982  0.3316661530788352  1.0000
  C   C16       1.0  0.8661089378025792  0.9700916852123455  0.3535897135104662  1.0000
  C   C17       1.0  0.9655684549208985  0.9620612235028432  0.336331051275863  1.0000
  C   C18       1.0  0.9524023405159666  0.9494469153462078  0.2962666195205088  1.0000
  C   C19       1.0  0.06336175022784107  0.06232286868760889  0.7132218107681183  1.0000
  C   C20       1.0  0.16086544377892398  0.06387336521046193  0.6940409361383502  1.0000
  C   C21       1.0  0.14494083812301267  0.0631174579677136  0.6532530581860456  1.0000
  C   C22       1.0  0.03187368493097147  0.058475271122077295  0.6319968642516045  1.0000
  C   C23       1.0  0.9343956667995952  0.05620222939586481  0.6506675547980407  1.0000
  C   C24       1.0  0.9500675147374693  0.0598981754740961  0.6913838656163236  1.0000
  C   C25       1.0  0.3666541417577206  0.0085694040590454  0.4578969253615526  1.0000
  C   C26       1.0  0.4867967282232185  0.009579840013458402  0.45544815533876454  1.0000
  C   C27       1.0  0.5671517922344336  0.019881684367227603  0.4897870249431264  1.0000
  C   C28       1.0  0.5341794391614059  0.029879714951697195  0.5264308009671907  1.0000
  C   C29       1.0  0.4138668514859418  0.03208320704933949  0.528518404392571  1.0000
  C   C30       1.0  0.3335659565138016  0.0209734880151728  0.4942646441566794  1.0000
  C   C31       1.0  0.7481036119160648  0.10094610179295674  0.6129518044128943  1.0000
  C   C32       1.0  0.8208088512095983  0.04767203914718011  0.6240280716985183  1.0000
  C   C33       1.0  0.7955999380850685  0.9878393814207344  0.6036702549450084  1.0000
  C   C34       1.0  0.704096632235043  0.9823514205873498  0.5718242478562489  1.0000
  C   C35       1.0  0.6297466118820623  0.0357405250885563  0.5608431518856776  1.0000
  C   C36       1.0  0.6548746624202195  0.0952516252736899  0.5816342346085648  1.0000
  C   C37       1.0  0.2401770647480958  0.1113059843017865  0.6007305823413702  1.0000
  C   C38       1.0  0.237853590271051  0.0619819083920419  0.6284183290138046  1.0000
  C   C39       1.0  0.3050933520052582  0.005887612807796899  0.6252105142059535  1.0000
  C   C40       1.0  0.36643269792144667  0.9974797657079575  0.5938079890036435  1.0000
  C   C41       1.0  0.36296508966736235  0.044828123330894705  0.5646788856370293  1.0000
  C   C42       1.0  0.29695294419506285  0.10172966033167088  0.5684068489549291  1.0000
  C   C43       1.0  0.14614429098476484  0.026727705683214302  0.3638919026714689  1.0000
  C   C44       1.0  0.07884179522656604  0.9695557783413237  0.3631246375086761  1.0000
  C   C45       1.0  0.10989847002204552  0.9241904691924393  0.3930291818620404  1.0000
  C   C46       1.0  0.20147229211934103  0.9372255783626786  0.4240431523069006  1.0000
  C   C47       1.0  0.27101866680099806  0.9940999237218623  0.4244810046357941  1.0000
  C   C48       1.0  0.24029881232011963  0.038897399617184206  0.3941797754938463  1.0000
  C   C49       1.0  0.652705853849298  0.0404780050355029  0.3713765112279361  1.0000
  C   C50       1.0  0.6599696275202902  0.9773575022525238  0.3551097944372543  1.0000
  C   C51       1.0  0.598665933745586  0.9265268515724118  0.369378120716405  1.0000
  C   C52       1.0  0.5381564758769315  0.9375039058255084  0.4007687314244777  1.0000
  C   C53       1.0  0.5369092857325057  0.999683956575403  0.4188435242020887  1.0000
  C   C54       1.0  0.5970792827854723  0.0510144169733664  0.4038790777138317  1.0000
  C   C55       1.0  0.3168686678225042  0.6318232416242325  0.973497146447187  1.0000
  C   C56       1.0  0.4016691425343382  0.6147448618132999  0.005814583163477504  1.0000
  C   C57       1.0  0.41726213891697467  0.6580345734942554  0.0384894324683813  1.0000
  C   C58       1.0  0.3694646938394683  0.7207595324879535  0.03595601659261401  1.0000
  C   C59       1.0  0.2877009445093747  0.7380934847464857  0.003499580583628903  1.0000
  C   C60       1.0  0.2570986703479363  0.6914016625993044  0.9734147900572624  1.0000
  C   C61       1.0  0.714843030306767  0.2641381232592934  0.036460163955055705  1.0000
  C   C62       1.0  0.7980990154150972  0.2550551963510586  0.011172447145845896  1.0000
  C   C63       1.0  0.8201497792714533  0.3090230147385995  0.9882853156176523  1.0000
  C   C64       1.0  0.7524872723522762  0.3659976138803245  0.9875647170453519  1.0000
  C   C65       1.0  0.6711318244135994  0.37519447876431405  0.013366803950219691  1.0000
  C   C66       1.0  0.6631594184195251  0.3254138421769781  0.040180805587851906  1.0000
  C   C67       1.0  0.32190090976924074  0.35930021713800636  0.028245867294245407  1.0000
  C   C68       1.0  0.40235951565348677  0.37215701738662693  0.002601566727783198  1.0000
  C   C69       1.0  0.41535905954064817  0.3235607619274888  0.9742774602606943  1.0000
  C   C70       1.0  0.3654479635563417  0.26147564070038953  0.9756819975224075  1.0000
  C   C71       1.0  0.2852613882463757  0.24974102046628138  0.0006925874161111981  1.0000
  C   C72       1.0  0.260800627139183  0.29968453012762813  0.026200607620381802  1.0000
  C   C73       1.0  0.7375791625741855  0.6410443434537074  0.04610840294464679  1.0000
  C   C74       1.0  0.664803437598998  0.6154806446095903  0.012748820428072306  1.0000
  C   C75       1.0  0.665326179487046  0.648059910404875  0.9772905100450302  1.0000
  C   C76       1.0  0.7282534955013275  0.7063132675265678  0.9758932821468635  1.0000
  C   C77       1.0  0.7833004054331595  0.7378357674368914  0.010736291269140006  1.0000
  C   C78       1.0  0.787251333350298  0.7037750520944783  0.04597420238415851  1.0000
  C   C79       1.0  0.0338809005158678  0.007457751897796102  0.8154723641553829  1.0000
  C   C80       1.0  0.1058640529917553  0.051805370926445  0.8397971382774259  1.0000
  C   C81       1.0  0.16103012314010098  0.1014565031980439  0.8221102964843112  1.0000
  C   C82       1.0  0.1434058464152982  0.10692922928632238  0.7812294766548291  1.0000
  C   C83       1.0  0.07866626340010906  0.05947642848113329  0.7565765165360716  1.0000
  C   C84       1.0  0.02684829759522249  0.008461270423382  0.7747184919576924  1.0000
  C   C85       1.0  0.9048559684911126  0.8784615809910009  0.21845506082279087  1.0000
  C   C86       1.0  0.8344474341825715  0.9277326572845296  0.23140372160601427  1.0000
  C   C87       1.0  0.7669439925846361  0.964874961099845  0.2022114640613495  1.0000
  C   C88       1.0  0.7743295179938274  0.9552731809692429  0.16246113213351518  1.0000
  C   C89       1.0  0.8667401373819104  0.9179212931111989  0.1511978201671482  1.0000
  C   C90       1.0  0.9274934669531306  0.8770563168630193  0.1798436555752119  1.0000
  Br  Br1       1.0  0.5704452059957247  0.17052440805241526  0.5637636442431742  1.0000
  Br  Br2       1.0  0.7842580641051311  0.1820737725686641  0.6394052453263797  1.0000
  Br  Br3       1.0  0.6859759808321613  0.9031675028407162  0.5419583695971752  1.0000
  Br  Br4       1.0  0.8905505392374167  0.9148470975070354  0.6198999910122893  1.0000
  Br  Br5       1.0  0.2744057469454758  0.16339969065483467  0.5276095490121193  1.0000
  Br  Br6       1.0  0.16063716948035986  0.19050188891885264  0.6074358184771143  1.0000
  Br  Br7       1.0  0.44087103085767876  0.9170939500054163  0.5871514212683523  1.0000
  Br  Br8       1.0  0.3022638357864053  0.9384642392598511  0.6617776270256996  1.0000
  Br  Br9       1.0  0.31836452075121713  0.12033380948109604  0.3972940018844255  1.0000
  Br  Br10      1.0  0.10152499223215015  0.0897580620839378  0.3249187088833025  1.0000
  Br  Br11      1.0  0.22530311286332946  0.8797076802566082  0.4669597523308581  1.0000
  Br  Br12      1.0  0.023499925250021637  0.8449112486706127  0.3906790750903255  1.0000
  Br  Br13      1.0  0.6148667156046981  0.13348994069117737  0.43020174705128505  1.0000
  Br  Br14      1.0  0.7250019205798282  0.11060649681315482  0.34919938341608514  1.0000
  Br  Br15      1.0  0.4715237764986284  0.8658756975875408  0.4229136360266637  1.0000
  Br  Br16      1.0  0.6094078467795966  0.8413448326393932  0.3479663401528441  1.0000
  Br  Br17      1.0  0.12666063106637174  0.7079398256025728  0.933753002104055  1.0000
  Br  Br18      1.0  0.2791581060699001  0.5733117258046079  0.9301608861134342  1.0000
  Br  Br19      1.0  0.42004911836919934  0.78343584947568  0.0765579161355063  1.0000
  Br  Br20      1.0  0.4904065959041688  0.6279856050056056  0.08762826383061652  1.0000
  Br  Br21      1.0  0.5872503326651213  0.34426290286148037  0.0834940898161918  1.0000
  Br  Br22      1.0  0.6577013202584823  0.19586397574079237  0.06473236947807952  1.0000
  Br  Br23      1.0  0.7673194142774094  0.43065083728973275  0.949904549417795  1.0000
  Br  Br24      1.0  0.9433025729651161  0.30890126084401714  0.95815857137692  1.0000
  Br  Br25      1.0  0.1485380229056616  0.28211905807305737  0.0586219890966291  1.0000
  Br  Br26      1.0  0.2984414032745448  0.4210941101381637  0.06771371941809429  1.0000
  Br  Br27      1.0  0.409790222325384  0.1908038088630732  0.945331469016871  1.0000
  Br  Br28      1.0  0.4914178509480747  0.34377482689156846  0.9316212866801123  1.0000
  Br  Br29      1.0  0.8543855360414766  0.741836372125704  0.0946708668584577  1.0000
  Br  Br30      1.0  0.7770754488125959  0.5880574642339482  0.09075324554284948  1.0000
  Br  Br31      1.0  0.7479161922654924  0.7383411203627831  0.9265700500133819  1.0000
  Br  Br32      1.0  0.5878271775960683  0.607740504127378  0.9304464456354039  1.0000
  Br  Br33      1.0  0.9519693917084169  0.9374393599682803  0.7442842238177363  1.0000
  Br  Br34      1.0  0.9406224507924675  0.9487793899759756  0.8385651581042524  1.0000
  Br  Br35      1.0  0.20334712711785125  0.18122239011124464  0.7589282886345501  1.0000
  Br  Br36      1.0  0.25931310371976213  0.1609388071724922  0.8548316991999627  1.0000
  Br  Br37      1.0  0.04577550707796968  0.8176952907083503  0.1691977053506406  1.0000
  Br  Br38      1.0  0.965673915471733  0.8125264239488886  0.2540046606875208  1.0000
  Br  Br39      1.0  0.6556684591407419  0.9897021805396379  0.1244606731192093  1.0000
  Br  Br40      1.0  0.6699888953147023  0.032870226155459606  0.21648923979547163  1.0000
  O   O1        1.0  0.1863231559980036  0.869165810832456  0.0981243025939094  1.0000
  O   O2        1.0  0.9389664380637511  0.813008751750097  0.0318388249332173  1.0000
  O   O3        1.0  0.9635157976684499  0.8895789305948302  0.09616409534589819  1.0000
  O   O4        1.0  0.23897907606625052  0.84042044732405  0.9743737139205279  1.0000
  O   O5        1.0  0.886181774930769  0.989494903354924  0.1005244192619443  1.0000
  O   O6        1.0  0.17089575011418393  0.8150378440515954  0.030087070865271008  1.0000
  O   O7        1.0  0.7901679364106471  0.84592650252462  0.9859950395408745  1.0000
  O   O8        1.0  0.9212855154603687  0.9566153650847156  0.022845447616837995  1.0000
  O   O9        1.0  0.019301463723380062  0.8822829852687164  0.9790764832069386  1.0000
  O   O10       1.0  0.0986688216577392  0.992040313432426  0.0747573347413422  1.0000
  O   O11       1.0  0.17904437271565848  0.9515526532855744  0.0176042730646415  1.0000
  O   O12       1.0  0.3416029538873174  0.9523200219885908  0.9597514865435102  1.0000
  O   O13       1.0  0.6849536358391929  0.9584204756375242  0.9852446124140783  1.0000
  O   O14       1.0  0.003389694652170935  0.9921863936621379  0.9478745934230092  1.0000
  O   O15       1.0  0.8531271530501382  0.051343728054575904  0.9783202755433748  1.0000
  O   O16       1.0  0.0531586946630327  0.07754077157028409  0.021080935753324998  1.0000
  O   O17       1.0  0.1938081555274777  0.04819016169174971  0.9743562021836567  1.0000
  O   O18       1.0  0.7349253887971655  0.04062541098079461  0.04149302887503842  1.0000
  O   O19       1.0  0.8613151680930713  0.15191132675315092  0.037087220250526805  1.0000
  O   O20       1.0  0.9079713138505736  0.1780379378304175  0.9791262931877894  1.0000
  O   O21       1.0  0.34702484543939965  0.012688788702270404  0.0870748397888548  1.0000
  O   O22       1.0  0.13712434973765406  0.17427508446816384  0.9737330121951189  1.0000
  O   O23       1.0  0.9895161260397247  0.1029535794519774  0.09877538531092259  1.0000
  O   O24       1.0  0.1988202365744698  0.11447616553697061  0.09094474298946409  1.0000
  O   O25       1.0  0.39677356113949  0.0274491614230641  0.019752766916752804  1.0000
  O   O26       1.0  0.273444046820714  0.14405220736765048  0.0253214228883323  1.0000
  O   O27       1.0  0.8851878668022126  0.1352050512448741  0.9113139733559238  1.0000
  O   O28       1.0  0.09348238552502865  0.8744600405576078  0.9094493061527729  1.0000
  O   O29       1.0  0.07580923056225  0.09074649717028652  0.9025618148222635  1.0000
  O   O30       1.0  0.17374154387434249  0.9959494810765791  0.8988200718920325  1.0000
  O   O31       1.0  0.8844049099162561  0.8736688855097652  0.9152671959916745  1.0000
  O   O32       1.0  0.7442715693195439  0.9788438079689854  0.9153267964620966  1.0000
