data_image0
_chemical_formula_structural       Cs4H32C24N4O8
_chemical_formula_sum              "Cs4 H32 C24 N4 O8"
_cell_length_a       7.502464654991119
_cell_length_b       7.917862751279268
_cell_length_c       13.779516628772878
_cell_angle_alpha    89.99994089807436
_cell_angle_beta     100.10477021870817
_cell_angle_gamma    90.00094537542871

_space_group_name_H-M_alt    "P 1"
_space_group_IT_number       1

loop_
  _space_group_symop_operation_xyz
  'x, y, z'

loop_
  _atom_site_type_symbol
  _atom_site_label
  _atom_site_symmetry_multiplicity
  _atom_site_fract_x
  _atom_site_fract_y
  _atom_site_fract_z
  _atom_site_occupancy
  Cs  Cs1       1.0  0.7800891041283933  0.5872991057440586  0.5784649408589502  1.0000
  Cs  Cs2       1.0  0.7199096183427188  0.0873002149817736  0.4215346066962411  1.0000
  Cs  Cs3       1.0  0.2199008455632523  0.41270108248956205  0.4215317628187449  1.0000
  Cs  Cs4       1.0  0.2800898275692348  0.9126987103548244  0.5784658891177514  1.0000
  H   H1        1.0  0.5703957940734199  0.7122691601767456  0.7846817970967592  1.0000
  H   H2        1.0  0.9296213353677205  0.21226881993737115  0.2153063396274462  1.0000
  H   H3        1.0  0.42960360903921924  0.2877285021981635  0.21531216323569422  1.0000
  H   H4        1.0  0.0703808420909837  0.7877301054169266  0.7846980405746109  1.0000
  H   H5        1.0  0.49150691163477944  0.7065395848199926  0.9524728612175225  1.0000
  H   H6        1.0  0.008521960348829802  0.20652924191794847  0.0475183257982437  1.0000
  H   H7        1.0  0.508495204041779  0.2934618664762638  0.0475220788469599  1.0000
  H   H8        1.0  0.9914842835729658  0.793474735335124  0.9524871609192331  1.0000
  H   H9        1.0  0.22781120769543864  0.5304761200513254  0.9835648625768485  1.0000
  H   H10       1.0  0.272214561918048  0.0304610661246656  0.016435569113248505  1.0000
  H   H11       1.0  0.7721909270433898  0.46953038311085044  0.016432982148579422  1.0000
  H   H12       1.0  0.7277930311827492  0.9695479630076776  0.983569318225186  1.0000
  H   H13       1.0  0.8955164676612811  0.3480673315431133  0.7824692187345335  1.0000
  H   H14       1.0  0.6045004705832043  0.8480679302537126  0.21753043381772844  1.0000
  H   H15       1.0  0.10448296870819722  0.6519278048934396  0.21752982474828295  1.0000
  H   H16       1.0  0.39550574000231364  0.15192973216815633  0.7824699697444828  1.0000
  H   H17       1.0  0.9542783218547939  0.3758188473512263  0.9124109665208023  1.0000
  H   H18       1.0  0.5457310013253932  0.8758212916264511  0.0875894084745639  1.0000
  H   H19       1.0  0.04571705760541531  0.624176289053672  0.0875884227784667  1.0000
  H   H20       1.0  0.4542684493634823  0.1241801596437071  0.912411813505365  1.0000
  H   H21       1.0  0.04664126208065511  0.20643537112433555  0.8526347939747865  1.0000
  H   H22       1.0  0.45337414528773934  0.7064326437347431  0.14736674373517636  1.0000
  H   H23       1.0  0.9533608820985153  0.7935635542341615  0.14736450307550802  1.0000
  H   H24       1.0  0.5466253054124833  0.2935700705024971  0.8526344782454486  1.0000
  H   H25       1.0  0.0255319916774823  0.8380542929167235  0.3879733291038647  1.0000
  H   H26       1.0  0.4744640855776865  0.33804889845541203  0.6120212430503997  1.0000
  H   H27       1.0  0.9744606705326861  0.1619446323699165  0.6120243543030526  1.0000
  H   H28       1.0  0.5255326334849997  0.6619437120274795  0.38797609453655457  1.0000
  H   H29       1.0  0.9021791295636703  0.6737351863821742  0.3546653558396429  1.0000
  H   H30       1.0  0.5978116785592533  0.173732753383355  0.6453348525233694  1.0000
  H   H31       1.0  0.09781489126584124  0.32626121298005734  0.6453331805131058  1.0000
  H   H32       1.0  0.40218777208422557  0.8262636460184822  0.35466636945376  1.0000
  C   C1        1.0  0.35152167055760936  0.5425449559441375  0.7217601709311978  1.0000
  C   C2        1.0  0.14848668701068857  0.04254394957709451  0.2782342690030504  1.0000
  C   C3        1.0  0.648470986875644  0.45745144340894234  0.2782367863097832  1.0000
  C   C4        1.0  0.8515168348387476  0.9574562387558315  0.7217687856533247  1.0000
  C   C5        1.0  0.4550951768008246  0.63888355405161  0.7994866002179111  1.0000
  C   C6        1.0  0.04491893571488959  0.1388785574046949  0.2005025176990287  1.0000
  C   C7        1.0  0.5448988060289892  0.36111663421666407  0.2005061268206418  1.0000
  C   C8        1.0  0.9550805482648599  0.8611241568283389  0.799503787433359  1.0000
  C   C9        1.0  0.4106937682448263  0.6352154727678682  0.8927804708851639  1.0000
  C   C10       1.0  0.08932844439291192  0.13520248517330913  0.1072159391320966  1.0000
  C   C11       1.0  0.5893042905451723  0.3647885044308977  0.10721481499717811  1.0000
  C   C12       1.0  0.9106804882990077  0.8648027550699382  0.8927868964933197  1.0000
  C   C13       1.0  0.2636158894359539  0.5380214261930546  0.9104044181364871  1.0000
  C   C14       1.0  0.2364059019031401  0.038015794370316804  0.08958765377749961  1.0000
  C   C15       1.0  0.736382145548909  0.4619787621074636  0.08958723692106932  1.0000
  C   C16       1.0  0.7636030593594898  0.9619944977376563  0.9104195388379354  1.0000
  C   C17       1.0  0.16397704936161261  0.44895502367422313  0.8318373939672838  1.0000
  C   C18       1.0  0.3360400229302202  0.9489504464756279  0.1681663379102005  1.0000
  C   C19       1.0  0.8360223965730429  0.5510464275965319  0.16816310184810856  1.0000
  C   C20       1.0  0.663967555885222  0.0510560567243559  0.8318363709332175  1.0000
  C   C21       1.0  0.006480810605246703  0.34027421422266724  0.8457853319594336  1.0000
  C   C22       1.0  0.4935356481830482  0.8402733584560381  0.15421622755400222  1.0000
  C   C23       1.0  0.9935186210213588  0.6597221851815646  0.15421298535954261  1.0000
  C   C24       1.0  0.5064665198012648  0.1597293558006996  0.845786700321085  1.0000
  N   N1        1.0  0.2053971947231119  0.4522517680324114  0.7403311963803249  1.0000
  N   N2        1.0  0.2946117850135935  0.9522527050533968  0.2596674214768271  1.0000
  N   N3        1.0  0.7945981704857914  0.5477446313413666  0.2596660144260383  1.0000
  N   N4        1.0  0.7053917558867654  0.0477512721783739  0.7403385378398042  1.0000
  O   O1        1.0  0.391639067118021  0.5384533296948888  0.6338150072300268  1.0000
  O   O2        1.0  0.10836515534913362  0.03846291581879768  0.36617904781958543  1.0000
  O   O3        1.0  0.6083522268508758  0.46153549184656123  0.3661803708949734  1.0000
  O   O4        1.0  0.8916356634675183  0.9615360095257444  0.6338244794352406  1.0000
  O   O5        1.0  0.9697261632549827  0.7373020525686373  0.4138433609485475  1.0000
  O   O6        1.0  0.5302698298895976  0.23729741649842137  0.5861543936737874  1.0000
  O   O7        1.0  0.030266503709398807  0.2626968727173988  0.5861550486229066  1.0000
  O   O8        1.0  0.4697309603676985  0.7626977199484841  0.4138447765917165  1.0000
