data_image0
_chemical_formula_structural       Cu2H52C36N16
_chemical_formula_sum              "Cu2 H52 C36 N16"
_cell_length_a       7.240779394
_cell_length_b       11.562708428212286
_cell_length_c       12.7549
_cell_angle_alpha    110.42700760419632
_cell_angle_beta     90.0
_cell_angle_gamma    90.0

_space_group_name_H-M_alt    "P 1"
_space_group_IT_number       1

loop_
  _space_group_symop_operation_xyz
  'x, y, z'

loop_
  _atom_site_type_symbol
  _atom_site_label
  _atom_site_symmetry_multiplicity
  _atom_site_fract_x
  _atom_site_fract_y
  _atom_site_fract_z
  _atom_site_occupancy
  Cu  Cu1       1.0  0.746907163679289  0.8287326631375082  0.4219137707909297  1.0000
  Cu  Cu2       1.0  0.24690297863257624  0.17126573824567973  0.5780876834509597  1.0000
  H   H1        1.0  0.8258655145543015  0.8434397162997203  0.23919818500456813  1.0000
  H   H2        1.0  0.3258613295075889  0.1565623766128823  0.7608060052315722  1.0000
  H   H3        1.0  0.4715403983760709  0.8942406982504565  0.5582230028162627  1.0000
  H   H4        1.0  0.9715418212891933  0.10575308872097372  0.44177463942661177  1.0000
  H   H5        1.0  0.674598649428205  0.941899265792472  0.6181864908837013  1.0000
  H   H6        1.0  0.17460136971547505  0.058092675414251  0.3818129194117219  1.0000
  H   H7        1.0  0.024890966868753094  0.8285111713730161  0.2979861947234781  1.0000
  H   H8        1.0  0.5248854844478927  0.1714890757748719  0.7020174115279545  1.0000
  H   H9        1.0  0.9757112619470617  0.5988112912428321  0.34063770882708155  1.0000
  H   H10       1.0  0.4757195065015124  0.4011871101403628  0.6593653134396504  1.0000
  H   H11       1.0  0.1680564941680629  0.6262615039220947  0.2664134160867775  1.0000
  H   H12       1.0  0.6680579170811852  0.3737368974611003  0.7335911742047896  1.0000
  H   H13       1.0  0.029883523337183193  0.49276841746331007  0.2042069419009138  1.0000
  H   H14       1.0  0.5298904705174863  0.5072309068022279  0.795795588345747  1.0000
  H   H15       1.0  0.7606142516320415  0.626005865510578  0.19826143995890533  1.0000
  H   H16       1.0  0.2606114476521242  0.3739971502843744  0.8017399062199146  1.0000
  H   H17       1.0  0.11433437686086728  0.8194032454406752  0.12932274420982273  1.0000
  H   H18       1.0  0.614331656573597  0.18059607882486972  0.8706813540616805  1.0000
  H   H19       1.0  0.20225723231031617  0.7915174322912507  0.9358704667457829  1.0000
  H   H20       1.0  0.7022669416242096  0.20849019791546652  0.06413547544447341  1.0000
  H   H21       1.0  0.21361512564264726  0.6744221194636212  0.7430180410736895  1.0000
  H   H22       1.0  0.7136055000213942  0.3255919709195538  0.2569907290754543  1.0000
  H   H23       1.0  0.0030480144193135  0.5961303180101397  0.6922563661176682  1.0000
  H   H24       1.0  0.5030342455976751  0.40387638931422043  0.30774144395605413  1.0000
  H   H25       1.0  0.1985283519604479  0.5115204639745414  0.7052233926404837  1.0000
  H   H26       1.0  0.6985132020720143  0.4884927035262835  0.294786653541145  1.0000
  H   H27       1.0  0.9271543344578246  0.4403726948082394  0.8198993192161408  1.0000
  H   H28       1.0  0.4271529115447023  0.5596321667514133  0.18010025891013015  1.0000
  H   H29       1.0  0.8284895414671709  0.47043097301438763  0.012957009540912213  1.0000
  H   H30       1.0  0.3284936428212362  0.5295665054864501  0.9870425846837917  1.0000
  H   H31       1.0  0.4855002215525275  0.6350648786782643  0.4597568695815469  1.0000
  H   H32       1.0  0.9854947391316671  0.3649233709990582  0.540240588732047  1.0000
  H   H33       1.0  0.3203094409866765  0.7062495631386412  0.5661112116344569  1.0000
  H   H34       1.0  0.8203039585658158  0.29373684077397405  0.4338840946695938  1.0000
  H   H35       1.0  0.4675864041384159  0.5891524045463115  0.5793829069929899  1.0000
  H   H36       1.0  0.9675795406507604  0.4108386137780613  0.4206154272976619  1.0000
  H   H37       1.0  0.7428040142276444  0.7231503076516647  0.5954563037179526  1.0000
  H   H38       1.0  0.2428012102477268  0.2768434793197656  0.40454369056217127  1.0000
  H   H39       1.0  0.4068153219031743  0.9677104394145035  0.74920140692808  1.0000
  H   H40       1.0  0.9068098394823136  0.0322879619686915  0.25079063916478356  1.0000
  H   H41       1.0  0.3751695573339831  0.038762904550644406  0.9553684815753057  1.0000
  H   H42       1.0  0.8751682181135081  0.9612438027737158  0.04462462442390353  1.0000
  H   H43       1.0  0.5630222629594428  0.8637735831623559  0.13284989805195832  1.0000
  H   H44       1.0  0.0630291264471055  0.13622758686789643  0.8671445920428056  1.0000
  H   H45       1.0  0.35956212146960087  0.944164941966747  0.1217304808919835  1.0000
  H   H46       1.0  0.8595676875831089  0.0558371509458553  0.8782627331702952  1.0000
  H   H47       1.0  0.5740970375985484  0.020534132333025902  0.14106864146844336  1.0000
  H   H48       1.0  0.07410666321979417  0.9794707292266269  0.8589293686329853  1.0000
  H   H49       1.0  0.6961046215793587  0.7283968938230458  0.9615950295873077  1.0000
  H   H50       1.0  0.1961114850670143  0.27160889061895693  0.03840484053131381  1.0000
  H   H51       1.0  0.7386580517053076  0.663018062239388  0.7576844370383071  1.0000
  H   H52       1.0  0.23866905839335564  0.3369794162614498  0.24231594119881805  1.0000
  C   C1        1.0  0.0262333637947023  0.5905007356626514  0.2571021561360567  1.0000
  C   C2        1.0  0.526237548841415  0.4094976657205365  0.7429008661306752  1.0000
  C   C3        1.0  0.9023420883964588  0.6620075060639011  0.20406205309792116  1.0000
  C   C4        1.0  0.40233928441654127  0.3379899724369366  0.7959398931640392  1.0000
  C   C5        1.0  0.9630606900934424  0.6476289990190197  0.08599722215354434  1.0000
  C   C6        1.0  0.46306064824711507  0.3523721710112255  0.9140043240529891  1.0000
  C   C7        1.0  0.0694372763816844  0.7363945922858761  0.06213325976105474  1.0000
  C   C8        1.0  0.5694428424951921  0.2636102692737765  0.9378663183652093  1.0000
  C   C9        1.0  0.12052569930843757  0.7204942522424744  0.9523467041816003  1.0000
  C   C10       1.0  0.62052712222156  0.2795078406701208  0.04765435000486919  1.0000
  C   C11       1.0  0.06958090732849337  0.6147642355803029  0.8631270129185608  1.0000
  C   C12       1.0  0.5695795681080256  0.3852378573322995  0.13687325725548763  1.0000
  C   C13       1.0  0.1242117665876208  0.5987116199488086  0.745119733147753  1.0000
  C   C14       1.0  0.6242021409663749  0.40129785602260176  0.254886793027211  1.0000
  C   C15       1.0  0.9655493724602735  0.5248210444322297  0.8876478013746265  1.0000
  C   C16       1.0  0.4655534738143388  0.4751819713627228  0.1123574648662853  1.0000
  C   C17       1.0  0.9118576386225994  0.5411200696517184  0.9967678610951579  1.0000
  C   C18       1.0  0.4118534535758869  0.4588811003785268  0.003234469123789619  1.0000
  C   C19       1.0  0.4607376938958296  0.6678668861170394  0.5503482483543749  1.0000
  C   C20       1.0  0.9607335925417642  0.3321222864426261  0.44964950195157627  1.0000
  C   C21       1.0  0.6042816334973152  0.7649494951405416  0.6120203302548006  1.0000
  C   C22       1.0  0.10428021058419287  0.2350442918308886  0.38797809600049504  1.0000
  C   C23       1.0  0.5774350760450773  0.8109071905077414  0.7381737573887361  1.0000
  C   C24       1.0  0.07743917739914247  0.1890921337578035  0.2618256368082541  1.0000
  C   C25       1.0  0.47386473379415145  0.9162431364055906  0.7957499006582507  1.0000
  C   C26       1.0  0.9738633945736835  0.08375711074230452  0.20424351343174146  1.0000
  C   C27       1.0  0.453859981250524  0.9554185693675947  0.9117417330217065  1.0000
  C   C28       1.0  0.9538558798964585  0.044589060839115305  0.08825793706920139  1.0000
  C   C29       1.0  0.5322009952676083  0.8891159325495438  0.9740231092380681  1.0000
  C   C30       1.0  0.0322023344880833  0.1108870832454087  0.025972748853817493  1.0000
  C   C31       1.0  0.506212080295839  0.931263969567489  0.09867013117062844  1.0000
  C   C32       1.0  0.0062189437835016  0.0687372004627562  0.901326710961392  1.0000
  C   C33       1.0  0.6333599948922879  0.78262546082928  0.9160095543926089  1.0000
  C   C34       1.0  0.1333710015803291  0.2173766320833153  0.08399071578143948  1.0000
  C   C35       1.0  0.6568312250944927  0.7451951983949954  0.8003385959048613  1.0000
  C   C36       1.0  0.1568298021813774  0.2548041258705496  0.19965295816793824  1.0000
  N   N1        1.0  0.892518560274759  0.7927485573488795  0.27931324250809547  1.0000
  N   N2        1.0  0.3925143752280461  0.20725076691666547  0.7206885037261512  1.0000
  N   N3        1.0  0.6051931375828373  0.8659072871602832  0.5654068493804942  1.0000
  N   N4        1.0  0.1051930957365101  0.13408557692879702  0.4345889328451874  1.0000
  N   N5        1.0  0.9780687429682542  0.8220980619086476  0.5113018309234221  1.0000
  N   N6        1.0  0.4780728443223197  0.1778975708274828  0.4886995313538307  1.0000
  N   N7        1.0  0.5215032518638836  0.7610281680266979  0.32411649000299997  1.0000
  N   N8        1.0  0.021499066817170797  0.23896838759178965  0.6758820282169324  1.0000
  N   N9        1.0  0.09812065267293238  0.8964971456012094  0.5424365987538309  1.0000
  N   N10       1.0  0.5981151702520718  0.103505870193743  0.457564747424989  1.0000
  N   N11       1.0  0.22230203579103858  0.9667737138271733  0.5749483592162008  1.0000
  N   N12       1.0  0.7222979344369733  0.0332256104383646  0.4250502509683755  1.0000
  N   N13       1.0  0.3962432555779073  0.8264614496691252  0.31983570007643886  1.0000
  N   N14       1.0  0.8962350110234567  0.1735341830670123  0.680161742138722  1.0000
  N   N15       1.0  0.2704170219054731  0.8878903447860225  0.3127967637103808  1.0000
  N   N16       1.0  0.7704101584178173  0.1121080565971653  0.6872031225066735  1.0000
