data_image0
_chemical_formula_structural       Cu8H72C128N8O32
_chemical_formula_sum              "Cu8 H72 C128 N8 O32"
_cell_length_a       18.008367769621685
_cell_length_b       20.63240093419749
_cell_length_c       20.632378289026345
_cell_angle_alpha    72.39230448684368
_cell_angle_beta     64.12726058147038
_cell_angle_gamma    64.12715550171107

_space_group_name_H-M_alt    "P 1"
_space_group_IT_number       1

loop_
  _space_group_symop_operation_xyz
  'x, y, z'

loop_
  _atom_site_type_symbol
  _atom_site_label
  _atom_site_symmetry_multiplicity
  _atom_site_fract_x
  _atom_site_fract_y
  _atom_site_fract_z
  _atom_site_occupancy
  Cu  Cu1       1.0  0.04807482687340331  0.2768077828423046  0.6320262063654596  1.0000
  Cu  Cu2       1.0  0.4569760039212696  0.22316538991155005  0.86800221358893  1.0000
  Cu  Cu3       1.0  0.5430188806318625  0.1320038627710218  0.7768398369122876  1.0000
  Cu  Cu4       1.0  0.9519213907146451  0.3679782989964835  0.7231954793994575  1.0000
  Cu  Cu5       1.0  0.9519239863072785  0.7231929567114432  0.3679731103587539  1.0000
  Cu  Cu6       1.0  0.5430197891773929  0.7768380846373547  0.13200178295063125  1.0000
  Cu  Cu7       1.0  0.4569776803689578  0.8680007011274496  0.22316450337819305  1.0000
  Cu  Cu8       1.0  0.048078039831800375  0.6320224442955579  0.276805054598853  1.0000
  H   H1        1.0  0.5322685362117666  0.0165047882713765  0.01650597185022209  1.0000
  H   H2        1.0  0.06533886782725054  0.4834458672643366  0.48344579751258  1.0000
  H   H3        1.0  0.9346599453208809  0.5165548737725417  0.5165540034484479  1.0000
  H   H4        1.0  0.46772950896912135  0.983494866382195  0.9834944538335293  1.0000
  H   H5        1.0  0.8377463021055572  0.9795879393970569  0.9795868252085144  1.0000
  H   H6        1.0  0.29694423738488507  0.5204045060098038  0.5204045791313519  1.0000
  H   H7        1.0  0.7030575955523656  0.479593513380074  0.47959490014566325  1.0000
  H   H8        1.0  0.1622530611407882  0.0204100754215517  0.02041117462982811  1.0000
  H   H9        1.0  0.739321946037407  0.27346179821905275  0.8442087071204083  1.0000
  H   H10       1.0  0.35697050655923585  0.22648147784569525  0.6558994660646036  1.0000
  H   H11       1.0  0.6430271285089263  0.3441002972449568  0.7735230950089046  1.0000
  H   H12       1.0  0.26067648894199646  0.1557940108889682  0.7265397028479014  1.0000
  H   H13       1.0  0.26068042141984915  0.7265378499737452  0.15578958627207115  1.0000
  H   H14       1.0  0.6430306259386711  0.7735181732524198  0.34409978243739653  1.0000
  H   H15       1.0  0.3569721514685967  0.6558993619189408  0.22647879674939722  1.0000
  H   H16       1.0  0.7393234086941903  0.8442056386650665  0.27345904805316207  1.0000
  H   H17       1.0  0.8965832480485076  0.0075126305207291015  0.8376122544488851  1.0000
  H   H18       1.0  0.24175564385493684  0.4924451337868874  0.6623846355674842  1.0000
  H   H19       1.0  0.7582460054471909  0.33761487631997517  0.5075566495777295  1.0000
  H   H20       1.0  0.10341274909922049  0.1623875271537187  0.9924892599495364  1.0000
  H   H21       1.0  0.10341641614044063  0.9924875614529327  0.16238593529035938  1.0000
  H   H22       1.0  0.7582464902201737  0.5075550538592708  0.33761212818954073  1.0000
  H   H23       1.0  0.24175412553860548  0.6623842352638292  0.4924441151956032  1.0000
  H   H24       1.0  0.8965861470899343  0.8376115799197592  0.007510038749238299  1.0000
  H   H25       1.0  0.9716081342970424  0.0944897587165698  0.7554315083171446  1.0000
  H   H26       1.0  0.3214951220298943  0.40552127161074486  0.7446152553023637  1.0000
  H   H27       1.0  0.6785062875860248  0.2553856945504974  0.5944815224137796  1.0000
  H   H28       1.0  0.028392326324208687  0.2445694194948231  0.9055115617722292  1.0000
  H   H29       1.0  0.028391996786375318  0.9055093484178514  0.24456780374574544  1.0000
  H   H30       1.0  0.6785061609393137  0.5944794680648968  0.2553840881500804  1.0000
  H   H31       1.0  0.3214942273183042  0.7446139631912131  0.4055198984718302  1.0000
  H   H32       1.0  0.9716061028402975  0.7554307783504015  0.09448855155015691  1.0000
  H   H33       1.0  0.17048886822819045  0.27681949667218225  0.4715775100299452  1.0000
  H   H34       1.0  0.4189025144635323  0.22316061864227518  0.02844257842607321  1.0000
  H   H35       1.0  0.5810993613422043  0.971554851733387  0.7768395951678856  1.0000
  H   H36       1.0  0.8295105890340722  0.5284220232488721  0.7231816505032781  1.0000
  H   H37       1.0  0.8295101784322726  0.7231806989788226  0.5284218836192806  1.0000
  H   H38       1.0  0.5811007039694543  0.7768384834535597  0.9715550722182514  1.0000
  H   H39       1.0  0.4189033225056846  0.028442624525780506  0.22316020983461018  1.0000
  H   H40       1.0  0.17048907495961174  0.4715781776235559  0.27681944465685854  1.0000
  H   H41       1.0  0.2606949508509117  0.19265016092901993  0.3787827134578805  1.0000
  H   H42       1.0  0.33214152649959067  0.30733918259150533  0.1212118951706244  1.0000
  H   H43       1.0  0.6678603474547271  0.8787861098344437  0.6926613197283091  1.0000
  H   H44       1.0  0.7393043862731546  0.6212162569779878  0.8073511044935129  1.0000
  H   H45       1.0  0.739302860915281  0.8073500346610415  0.62121666682723  1.0000
  H   H46       1.0  0.6678620758844788  0.6926604641791059  0.8787859273491491  1.0000
  H   H47       1.0  0.3321418694986847  0.12121245126395762  0.307337362950534  1.0000
  H   H48       1.0  0.2606948938019968  0.37878339773652675  0.1926493345543463  1.0000
  H   H49       1.0  0.661766574332546  0.18768168825054232  0.9237070863479387  1.0000
  H   H50       1.0  0.273192938654546  0.31221156218567364  0.5763779813938826  1.0000
  H   H51       1.0  0.726806209521925  0.42362337092162516  0.6877913353341538  1.0000
  H   H52       1.0  0.33822958804688597  0.07629546928140479  0.8123210577308341  1.0000
  H   H53       1.0  0.33823324032770324  0.8123195923006462  0.0762911983417567  1.0000
  H   H54       1.0  0.7268095117461119  0.6877864564931143  0.42362126244678666  1.0000
  H   H55       1.0  0.27319468943110775  0.5763768270454861  0.31220880471646234  1.0000
  H   H56       1.0  0.6617679901744326  0.92370527317766  0.1876792141028927  1.0000
  H   H57       1.0  0.0937418445421088  0.1170966920776024  0.6305630568591383  1.0000
  H   H58       1.0  0.34155219551951177  0.38286375750595175  0.8694112508977198  1.0000
  H   H59       1.0  0.65844754292835  0.1305877421092347  0.6171369394990335  1.0000
  H   H60       1.0  0.9062593759112758  0.369435829873936  0.8829026500414584  1.0000
  H   H61       1.0  0.906259905354119  0.8829029612756686  0.36943692468013717  1.0000
  H   H62       1.0  0.658447702051589  0.617135895014343  0.13058846847697947  1.0000
  H   H63       1.0  0.3415546739599832  0.8694108219554196  0.3828627116534446  1.0000
  H   H64       1.0  0.09374152304175704  0.6305643680931824  0.11709749000915788  1.0000
  H   H65       1.0  0.1816124368137437  0.024464545218378903  0.5463839265372171  1.0000
  H   H66       1.0  0.2525481891254558  0.47549961800945073  0.9535652464944061  1.0000
  H   H67       1.0  0.747450614395049  0.0464351961254934  0.524500490929668  1.0000
  H   H68       1.0  0.8183900787246191  0.45361395722049747  0.9755352815128616  1.0000
  H   H69       1.0  0.8183893131150201  0.9755351066517691  0.453615570765237  1.0000
  H   H70       1.0  0.7474521753726575  0.5244989481884802  0.046435110967117096  1.0000
  H   H71       1.0  0.2525496671922196  0.9535649981033246  0.4754984318468588  1.0000
  H   H72       1.0  0.1816110537407454  0.5463856953607475  0.0244644512259526  1.0000
  C   C1        1.0  0.6434327118664173  0.050669116342604105  0.9508873627536968  1.0000
  C   C2        1.0  0.14508690910916042  0.4492468507017406  0.549039377529361  1.0000
  C   C3        1.0  0.8549139935116018  0.45095969343023523  0.5507530046392116  1.0000
  C   C4        1.0  0.3565618235823607  0.0491197971090358  0.9493371305176053  1.0000
  C   C5        1.0  0.35656439920007427  0.9493327228207139  0.04911566065091212  1.0000
  C   C6        1.0  0.8549166258771731  0.5507500720448208  0.450957363540894  1.0000
  C   C7        1.0  0.14508783945819195  0.5490383244765127  0.44924599040099616  1.0000
  C   C8        1.0  0.6434353548167807  0.9508847690445922  0.05066794281015038  1.0000
  C   C9        1.0  0.5952658389727148  0.10249191846741472  0.9011520795194553  1.0000
  C   C10       1.0  0.09896675263935609  0.39744495353951953  0.5988148563262924  1.0000
  C   C11       1.0  0.9010321589417883  0.40118481274350876  0.6025561046366618  1.0000
  C   C12       1.0  0.40472495761599  0.0988569742410874  0.8975166593741405  1.0000
  C   C13       1.0  0.4047312722564983  0.8975099132802667  0.09884852270107553  1.0000
  C   C14       1.0  0.9010374828839572  0.6025503330494218  0.4011806628085423  1.0000
  C   C15       1.0  0.09897114253222838  0.5988126553889259  0.39744104374539546  1.0000
  C   C16       1.0  0.5952694344738134  0.9011497696568045  0.1024888125626404  1.0000
  C   C17       1.0  0.6003348497974487  0.0072101339843869  0.007209750972734171  1.0000
  C   C18       1.0  0.11484359795679913  0.49272277929394204  0.49272293523049626  1.0000
  C   C19       1.0  0.8851578510944619  0.5072746924548921  0.5072754036974344  1.0000
  C   C20       1.0  0.39966094326867113  0.9927933420476479  0.9927947298036486  1.0000
  C   C21       1.0  0.9078150328190803  0.24065706230948086  0.7487889835550872  1.0000
  C   C22       1.0  0.3972493575630551  0.2593271023163696  0.7513059606124057  1.0000
  C   C23       1.0  0.6027424866606736  0.2487034442750371  0.7406814962222226  1.0000
  C   C24       1.0  0.09218410673339862  0.2512134869501494  0.7593446108509737  1.0000
  C   C25       1.0  0.09218756811796423  0.759342041980574  0.2512093867623975  1.0000
  C   C26       1.0  0.6027459011783164  0.7406747360139719  0.24869680062761984  1.0000
  C   C27       1.0  0.3972544582912293  0.7513016642982109  0.25932301594371404  1.0000
  C   C28       1.0  0.9078171088380815  0.7487845287014353  0.24065365115195175  1.0000
  C   C29       1.0  0.23023851200618858  0.09949923362393781  0.45345582179588445  1.0000
  C   C30       1.0  0.28323827923650674  0.40048825160505436  0.04652961908233517  1.0000
  C   C31       1.0  0.7167615262690319  0.953469696026211  0.5995114791404745  1.0000
  C   C32       1.0  0.7697618616466427  0.5465426654939167  0.9005017221325243  1.0000
  C   C33       1.0  0.7697613855974553  0.9005004174132338  0.5465434133419933  1.0000
  C   C34       1.0  0.7167622357654508  0.5995114016872805  0.953470349092825  1.0000
  C   C35       1.0  0.2832394557250311  0.04652886797750002  0.4004881586478888  1.0000
  C   C36       1.0  0.23023803585936511  0.4534569899926313  0.09949896571580294  1.0000
  C   C37       1.0  0.8602203062077152  0.18935278903396124  0.7949321469289995  1.0000
  C   C38       1.0  0.34444587984846453  0.31060539365481793  0.7052057220700974  1.0000
  C   C39       1.0  0.6555492123682567  0.2947993082135838  0.6893975109876678  1.0000
  C   C40       1.0  0.1397789324865784  0.2050697944345004  0.8106486074931919  1.0000
  C   C41       1.0  0.13978206128208365  0.8106468576757139  0.20506566222666578  1.0000
  C   C42       1.0  0.6555525492509556  0.689394807156667  0.2947953597259243  1.0000
  C   C43       1.0  0.34444975118609017  0.7052025243670741  0.31060335339743966  1.0000
  C   C44       1.0  0.8602204306621388  0.7949282248334838  0.1893508450555925  1.0000
  C   C45       1.0  0.7304082046287803  0.0407108333311115  0.9397878427614685  1.0000
  C   C46       1.0  0.21100213557870268  0.4592158181780446  0.5601534752680947  1.0000
  C   C47       1.0  0.7889963006657865  0.439847189779286  0.5407867031310687  1.0000
  C   C48       1.0  0.26958696015645967  0.060217273789149296  0.9592923350078519  1.0000
  C   C49       1.0  0.26958913998258555  0.9592904589632026  0.06021428909451028  1.0000
  C   C50       1.0  0.7889996974561768  0.540782196762443  0.4398445512984778  1.0000
  C   C51       1.0  0.21100344633637744  0.560151378612865  0.459214374003622  1.0000
  C   C52       1.0  0.7304101509425823  0.939784563891045  0.04071020415994305  1.0000
  C   C53       1.0  0.774302582297139  0.0913799323071203  0.8870384328516534  1.0000
  C   C54       1.0  0.25276770938706516  0.4085521148291633  0.6129676825365562  1.0000
  C   C55       1.0  0.7472314751465348  0.38703380264299625  0.5914503800258828  1.0000
  C   C56       1.0  0.225695986030523  0.1129639529869806  0.9086212206445267  1.0000
  C   C57       1.0  0.22569769922503727  0.9086202648879576  0.11296145839849447  1.0000
  C   C58       1.0  0.7472341235827287  0.5914459030775846  0.3870313125036446  1.0000
  C   C59       1.0  0.2527695067824426  0.612964764326968  0.4085502262361088  1.0000
  C   C60       1.0  0.7743034445810153  0.8870367873388076  0.09137834488015531  1.0000
  C   C61       1.0  0.7721588254211723  0.9851525410224868  0.9851526648240703  1.0000
  C   C62       1.0  0.2425392467467802  0.5148008421479275  0.5148008584196048  1.0000
  C   C63       1.0  0.7574597997835043  0.4851993594355905  0.4852004721768776  1.0000
  C   C64       1.0  0.22783975418209218  0.014848746883394897  0.014848027685580691  1.0000
  C   C65       1.0  0.7727347062744414  0.21517799255597236  0.8423685572220875  1.0000
  C   C66       1.0  0.33026943190910174  0.2847567178229795  0.6577500056128612  1.0000
  C   C67       1.0  0.6697306555891914  0.34225172191672465  0.715246103155202  1.0000
  C   C68       1.0  0.22726442460292162  0.157633787587848  0.7848220363899259  1.0000
  C   C69       1.0  0.2272668932806567  0.7848205662872659  0.15762939241947285  1.0000
  C   C70       1.0  0.6697325514994432  0.7152423901444181  0.34224956861460476  1.0000
  C   C71       1.0  0.33027171167280034  0.6577479351748395  0.28475509565816987  1.0000
  C   C72       1.0  0.7727357065455888  0.8423653165803203  0.21517630719932873  1.0000
  C   C73       1.0  0.8618326539592475  0.06586115523573711  0.8390931055458991  1.0000
  C   C74       1.0  0.2668069862677526  0.4340959580079016  0.660920194276521  1.0000
  C   C75       1.0  0.73319521207997  0.33907844710234514  0.5659058962421922  1.0000
  C   C76       1.0  0.13816756125124394  0.16090779082216497  0.934140488530481  1.0000
  C   C77       1.0  0.1381680946526699  0.9341379482213414  0.16090500260700208  1.0000
  C   C78       1.0  0.733193144880758  0.5659031461602667  0.33907814931273345  1.0000
  C   C79       1.0  0.26680723832068043  0.6609195715764359  0.43409334759847695  1.0000
  C   C80       1.0  0.861831485376669  0.8390924063119698  0.06585938935555198  1.0000
  C   C81       1.0  0.903883326967616  0.11428730298027288  0.7929277642872138  1.0000
  C   C82       1.0  0.3110494703522733  0.3856931714797582  0.7071498879761293  1.0000
  C   C83       1.0  0.6889477062384868  0.29285310718192653  0.6143117673028371  1.0000
  C   C84       1.0  0.09611570629831331  0.2070739947196358  0.885715541981483  1.0000
  C   C85       1.0  0.09611695471728152  0.885712886799169  0.20706970577886347  1.0000
  C   C86       1.0  0.6889488757386675  0.6143086618119966  0.2928512118453239  1.0000
  C   C87       1.0  0.31105195769010396  0.7071470966567547  0.385690296330928  1.0000
  C   C88       1.0  0.9038838073542479  0.7929251116427523  0.1142835212809388  1.0000
  C   C89       1.0  0.17485642791536546  0.22017410930207157  0.48517192593088515  1.0000
  C   C90       1.0  0.38027976958760945  0.2798178607165411  0.014813736817807045  1.0000
  C   C91       1.0  0.6197217899843179  0.9851852002731865  0.7201822831566884  1.0000
  C   C92       1.0  0.8251409414264045  0.5148270210356856  0.7798279084621668  1.0000
  C   C93       1.0  0.8251417677693595  0.7798266324459036  0.5148281104664961  1.0000
  C   C94       1.0  0.6197228312843494  0.7201812465397667  0.9851856019733134  1.0000
  C   C95       1.0  0.38027995994444547  0.014814451596961901  0.27981721414577265  1.0000
  C   C96       1.0  0.17485748764047318  0.4851731812589222  0.22017365757066187  1.0000
  C   C97       1.0  0.22544608530365906  0.17228118960694164  0.433834145707948  1.0000
  C   C98       1.0  0.33161105887909764  0.32771354213371495  0.06615474325373329  1.0000
  C   C99       1.0  0.6683890215670091  0.9338436802831611  0.6722865705122771  1.0000
  C   C100      1.0  0.7745538476194368  0.566164689303953  0.8277198290704316  1.0000
  C   C101      1.0  0.7745535787551101  0.8277190082992264  0.5661659809785534  1.0000
  C   C102      1.0  0.6683903070985907  0.6722855650616495  0.9338445821732645  1.0000
  C   C103      1.0  0.3316119604595968  0.06615488223742721  0.32771258303926487  1.0000
  C   C104      1.0  0.22544543242316448  0.43383496689369144  0.17228109421424162  1.0000
  C   C105      1.0  0.7298764102535884  0.16686256750391246  0.8870247147367534  1.0000
  C   C106      1.0  0.28379461092485053  0.3330580242625559  0.6130430295817461  1.0000
  C   C107      1.0  0.7162055372377552  0.3869587125267628  0.6669431754086828  1.0000
  C   C108      1.0  0.270121220197275  0.11297726211336108  0.8331395490901128  1.0000
  C   C109      1.0  0.2701231709268724  0.8331392569500196  0.11297349302792985  1.0000
  C   C110      1.0  0.7162064540126067  0.666938910227138  0.38695755865479947  1.0000
  C   C111      1.0  0.2837959791461416  0.6130414862123816  0.3330572134424016  1.0000
  C   C112      1.0  0.7298780598778764  0.8870223926011535  0.16686088995774628  1.0000
  C   C113      1.0  0.13257781842595764  0.130858614287213  0.574046776589995  1.0000
  C   C114      1.0  0.337627828846962  0.36911273354562724  0.9259255021898266  1.0000
  C   C115      1.0  0.6623721496034063  0.07407287492197409  0.6308872219395455  1.0000
  C   C116      1.0  0.8674229657953061  0.42595173080414384  0.8691416202375134  1.0000
  C   C117      1.0  0.8674224630962187  0.8691415829078651  0.42595311466016017  1.0000
  C   C118      1.0  0.662372686220088  0.6308869167804476  0.0740734975116979  1.0000
  C   C119      1.0  0.3376294498866059  0.925925686887517  0.36911169617564343  1.0000
  C   C120      1.0  0.1325769317107017  0.5740479246824037  0.1308590676108138  1.0000
  C   C121      1.0  0.18189589384139276  0.07958885339369459  0.5261255277057301  1.0000
  C   C122      1.0  0.2877074936309113  0.4203873540125543  0.9738376268418774  1.0000
  C   C123      1.0  0.7122915503168628  0.02616218061588431  0.5796124364968875  1.0000
  C   C124      1.0  0.8181046117577963  0.47387330413720014  0.920411979660528  1.0000
  C   C125      1.0  0.8181037702173769  0.9204113445124734  0.47387459898077106  1.0000
  C   C126      1.0  0.7122932548508275  0.5796117553770302  0.026162418258287683  1.0000
  C   C127      1.0  0.2877091982299688  0.9738369258074471  0.4203866401296492  1.0000
  C   C128      1.0  0.18189505226843744  0.5261268952520981  0.07958863126278706  1.0000
  N   N1        1.0  0.1287360417737631  0.2002002418316451  0.554334576645644  1.0000
  N   N2        1.0  0.3833702974096624  0.29977021769020246  0.945658953854732  1.0000
  N   N3        1.0  0.6166278407206959  0.05434116836639191  0.7002313108058543  1.0000
  N   N4        1.0  0.8712630215510303  0.4456653574611096  0.799801362078739  1.0000
  N   N5        1.0  0.8712633888377752  0.7998004984941433  0.4456649888790377  1.0000
  N   N6        1.0  0.6166287491857075  0.7002299809270625  0.05434140826812237  1.0000
  N   N7        1.0  0.3833726742161757  0.9456584878921964  0.2997696258429343  1.0000
  N   N8        1.0  0.12873725990605328  0.5543348427002214  0.20019949764503758  1.0000
  O   O1        1.0  0.9819510282257936  0.214049701616581  0.6988625209582011  1.0000
  O   O2        1.0  0.39494885791062717  0.28595175092161185  0.8011669644654373  1.0000
  O   O3        1.0  0.6050385503149727  0.1988438131464321  0.7140570788144129  1.0000
  O   O4        1.0  0.018048003001524586  0.301141007945354  0.7859520586683999  1.0000
  O   O5        1.0  0.018051956759954642  0.7859499428988741  0.30113456852429715  1.0000
  O   O6        1.0  0.6050462503269003  0.7140490003143255  0.19883618606095868  1.0000
  O   O7        1.0  0.39495360533590695  0.8011623926593358  0.28595038026640646  1.0000
  O   O8        1.0  0.9819545980005987  0.6988580933784475  0.2140453431754564  1.0000
  O   O9        1.0  0.5243867704795875  0.15372656976423832  0.9299071630200331  1.0000
  O   O10       1.0  0.10799144011358656  0.34621594864400157  0.5700986527962186  1.0000
  O   O11       1.0  0.8920061295099513  0.42990195900930683  0.6537848471338704  1.0000
  O   O12       1.0  0.47560649147082057  0.0701000055014305  0.8462832746223867  1.0000
  O   O13       1.0  0.4756086387981711  0.8462763541773699  0.07009472469681542  1.0000
  O   O14       1.0  0.8920094746454694  0.6537798839200164  0.42989748235854114  1.0000
  O   O15       1.0  0.10799523653282254  0.5700971452198047  0.34621350981950627  1.0000
  O   O16       1.0  0.5243910707492176  0.9299051112594939  0.15372390752808954  1.0000
  O   O17       1.0  0.6254226414907152  0.0888118885777871  0.8367601650754819  1.0000
  O   O18       1.0  0.05108385584363621  0.41115296390628936  0.6631977424147024  1.0000
  O   O19       1.0  0.9489190213445796  0.33680314381546594  0.588846347188209  1.0000
  O   O20       1.0  0.3745714771272474  0.16324537122887517  0.9111973501914791  1.0000
  O   O21       1.0  0.3745757046327682  0.9111899432308377  0.16324045050916416  1.0000
  O   O22       1.0  0.9489248677452119  0.5888390616432277  0.3367989980356895  1.0000
  O   O23       1.0  0.05108481461689967  0.6631959546030187  0.411150099546127  1.0000
  O   O24       1.0  0.6254226139548678  0.8367591984802162  0.08880890031802839  1.0000
  O   O25       1.0  0.873511259608307  0.3057258703345056  0.7625678273830869  1.0000
  O   O26       1.0  0.44176075987884633  0.19426275708062954  0.7375089085673777  1.0000
  O   O27       1.0  0.5582308656772527  0.2625055506882816  0.8057439503179109  1.0000
  O   O28       1.0  0.1264867566227039  0.2374373138474084  0.694275604066334  1.0000
  O   O29       1.0  0.1264907238653237  0.694273234666639  0.2374307783707508  1.0000
  O   O30       1.0  0.5582358165700115  0.8057374577291513  0.2624967534322167  1.0000
  O   O31       1.0  0.4417655968019644  0.737504997745404  0.1942600547625304  1.0000
  O   O32       1.0  0.8735142255015305  0.7625612442237895  0.30572209677475837  1.0000
