data_image0
_chemical_formula_structural       Zn2H28C28N24O8
_chemical_formula_sum              "Zn2 H28 C28 N24 O8"
_cell_length_a       6.095847663801621
_cell_length_b       11.89769229366786
_cell_length_c       13.482337036561184
_cell_angle_alpha    92.88335752600648
_cell_angle_beta     90.00067911985175
_cell_angle_gamma    104.82834940430878

_space_group_name_H-M_alt    "P 1"
_space_group_IT_number       1

loop_
  _space_group_symop_operation_xyz
  'x, y, z'

loop_
  _atom_site_type_symbol
  _atom_site_label
  _atom_site_symmetry_multiplicity
  _atom_site_fract_x
  _atom_site_fract_y
  _atom_site_fract_z
  _atom_site_occupancy
  Zn  Zn1       1.0  0.057044646720328294  3.523416631170001e-05  0.7500942918589076  1.0000
  Zn  Zn2       1.0  0.9429509323087899  0.9999701952874603  0.24990545183604243  1.0000
  H   H1        1.0  0.49550987361474347  0.6248208057029744  0.13587118913996224  1.0000
  H   H2        1.0  0.8721793447517785  0.3754570116687077  0.3640975693920013  1.0000
  H   H3        1.0  0.5045014739832681  0.37517678603936844  0.8641274696489207  1.0000
  H   H4        1.0  0.12781744151956073  0.6245475507341922  0.6359065866045057  1.0000
  H   H5        1.0  0.36215076643870253  0.7386903185392485  0.11546783124577335  1.0000
  H   H6        1.0  0.6246111736521344  0.26169430709643393  0.38432427285850684  1.0000
  H   H7        1.0  0.6378627563602776  0.2613116257572017  0.8845302764298852  1.0000
  H   H8        1.0  0.3753885573653121  0.7383128652437134  0.6156777722944753  1.0000
  H   H9        1.0  0.6478241669014864  0.6260502544859464  0.9712071215432375  1.0000
  H   H10       1.0  0.022423204113465576  0.3740666991812845  0.5288552881136399  1.0000
  H   H11       1.0  0.3521880492864682  0.3739490754422193  0.028787904803927206  1.0000
  H   H12       1.0  0.9775721765020436  0.6259317680506484  0.47114785926579134  1.0000
  H   H13       1.0  0.8886626681694451  0.7503992476827647  0.848069442920192  1.0000
  H   H14       1.0  0.13859642446892204  0.24965173730867465  0.6521394936996572  1.0000
  H   H15       1.0  0.11135859006673603  0.24961489215698413  0.15193735762417052  1.0000
  H   H16       1.0  0.8614004945888569  0.7503432434565769  0.34785905074247847  1.0000
  H   H17       1.0  0.6281744867423101  0.045581091532014284  0.8880916718959997  1.0000
  H   H18       1.0  0.5832095938217918  0.9545053192749008  0.6116984367405608  1.0000
  H   H19       1.0  0.371791163018635  0.9544104056961871  0.1119030114179864  1.0000
  H   H20       1.0  0.41676750599162915  0.0454992414334754  0.38830201060665814  1.0000
  H   H21       1.0  0.017457350661558697  0.45673607559776747  0.7747753742207523  1.0000
  H   H22       1.0  0.5609531365419116  0.5430382941867009  0.7253654041653805  1.0000
  H   H23       1.0  0.9825476710431931  0.5432554231700308  0.2252245011767471  1.0000
  H   H24       1.0  0.43904277951943277  0.45696452694796347  0.2746386755810732  1.0000
  H   H25       1.0  0.06572352662239214  0.6960231556187326  0.019038401682784912  1.0000
  H   H26       1.0  0.3704590266032568  0.303991183183328  0.4808652922497176  1.0000
  H   H27       1.0  0.9342844391804591  0.3039709518533443  0.9809578793944811  1.0000
  H   H28       1.0  0.6295387655806054  0.6960055443985027  0.5191400040876459  1.0000
  C   C1        1.0  0.7225020712948833  0.7968150960655648  0.14132763333004317  1.0000
  C   C2        1.0  0.9266234501157554  0.2033487615773808  0.3585340402907988  1.0000
  C   C3        1.0  0.2775159366365401  0.20318597540034483  0.8586682109949068  1.0000
  C   C4        1.0  0.07337594386946478  0.796661019081881  0.6414636688106797  1.0000
  C   C5        1.0  0.5125714757982253  0.7070874132027357  0.09914528755644622  1.0000
  C   C6        1.0  0.8065788824404267  0.29317547404062344  0.40074044213267973  1.0000
  C   C7        1.0  0.48744325294693874  0.29291366157690396  0.9008542654673521  1.0000
  C   C8        1.0  0.19342446447150513  0.7068290860501989  0.5992614886346035  1.0000
  C   C9        1.0  0.5303609698883563  0.6805008406003523  0.9878166577383569  1.0000
  C   C10       1.0  0.8506510404754053  0.3196433419567769  0.5120703356443103  1.0000
  C   C11       1.0  0.4696450200991507  0.3194958783889135  0.012178995982708305  1.0000
  C   C12       1.0  0.14934882592056922  0.6803542536775853  0.4879320318611278  1.0000
  C   C13       1.0  0.7918852617159757  0.8114268597130379  0.8719880426343922  1.0000
  C   C14       1.0  0.9808195906747059  0.18868116547272956  0.6280972517289457  1.0000
  C   C15       1.0  0.2081204967643019  0.1885759607276826  0.12801603709081635  1.0000
  C   C16       1.0  0.019166381978848897  0.8113181718543033  0.3719044503200522  1.0000
  C   C17       1.0  0.6539287164176528  0.9594146838493813  0.8940708654036629  1.0000
  C   C18       1.0  0.69513063344057  0.040700431045849  0.6058430104640495  1.0000
  C   C19       1.0  0.3460493854201729  0.040582034640138404  0.10592182142417533  1.0000
  C   C20       1.0  0.3048474401637762  0.959309360364202  0.3941658247587514  1.0000
  C   C21       1.0  0.08509900491920065  0.5161842790664437  0.8376842270177535  1.0000
  C   C22       1.0  0.5694253811056883  0.4836717389501787  0.662397893669102  1.0000
  C   C23       1.0  0.9149097320488409  0.4838080888711929  0.16231420302097635  1.0000
  C   C24       1.0  0.4305725101229712  0.5163284694343346  0.33760532995683695  1.0000
  C   C25       1.0  0.10469767479916917  0.6375998506518386  0.9604828578329149  1.0000
  C   C26       1.0  0.4677177067750408  0.3623828845957037  0.5394912536077998  1.0000
  C   C27       1.0  0.8953123678078685  0.36239512980463207  0.0395164283192528  1.0000
  C   C28       1.0  0.5322809556188162  0.6376155842543625  0.4605141189796172  1.0000
  N   N1        1.0  0.5270002975244664  0.8799566589774485  0.9496634390151117  1.0000
  N   N2        1.0  0.6478573257152433  0.12014625717176841  0.5501266167322997  1.0000
  N   N3        1.0  0.47297857483053485  0.12003831874465481  0.050329913297488815  1.0000
  N   N4        1.0  0.35213607843691347  0.879854820344384  0.4498744198142361  1.0000
  N   N5        1.0  0.6175131226156481  0.7870822596192185  0.934762423053954  1.0000
  N   N6        1.0  0.8311668591570013  0.21300403339565582  0.5651124560008753  1.0000
  N   N7        1.0  0.3824810517296767  0.2129170765130439  0.0652385372389901  1.0000
  N   N8        1.0  0.16882808440945507  0.7869935595032588  0.43488620282341384  1.0000
  N   N9        1.0  0.8200770200250886  0.9207271880632887  0.8452634087668616  1.0000
  N   N10       1.0  0.8996182476154149  0.0794142024781479  0.6548537075605125  1.0000
  N   N11       1.0  0.17992217619454462  0.07927563160708932  0.15473918749580665  1.0000
  N   N12       1.0  0.10037341417270082  0.9205833888026332  0.3451427260557978  1.0000
  N   N13       1.0  0.30248872173103075  0.5415158677905794  0.8651281480194302  1.0000
  N   N14       1.0  0.7615267549163889  0.45846006135830925  0.6348379633269872  1.0000
  N   N15       1.0  0.6975192453678504  0.4584782421474287  0.1348711000112459  1.0000
  N   N16       1.0  0.23847408105838502  0.5415427569634518  0.3651631494554338  1.0000
  N   N17       1.0  0.3117477626369194  0.6186261446740674  0.9445279650760842  1.0000
  N   N18       1.0  0.6937893570162997  0.38148268084202624  0.5553415552319765  1.0000
  N   N19       1.0  0.6882598690497874  0.3813705766654678  0.055470655594852813  1.0000
  N   N20       1.0  0.306211814694656  0.6185175266946886  0.44466092664853824  1.0000
  N   N21       1.0  0.9565648180927655  0.5734825708735657  0.8940230595788424  1.0000
  N   N22       1.0  0.38361902447508106  0.42635557691993137  0.6060581739436374  1.0000
  N   N23       1.0  0.043448504996568736  0.42651240873511403  0.10597548482788711  1.0000
  N   N24       1.0  0.6163775627346341  0.5736420220281602  0.39394790226064214  1.0000
  O   O1        1.0  0.6769384333762076  0.8762828393324895  0.20116192990948895  1.0000
  O   O2        1.0  0.801120010060295  0.1238157413853003  0.2988784456053609  1.0000
  O   O3        1.0  0.3230689580549964  0.12371996681346081  0.7988250898300537  1.0000
  O   O4        1.0  0.19886746826590948  0.8761931737648254  0.7011244175643442  1.0000
  O   O5        1.0  0.9175354654152131  0.7900816131961295  0.11805919119512254  1.0000
  O   O6        1.0  0.12851587535202927  0.21006968336943294  0.3815254554161101  1.0000
  O   O7        1.0  0.08248408484659818  0.2099159792008933  0.8819409510527623  1.0000
  O   O8        1.0  0.871478398686108  0.7899331347984743  0.6184749156421177  1.0000
