data_image0
_chemical_formula_structural       Cd6H28C40O40
_chemical_formula_sum              "Cd6 H28 C40 O40"
_cell_length_a       7.969620195892521
_cell_length_b       13.31790163528306
_cell_length_c       13.369031324623164
_cell_angle_alpha    84.89448018501409
_cell_angle_beta     82.86983292173198
_cell_angle_gamma    86.05044372556067

_space_group_name_H-M_alt    "P 1"
_space_group_IT_number       1

loop_
  _space_group_symop_operation_xyz
  'x, y, z'

loop_
  _atom_site_type_symbol
  _atom_site_label
  _atom_site_symmetry_multiplicity
  _atom_site_fract_x
  _atom_site_fract_y
  _atom_site_fract_z
  _atom_site_occupancy
  Cd  Cd1       1.0  0.15786624486815268  0.0134638692787661  0.1035897358347384  1.0000
  Cd  Cd2       1.0  0.8421395770536575  0.9865351696515532  0.8964075888454631  1.0000
  Cd  Cd3       1.0  0.396418070920653  0.7175979319394015  0.547213186999322  1.0000
  Cd  Cd4       1.0  0.6035780123119919  0.28239586118710497  0.4527874383901321  1.0000
  Cd  Cd5       1.0  0.18737628799775752  0.5033903551585582  0.2550409339968027  1.0000
  Cd  Cd6       1.0  0.8126119362723329  0.49660805086147525  0.7449553521451835  1.0000
  H   H1        1.0  0.5636809083137846  0.1017560696017625  0.12052294465188142  1.0000
  H   H2        1.0  0.4363230946491611  0.8982482178114992  0.8794793189528677  1.0000
  H   H3        1.0  0.43202189906109095  0.2883350838200657  0.1054904330375237  1.0000
  H   H4        1.0  0.5679894878663561  0.711672973023262  0.8945065575274783  1.0000
  H   H5        1.0  0.22919459449764185  0.13198230486892024  0.2618189124894458  1.0000
  H   H6        1.0  0.7708141155447733  0.8680106277228037  0.7381846927274012  1.0000
  H   H7        1.0  0.0227308414183938  0.1408927632326211  0.2508339617200193  1.0000
  H   H8        1.0  0.9772779169053223  0.8590978532053771  0.7491758092191318  1.0000
  H   H9        1.0  0.3271290438355834  0.840738699662772  0.04788923400949591  1.0000
  H   H10       1.0  0.6728756024923399  0.15925882372942374  0.9521097845232092  1.0000
  H   H11       1.0  0.24420050211887193  0.8010159724141133  0.15956171704460334  1.0000
  H   H12       1.0  0.7558002870261971  0.19898232816236572  0.8404374929703451  1.0000
  H   H13       1.0  0.5708568441241153  0.8787969317587498  0.628766952376381  1.0000
  H   H14       1.0  0.42915356337744015  0.1212065701015135  0.3712342050559628  1.0000
  H   H15       1.0  0.7351623256466198  0.8024163283598824  0.6163739306516263  1.0000
  H   H16       1.0  0.26484319696489667  0.19758571185534632  0.3836254194080055  1.0000
  H   H17       1.0  0.038842245920058395  0.3286748801704818  0.3361420818441161  1.0000
  H   H18       1.0  0.9611468581705224  0.6713264879700916  0.6638598958602913  1.0000
  H   H19       1.0  0.8928682421649226  0.39864510777943  0.2914635133615421  1.0000
  H   H20       1.0  0.10711104057443777  0.6013533179910555  0.7085370987945725  1.0000
  H   H21       1.0  0.9265096891275559  0.8411157399116649  0.1480307161743397  1.0000
  H   H22       1.0  0.07349453402051151  0.1588862949479122  0.851970215828935  1.0000
  H   H23       1.0  0.8403874850646884  0.9447541596435586  0.49949304011735757  1.0000
  H   H24       1.0  0.1596135793735414  0.055240352756762014  0.5005079491344802  1.0000
  H   H25       1.0  0.3368313639376125  0.5429205897657852  0.8973821949047079  1.0000
  H   H26       1.0  0.6631665062429873  0.45708224972678835  0.10261759407384828  1.0000
  H   H27       1.0  0.3997505447457498  0.19373417278097801  0.7940407865186716  1.0000
  H   H28       1.0  0.6002471396304969  0.8062709319852959  0.2059588345966006  1.0000
  C   C1        1.0  0.7719123742394557  0.024035995754545104  0.15979958149642212  1.0000
  C   C2        1.0  0.22809215858254098  0.9759622636488671  0.8402016302789904  1.0000
  C   C3        1.0  0.06048468214689959  0.7018323587582673  0.2769510666731492  1.0000
  C   C4        1.0  0.9395226697871235  0.29816365880277124  0.7230456496134819  1.0000
  C   C5        1.0  0.0075360374322599065  0.7600681262743691  0.4872552289193878  1.0000
  C   C6        1.0  0.9924737483515851  0.23992861892918435  0.5127427659197892  1.0000
  C   C7        1.0  0.7531071993020575  0.0969308380349858  0.3612542714191208  1.0000
  C   C8        1.0  0.24688620587851057  0.9030636931114345  0.6387502116355819  1.0000
  C   C9        1.0  0.8336870625405339  0.9588551885250993  0.2449278107812063  1.0000
  C   C10       1.0  0.16631478869249602  0.041145363600726605  0.7550718986239532  1.0000
  C   C11       1.0  0.9150411080015742  0.8652893990655955  0.2245559383064304  1.0000
  C   C12       1.0  0.08495825427357319  0.13471196104018907  0.7754393817078196  1.0000
  C   C13       1.0  0.9715647632139902  0.8004363730876349  0.30288848433988147  1.0000
  C   C14       1.0  0.028438160470621195  0.19956565641628288  0.697114029607036  1.0000
  C   C15       1.0  0.9408129640233297  0.8278109364116872  0.40276584593684117  1.0000
  C   C16       1.0  0.05919060302626628  0.17218432907117173  0.5972334229380323  1.0000
  C   C17       1.0  0.8600098158392127  0.9219341634519651  0.4223719792391734  1.0000
  C   C18       1.0  0.1399988494587987  0.07805953059099831  0.5776308202908709  1.0000
  C   C19       1.0  0.8098161910952156  0.9890956937170614  0.3440926508882924  1.0000
  C   C20       1.0  0.19017643058041503  0.0108951329375984  0.6559046970936535  1.0000
  C   C21       1.0  0.37043057949163927  0.1920803991058477  0.9918177906204235  1.0000
  C   C22       1.0  0.6295623989721832  0.8079201982104393  0.00818324586935402  1.0000
  C   C23       1.0  0.3134768659470524  0.4136905580170094  0.056668766073656195  1.0000
  C   C24       1.0  0.6865260989450661  0.5863122647381687  0.9433291935245762  1.0000
  C   C25       1.0  0.4372005322565611  0.5385481298820665  0.6982694291368929  1.0000
  C   C26       1.0  0.5627883584756431  0.46145627134344386  0.3017308252850555  1.0000
  C   C27       1.0  0.4473710490144212  0.3250871553512696  0.6354901095654029  1.0000
  C   C28       1.0  0.5526343772815562  0.6749156272351798  0.36451068400455716  1.0000
  C   C29       1.0  0.3628811338631266  0.2856928187062948  0.9211598522748261  1.0000
  C   C30       1.0  0.6371166468286658  0.7143115436887513  0.0788383253301248  1.0000
  C   C31       1.0  0.3440780770833384  0.3859075403994439  0.9500821434763581  1.0000
  C   C32       1.0  0.6559248258739954  0.6140960374469558  0.049915760167444014  1.0000
  C   C33       1.0  0.3550202057043776  0.4660397414712847  0.8745042305166424  1.0000
  C   C34       1.0  0.6449824530507157  0.5339653020375508  0.1254988093449541  1.0000
  C   C35       1.0  0.39590246588793576  0.4490371746604823  0.7723697089747361  1.0000
  C   C36       1.0  0.6040928225561402  0.5509656604807845  0.2276324941587404  1.0000
  C   C37       1.0  0.4055202709033238  0.3496126721952352  0.7437101560467808  1.0000
  C   C38       1.0  0.5944801569966813  0.6503893847573964  0.2562910233931746  1.0000
  C   C39       1.0  0.38579597686557315  0.2699497003058795  0.8184307011653829  1.0000
  C   C40       1.0  0.6142095973170921  0.7300523589893615  0.18156639969711114  1.0000
  O   O1        1.0  0.8689528616340921  0.047592355078869296  0.08022960674010451  1.0000
  O   O2        1.0  0.13104640103566112  0.9524074121644048  0.9197755717039016  1.0000
  O   O3        1.0  0.6106275522427395  0.05058752412132609  0.1739472085380953  1.0000
  O   O4        1.0  0.38938137681775215  0.9494190181882303  0.8260523080906739  1.0000
  O   O5        1.0  0.1911488632764744  0.7027206365740994  0.21072528188723544  1.0000
  O   O6        1.0  0.8088544456703346  0.2972784234449223  0.7892714580183693  1.0000
  O   O7        1.0  0.9996110583785122  0.6207585552748827  0.318428665199427  1.0000
  O   O8        1.0  0.000379431127434809  0.37924285002136315  0.6815679818994411  1.0000
  O   O9        1.0  0.1573460888558742  0.7236333223518158  0.46849427275345334  1.0000
  O   O10       1.0  0.8426504691277684  0.27635597838732207  0.5315021899682932  1.0000
  O   O11       1.0  0.9103826428136939  0.746754098544905  0.5695823211604889  1.0000
  O   O12       1.0  0.08962652362230729  0.2532501975709636  0.4304151141344336  1.0000
  O   O13       1.0  0.6348855867458026  0.1130395784386877  0.43286257571998726  1.0000
  O   O14       1.0  0.36509670444683445  0.8869527855132304  0.5671390688461244  1.0000
  O   O15       1.0  0.8283013736717417  0.16498217471912824  0.3042923008449776  1.0000
  O   O16       1.0  0.17170419393123376  0.8350152141086298  0.6957216298563864  1.0000
  O   O17       1.0  0.27787561779256004  0.12183977619883278  0.9810172904500193  1.0000
  O   O18       1.0  0.7221107667913883  0.8781654266466319  0.018979324313399108  1.0000
  O   O19       1.0  0.48052434612378636  0.1875988583834669  0.05577307292686131  1.0000
  O   O20       1.0  0.5194695637316682  0.8124047201333724  0.9442314059282141  1.0000
  O   O21       1.0  0.371515923767518  0.35299266962077513  0.12992658544084182  1.0000
  O   O22       1.0  0.6285028782153502  0.6470168341388813  0.8700720475390966  1.0000
  O   O23       1.0  0.23804417911569684  0.49542857201622337  0.0786273861270601  1.0000
  O   O24       1.0  0.7619500816211938  0.5045720242957118  0.9213728181514469  1.0000
  O   O25       1.0  0.3146368633778919  0.594222463170027  0.6676464524731216  1.0000
  O   O26       1.0  0.6853416977913013  0.4057715030174621  0.3323470805646664  1.0000
  O   O27       1.0  0.5900247473514781  0.5612891000370511  0.6757670766469914  1.0000
  O   O28       1.0  0.4099672677097956  0.4387228109277004  0.32423461999115233  1.0000
  O   O29       1.0  0.48776303700777374  0.3974158936408898  0.5702452200049067  1.0000
  O   O30       1.0  0.5122540227715362  0.6025838023014601  0.4297550550727324  1.0000
  O   O31       1.0  0.44819626097793014  0.23346753509351711  0.6153995787769163  1.0000
  O   O32       1.0  0.551792770814231  0.7665353623095331  0.3846000378215066  1.0000
  O   O33       1.0  0.1391396629495816  0.12257968300190923  0.2157630131166641  1.0000
  O   O34       1.0  0.8608642896092531  0.8774087230598229  0.784244256671812  1.0000
  O   O35       1.0  0.28944494164613127  0.8645462800878294  0.1147368974258995  1.0000
  O   O36       1.0  0.7105546719050577  0.13545050495054062  0.8852640064415525  1.0000
  O   O37       1.0  0.6478574186114298  0.8340680638182932  0.666751205234327  1.0000
  O   O38       1.0  0.3521482278696623  0.16593246621447122  0.33324825673415154  1.0000
  O   O39       1.0  0.015347946413541492  0.377883256019402  0.2766394516730699  1.0000
  O   O40       1.0  0.9846361764714543  0.6221173928473578  0.7233621621689537  1.0000
