data_image0
_chemical_formula_structural       Cd4H80C76S8N12
_chemical_formula_sum              "Cd4 H80 C76 S8 N12"
_cell_length_a       11.346014275500185
_cell_length_b       12.713522445732723
_cell_length_c       16.523326860340912
_cell_angle_alpha    86.02463316723879
_cell_angle_beta     85.3340846308279
_cell_angle_gamma    75.97595984798504

_space_group_name_H-M_alt    "P 1"
_space_group_IT_number       1

loop_
  _space_group_symop_operation_xyz
  'x, y, z'

loop_
  _atom_site_type_symbol
  _atom_site_label
  _atom_site_symmetry_multiplicity
  _atom_site_fract_x
  _atom_site_fract_y
  _atom_site_fract_z
  _atom_site_occupancy
  Cd  Cd1       1.0  0.5193028859835493  0.2524461578155837  0.8100859012898165  1.0000
  Cd  Cd2       1.0  0.47659047208326655  0.7522517628810235  0.19010796181795794  1.0000
  Cd  Cd3       1.0  0.5875434327305555  0.18554626870771782  0.16281153338920254  1.0000
  Cd  Cd4       1.0  0.4080991568028622  0.8184837314650082  0.8361673385592635  1.0000
  H   H1        1.0  0.2713451631466767  0.3441392643531672  0.7951684415833422  1.0000
  H   H2        1.0  0.0667478432520241  0.44654612913227254  0.7628092878182071  1.0000
  H   H3        1.0  0.8578262236165841  0.54617529416997  0.8077023023119376  1.0000
  H   H4        1.0  0.7087870753739837  0.6256132635357402  0.917174574803567  1.0000
  H   H5        1.0  0.7583293255309584  0.27878506669951975  0.8476608231603178  1.0000
  H   H6        1.0  0.9037182898512556  0.3207801809877751  0.9353083235968922  1.0000
  H   H7        1.0  0.05688853123309199  0.26214387589723026  0.038967692019745884  1.0000
  H   H8        1.0  0.18186345292741626  0.11555987683902198  0.12355375677441315  1.0000
  H   H9        1.0  0.8209245737229764  0.3985314405843923  0.7389241171471921  1.0000
  H   H10       1.0  0.9182749918479658  0.46659740645800707  0.6129593360101064  1.0000
  H   H11       1.0  0.9007750514511415  0.5765995442087758  0.48254706828945587  1.0000
  H   H12       1.0  0.7724792258093982  0.6914478794159178  0.3799770937439744  1.0000
  H   H13       1.0  0.3422792443179859  0.8174989224866349  0.3535461436117514  1.0000
  H   H14       1.0  0.2458137512598525  0.7375529475030265  0.47421321802525523  1.0000
  H   H15       1.0  0.26337230803423484  0.6241464474753186  0.603234322801036  1.0000
  H   H16       1.0  0.3917655025408494  0.514209739654632  0.7082336884785148  1.0000
  H   H17       1.0  0.7256998868437348  0.6618916148319585  0.20458262419342074  1.0000
  H   H18       1.0  0.9303460056730658  0.5598066939958954  0.23688472251441778  1.0000
  H   H19       1.0  0.1395082235148237  0.460546710093702  0.19197579337714635  1.0000
  H   H20       1.0  0.28812311144340436  0.37990407818633554  0.08254009880956656  1.0000
  H   H21       1.0  0.2363602772586688  0.7275068926432268  0.15356430846591704  1.0000
  H   H22       1.0  0.09054951276129934  0.6857115355741216  0.06632162908745434  1.0000
  H   H23       1.0  0.9394160738086722  0.7439346941631656  0.9613441715348398  1.0000
  H   H24       1.0  0.8149085760511529  0.8903451113522107  0.8764791805352199  1.0000
  H   H25       1.0  0.1716667014577524  0.6134125607316249  0.2654547201630065  1.0000
  H   H26       1.0  0.07568964881774323  0.5500067175834998  0.3937055465361679  1.0000
  H   H27       1.0  0.09439800676801723  0.4419520056845484  0.5249897928861598  1.0000
  H   H28       1.0  0.22365045939998396  0.32269438807555423  0.6251145579503399  1.0000
  H   H29       1.0  0.653928267000282  0.18871928096762497  0.6461702146375  1.0000
  H   H30       1.0  0.749623055781484  0.27201145077448524  0.5267179408416494  1.0000
  H   H31       1.0  0.7308096728304534  0.38778507049178057  0.39863278200493096  1.0000
  H   H32       1.0  0.601413994362133  0.49705850405475627  0.29376024263166284  1.0000
  H   H33       1.0  0.5799298452431502  0.17274768359020953  0.34322574170632675  1.0000
  H   H34       1.0  0.517403136779393  0.2970705942873551  0.31346277499704894  1.0000
  H   H35       1.0  0.33499195359995326  0.21813369557706616  0.12456531074546004  1.0000
  H   H36       1.0  0.3579813641258839  0.10210040076093921  0.1788418501321515  1.0000
  H   H37       1.0  0.7665992068896442  0.9917702218102349  0.22514650066126038  1.0000
  H   H38       1.0  0.6350453232303366  0.9606286760199794  0.23318615394942538  1.0000
  H   H39       1.0  0.5239457426999792  0.1276275454974396  0.010619331982965692  1.0000
  H   H40       1.0  0.6716224319767718  0.11006406362439948  0.9961092125731593  1.0000
  H   H41       1.0  0.829488947225414  0.22427090374476683  0.1989018841726135  1.0000
  H   H42       1.0  0.8346387220654421  0.1998940462283372  0.10297406133092575  1.0000
  H   H43       1.0  0.4892469089481821  0.35554129707443144  0.048423236109627454  1.0000
  H   H44       1.0  0.492856146665808  0.419689350365843  0.13245648944590724  1.0000
  H   H45       1.0  0.3530719707588617  0.23368629751418268  0.37596691366833557  1.0000
  H   H46       1.0  0.4104500325079385  0.10720826320132906  0.32994320624180756  1.0000
  H   H47       1.0  0.22650784526586426  0.2289074300419998  0.2662028623181739  1.0000
  H   H48       1.0  0.31527207334568896  0.3240939411810189  0.23652522671182635  1.0000
  H   H49       1.0  0.7388223947176867  0.8536044147835823  0.12832082300655395  1.0000
  H   H50       1.0  0.806703113400701  0.9604089788558241  0.09056524765890829  1.0000
  H   H51       1.0  0.6456987400755595  0.9309634497511539  0.005678802555038886  1.0000
  H   H52       1.0  0.5355096636789368  0.9664841485470104  0.08819308902476307  1.0000
  H   H53       1.0  0.8324133295156672  0.3858747764522193  0.10360612958618273  1.0000
  H   H54       1.0  0.715025476523934  0.40144852608675313  0.18255505502686017  1.0000
  H   H55       1.0  0.6400999884572443  0.47547611464042927  0.048011764849896076  1.0000
  H   H56       1.0  0.6890434359747742  0.3445818487286232  0.008568579755710504  1.0000
  H   H57       1.0  0.4215415600798664  0.8346702049252885  0.6562635773115201  1.0000
  H   H58       1.0  0.49061899180050966  0.7118483959475698  0.6853783129412674  1.0000
  H   H59       1.0  0.6581919922034842  0.7894960399366298  0.879147703075581  1.0000
  H   H60       1.0  0.6336030865129557  0.9085259340224782  0.8287600504887461  1.0000
  H   H61       1.0  0.22614022379017482  0.009439575667428795  0.7713399328881249  1.0000
  H   H62       1.0  0.3566934356042708  0.04253777222006509  0.7629999873906922  1.0000
  H   H63       1.0  0.46375066801488873  0.8804144766933746  0.9893775305758149  1.0000
  H   H64       1.0  0.3160023640507745  0.8977088293436353  0.0010763722887858914  1.0000
  H   H65       1.0  0.16951283906788464  0.7734809731284001  0.7992985742573208  1.0000
  H   H66       1.0  0.15911537443980003  0.805888581201799  0.8938489192921889  1.0000
  H   H67       1.0  0.5090321279913398  0.6512988821978495  0.9516889382182893  1.0000
  H   H68       1.0  0.5013194513090864  0.5849035275843237  0.8694520035197539  1.0000
  H   H69       1.0  0.6486098013296058  0.7878398971200512  0.6258568741952216  1.0000
  H   H70       1.0  0.5827739153980787  0.9101377683023628  0.6758617776069183  1.0000
  H   H71       1.0  0.770200831573135  0.7935054014016671  0.7383354307700996  1.0000
  H   H72       1.0  0.6895606275870421  0.6908867873097505  0.7629355739411349  1.0000
  H   H73       1.0  0.25225232700642414  0.1513393974998607  0.8661664187543392  1.0000
  H   H74       1.0  0.18360767270868192  0.045351274708828285  0.9048424970191388  1.0000
  H   H75       1.0  0.34307993648437224  0.0769553185660499  0.9902427399099235  1.0000
  H   H76       1.0  0.45456983599745376  0.03932993185194529  0.9088751482641438  1.0000
  H   H77       1.0  0.1633205826360893  0.6201297657479756  0.9033571582196624  1.0000
  H   H78       1.0  0.28005809956614763  0.597951994388545  0.8241166059769395  1.0000
  H   H79       1.0  0.3556823067941863  0.5344955710275983  0.9602390615073726  1.0000
  H   H80       1.0  0.3082376919300104  0.6686783462979662  0.993709871831356  1.0000
  C   C1        1.0  0.24608011662633092  0.3704921138057102  0.9240783746016771  1.0000
  C   C2        1.0  0.20842609791537106  0.3823194424981012  0.8441008828846461  1.0000
  C   C3        1.0  0.0924799153674769  0.4395995907242635  0.825630081916486  1.0000
  C   C4        1.0  0.0064065225563752085  0.48788898599936187  0.8864930509661446  1.0000
  C   C5        1.0  0.0415896447891981  0.47864655915286386  0.9684091025080758  1.0000
  C   C6        1.0  0.16243426483382706  0.42137284353082544  0.9871622854684641  1.0000
  C   C7        1.0  0.8848680208650135  0.5428989037606087  0.8698763926725018  1.0000
  C   C8        1.0  0.8024719079175708  0.5878795773339291  0.930389942640367  1.0000
  C   C9        1.0  0.80267608392662  0.10597815966016813  0.8770144003033944  1.0000
  C   C10       1.0  0.8158207279296192  0.2127367594244731  0.8825916899975108  1.0000
  C   C11       1.0  0.8968603534357487  0.23691712878591892  0.9327213491306448  1.0000
  C   C12       1.0  0.969649074418257  0.15522537984830362  0.9813196227719696  1.0000
  C   C13       1.0  0.9609201645197487  0.04535307625398129  0.9761276826789138  1.0000
  C   C14       1.0  0.05072282808546192  0.17822373680341025  0.03573309033282609  1.0000
  C   C15       1.0  0.12066350576476739  0.09713180056829167  0.08209381433996298  1.0000
  C   C16       1.0  0.11668212928807978  0.9860578970918042  0.07796263852528534  1.0000
  C   C17       1.0  0.6373821015650522  0.4705850561800488  0.7079220593852821  1.0000
  C   C18       1.0  0.764692201392151  0.44713932882258695  0.6929518232830953  1.0000
  C   C19       1.0  0.8190829830271227  0.4855787654294588  0.6223830294018098  1.0000
  C   C20       1.0  0.7484674371953092  0.5506844739497011  0.5631164479257503  1.0000
  C   C21       1.0  0.8015877902297462  0.5947627910237898  0.49133009610816436  1.0000
  C   C22       1.0  0.7312368267611192  0.6585298881562242  0.4348273396646787  1.0000
  C   C23       1.0  0.6011186245087643  0.683630558047234  0.44488442931023525  1.0000
  C   C24       1.0  0.5264196294017011  0.7492229977333694  0.3862914521156781  1.0000
  C   C25       1.0  0.3989547029442944  0.7679841525364851  0.3990431930624181  1.0000
  C   C26       1.0  0.3447958137599442  0.7237862464718534  0.46707457242925415  1.0000
  C   C27       1.0  0.41532296356597004  0.6595247941716805  0.5268240365548349  1.0000
  C   C28       1.0  0.3622391703885839  0.6122189636897205  0.5971394390757678  1.0000
  C   C29       1.0  0.4325490974517123  0.5510514987542408  0.6550169494443379  1.0000
  C   C30       1.0  0.5626668368747331  0.5308200365778717  0.6470319196616854  1.0000
  C   C31       1.0  0.6186452304052635  0.573273220286744  0.5751686675528516  1.0000
  C   C32       1.0  0.5450773259358925  0.6392338585345598  0.5157078575059797  1.0000
  C   C33       1.0  0.7508414914598944  0.6352308229622992  0.07569384307008414  1.0000
  C   C34       1.0  0.7885810935453605  0.6237499524551637  0.15561913195379862  1.0000
  C   C35       1.0  0.9045759550161706  0.5666510534671829  0.17408509190429552  1.0000
  C   C36       1.0  0.9905991791151647  0.5180847337550248  0.11330312604228247  1.0000
  C   C37       1.0  0.9553167646890728  0.5269786610786084  0.031410534854231294  1.0000
  C   C38       1.0  0.8344442120478419  0.5841747310935119  0.012628618530428102  1.0000
  C   C39       1.0  0.11221618496105627  0.4631972396020103  0.12988778386672806  1.0000
  C   C40       1.0  0.19442484354986786  0.4178176448746881  0.06940707148348216  1.0000
  C   C41       1.0  0.19300003301164986  0.9002330419746158  0.12369469271856556  1.0000
  C   C42       1.0  0.17906856825983647  0.7936413045651847  0.11860335205635404  1.0000
  C   C43       1.0  0.09785738793816272  0.7695053475899202  0.06859583696721216  1.0000
  C   C44       1.0  0.025667033131170938  0.8510481845851815  0.01960246082869327  1.0000
  C   C45       1.0  0.03445121326538465  0.9608693182524063  0.02478891174862949  1.0000
  C   C46       1.0  0.9452245987101975  0.8279066843165096  0.9647952718580295  1.0000
  C   C47       1.0  0.8755250072289442  0.9089318332517136  0.9182710394842242  1.0000
  C   C48       1.0  0.8789805591953977  0.020111066656092195  0.9227498182449376  1.0000
  C   C49       1.0  0.3555684210856072  0.5399197309966226  0.2952128356560592  1.0000
  C   C50       1.0  0.22847092592037652  0.5654427494622993  0.3114185128359279  1.0000
  C   C51       1.0  0.17473806223602387  0.5295208042333215  0.3832021946926288  1.0000
  C   C52       1.0  0.24588202004567714  0.46429367667741417  0.44213290551907375  1.0000
  C   C53       1.0  0.1934860563406034  0.42137732176064446  0.5147062803930849  1.0000
  C   C54       1.0  0.264319422163787  0.35546109407270166  0.5699743183533454  1.0000
  C   C55       1.0  0.39428420516758683  0.32793166043503413  0.5582853532973855  1.0000
  C   C56       1.0  0.4694999675401092  0.25926322265652857  0.6151289606937381  1.0000
  C   C57       1.0  0.5969226495661033  0.24020528473826627  0.6017133320011749  1.0000
  C   C58       1.0  0.6505851159963427  0.2862404051935599  0.5343313734882924  1.0000
  C   C59       1.0  0.5794735253709931  0.3520509652645386  0.47551129467030495  1.0000
  C   C60       1.0  0.6319688283415346  0.39970288016499467  0.40508869403485176  1.0000
  C   C61       1.0  0.5610961779066912  0.4604730720807098  0.34729698965590916  1.0000
  C   C62       1.0  0.43097792174136623  0.48080957912658556  0.35607512479904085  1.0000
  C   C63       1.0  0.37561996860380714  0.4398340867212554  0.4287701179400399  1.0000
  C   C64       1.0  0.4497499631468926  0.3730443617554116  0.4875437290026665  1.0000
  C   C65       1.0  0.3990000688496522  0.19555137293457386  0.3203666012255366  1.0000
  C   C66       1.0  0.31997109535623036  0.23701673788453087  0.2490412513614188  1.0000
  C   C67       1.0  0.7219518215872682  0.9422870197502674  0.11809481518951506  1.0000
  C   C68       1.0  0.621736385575673  0.9805160215923935  0.05927040732253627  1.0000
  C   C69       1.0  0.7508304772321421  0.3584101987476984  0.12703920477618166  1.0000
  C   C70       1.0  0.6553901731905044  0.38801241436817696  0.06424823227052909  1.0000
  C   C71       1.0  0.5997503532511814  0.8210620815335543  0.6823236735717726  1.0000
  C   C72       1.0  0.6787662463661235  0.7791968338628835  0.7536470698421096  1.0000
  C   C73       1.0  0.2688602182987836  0.0628117123629366  0.8776024645469245  1.0000
  C   C74       1.0  0.3678729441168329  0.025994807090292192  0.9374650046824509  1.0000
  C   C75       1.0  0.245024370011194  0.6456207447839333  0.8776021037903374  1.0000
  C   C76       1.0  0.3410049170215146  0.6207677056352096  0.9400167979757509  1.0000
  S   S1        1.0  0.39128078846109565  0.293818870713352  0.9470713569772609  1.0000
  S   S2        1.0  0.693916843682729  0.08082320490753858  0.8158261907002494  1.0000
  S   S3        1.0  0.5752170307483483  0.4338528292246338  0.8035218069448145  1.0000
  S   S4        1.0  0.5935739543523226  0.8043921280336903  0.2989168790455138  1.0000
  S   S5        1.0  0.6053955022321701  0.7119094035215172  0.05300758668974477  1.0000
  S   S6        1.0  0.3030880355536141  0.925053984308299  0.18392329925394785  1.0000
  S   S7        1.0  0.4167446139573556  0.5724891836343106  0.19817136970237198  1.0000
  S   S8        1.0  0.4033030658921389  0.20006845681647428  0.7010799908409592  1.0000
  N   N1        1.0  0.5210609554136028  0.21758390318453275  0.3032894628411781  1.0000
  N   N2        1.0  0.3734470448512325  0.1790601313096971  0.17566766242785542  1.0000
  N   N3        1.0  0.6898218328764119  0.9990411754443966  0.19497219679766423  1.0000
  N   N4        1.0  0.604011826428888  0.09735340304569463  0.037902820991540374  1.0000
  N   N5        1.0  0.7796577418583867  0.2403956151154105  0.1488784406955402  1.0000
  N   N6        1.0  0.5416215417380529  0.3589257893221429  0.09591065916985284  1.0000
  N   N7        1.0  0.48095247577526107  0.7919295337144306  0.6967004328764685  1.0000
  N   N8        1.0  0.6205687843845452  0.8309164673671889  0.8285210933611817  1.0000
  N   N9        1.0  0.30241588079069  0.004166525531402997  0.8016099965864567  1.0000
  N   N10       1.0  0.3851502793365426  0.909538870856359  0.9602917384123583  1.0000
  N   N11       1.0  0.21652259959464723  0.7620370500077553  0.8505324240639279  1.0000
  N   N12       1.0  0.45473344604844346  0.6472229789121685  0.9054337973952112  1.0000
