data_image0
_chemical_formula_structural       Cu2H26C22N10O8
_chemical_formula_sum              "Cu2 H26 C22 N10 O8"
_cell_length_a       7.811699046198384
_cell_length_b       8.188266253677552
_cell_length_c       11.694043843096035
_cell_angle_alpha    101.07626843075828
_cell_angle_beta     96.29329878281553
_cell_angle_gamma    103.92851556859252

_space_group_name_H-M_alt    "P 1"
_space_group_IT_number       1

loop_
  _space_group_symop_operation_xyz
  'x, y, z'

loop_
  _atom_site_type_symbol
  _atom_site_label
  _atom_site_symmetry_multiplicity
  _atom_site_fract_x
  _atom_site_fract_y
  _atom_site_fract_z
  _atom_site_occupancy
  Cu  Cu1       1.0  0.022753612973232893  0.0498214827699854  0.39907203931194596  1.0000
  Cu  Cu2       1.0  0.9772350468992668  0.9501926899787351  0.6009230638588219  1.0000
  H   H1        1.0  0.8100926502000262  0.2317179407228167  0.8376987239477386  1.0000
  H   H2        1.0  0.18992839292480565  0.7682835378519715  0.16229555086257358  1.0000
  H   H3        1.0  0.0898707546165909  0.343006729991899  0.8103433268891465  1.0000
  H   H4        1.0  0.9101386211955711  0.6570014572912227  0.1896568993408748  1.0000
  H   H5        1.0  0.27077736632899985  0.30870408687449913  0.9021963608147912  1.0000
  H   H6        1.0  0.7292344009293785  0.6913030158420669  0.09780220070656748  1.0000
  H   H7        1.0  0.2048625238091333  0.5024964752163896  0.9426214044268446  1.0000
  H   H8        1.0  0.7951531692979189  0.49751726957341463  0.05737663798510081  1.0000
  H   H9        1.0  0.5235155006380197  0.9703956951774018  0.09555692440705599  1.0000
  H   H10       1.0  0.47648848832444207  0.029584147808804997  0.9044211598948164  1.0000
  H   H11       1.0  0.6877120437895955  0.9803379962833391  0.21657467854121384  1.0000
  H   H12       1.0  0.3122907519728741  0.019643039831251506  0.7834137314565194  1.0000
  H   H13       1.0  0.34902319678555926  0.2265602972184553  0.2932802017821601  1.0000
  H   H14       1.0  0.650990649210854  0.7734444363211849  0.7067207758586702  1.0000
  H   H15       1.0  0.1453363900218037  0.535413264025209  0.2860019201440379  1.0000
  H   H16       1.0  0.8546505638666417  0.46458685683973044  0.7140065785667885  1.0000
  H   H17       1.0  0.10978206064486068  0.469082252070635  0.4199585786745885  1.0000
  H   H18       1.0  0.8901864661961484  0.5309227753866211  0.5800508214387179  1.0000
  H   H19       1.0  0.4054354674901147  0.6825705342689261  0.5206567355406547  1.0000
  H   H20       1.0  0.5945504071472102  0.3174307733985274  0.4793535453433717  1.0000
  H   H21       1.0  0.42556032377662234  0.5124537758308563  0.4096870509709872  1.0000
  H   H22       1.0  0.574407354124098  0.4875283885362693  0.5903329343744659  1.0000
  H   H23       1.0  0.4655991823875567  0.7005547935444555  0.26727701616351845  1.0000
  H   H24       1.0  0.5343974017053769  0.2994029768620409  0.732730052730865  1.0000
  H   H25       1.0  0.4167651675966795  0.8686918522224049  0.36556933070161074  1.0000
  H   H26       1.0  0.5832281978030096  0.13128084510181992  0.6344189376141783  1.0000
  C   C1        1.0  0.8520080398062218  0.21399657704574077  0.92545370519111  1.0000
  C   C2        1.0  0.14799977947199483  0.7860102195955392  0.07454535828890124  1.0000
  C   C3        1.0  0.1564817880861042  0.36422730735898073  0.9012045943470992  1.0000
  C   C4        1.0  0.8435346829587757  0.6357839653853574  0.09879489236750057  1.0000
  C   C5        1.0  0.0875622487553116  0.2465169130016704  0.07476269981327019  1.0000
  C   C6        1.0  0.9124533873772973  0.7534968349510719  0.9252396143600091  1.0000
  C   C7        1.0  0.9667361178758824  0.1548409245580586  0.13684324727395847  1.0000
  C   C8        1.0  0.03327196918925066  0.8451734939567146  0.8631534269316885  1.0000
  C   C9        1.0  0.7822582797127068  0.09861079912779763  0.08822332090704067  1.0000
  C   C10       1.0  0.21776406421233216  0.9013907823155379  0.9117719257200745  1.0000
  C   C11       1.0  0.23654697772868621  0.21855895245318643  0.22694400378708923  1.0000
  C   C12       1.0  0.7634594958280657  0.7814540785826765  0.7730557794298817  1.0000
  C   C13       1.0  0.1023687080878872  0.7296073898130829  0.4236498203158091  1.0000
  C   C14       1.0  0.8976225634633437  0.2703943185745743  0.576349823846904  1.0000
  C   C15       1.0  0.1745700106157528  0.5764844243466101  0.382831700934524  1.0000
  C   C16       1.0  0.825416386883944  0.423519458234864  0.6171781074636512  1.0000
  C   C17       1.0  0.3773493861415886  0.6288413613804523  0.42482788455509984  1.0000
  C   C18       1.0  0.6226317498662863  0.3711494434242155  0.5751857600477875  1.0000
  C   C19       1.0  0.47682197644656543  0.7590925106054343  0.3616714665982314  1.0000
  C   C20       1.0  0.5231680479874755  0.2408774180868393  0.6383315632628523  1.0000
  C   C21       1.0  0.6725304235487357  0.8387521938380333  0.41259629158413696  1.0000
  C   C22       1.0  0.3274624487994231  0.16123823319556152  0.587404549630129  1.0000
  N   N1        1.0  0.7320130984431829  0.13234438684708752  0.9805747305405176  1.0000
  N   N2        1.0  0.26800800165609223  0.8676570885647693  0.019415272508460608  1.0000
  N   N3        1.0  0.029247224908367276  0.27660318507582815  0.9675138387103243  1.0000
  N   N4        1.0  0.970772614279866  0.7234058219927062  0.03248989029281542  1.0000
  N   N5        1.0  0.6542974907004578  0.01360390039894098  0.13837102060499967  1.0000
  N   N6        1.0  0.3457147810043394  0.986385471975673  0.8616141136656166  1.0000
  N   N7        1.0  0.0676970786803253  0.13787789380509713  0.23640439172782374  1.0000
  N   N8        1.0  0.93230969553143  0.862130087740937  0.7635938908685915  1.0000
  N   N9        1.0  0.25742041005288036  0.2885443738032407  0.1312065474609057  1.0000
  N   N10       1.0  0.742585216538423  0.7114647983408346  0.8687986434223018  1.0000
  O   O1        1.0  0.09744735474392027  0.8316605952080139  0.35380984899511947  1.0000
  O   O2        1.0  0.9025687485931896  0.1683684002872354  0.6461928127430311  1.0000
  O   O3        1.0  0.06040291648571377  0.7492354060487331  0.526509705724699  1.0000
  O   O4        1.0  0.9395516022080627  0.2507634403647145  0.47348750378318977  1.0000
  O   O5        1.0  0.7676613879643668  0.914211502427918  0.3456916248577002  1.0000
  O   O6        1.0  0.23232850673798572  0.08576346626538373  0.6543000903399514  1.0000
  O   O7        1.0  0.726947264726128  0.8304273029984801  0.5169278987333  1.0000
  O   O8        1.0  0.2730369192717319  0.16959796054929654  0.48308456820669926  1.0000
