data_image0
_chemical_formula_structural       Zn2H28C40N12O14
_chemical_formula_sum              "Zn2 H28 C40 N12 O14"
_cell_length_a       8.069701560356126
_cell_length_b       11.240979912988344
_cell_length_c       11.405577791784173
_cell_angle_alpha    83.0070077063441
_cell_angle_beta     87.20398376152916
_cell_angle_gamma    77.08930917018144

_space_group_name_H-M_alt    "P 1"
_space_group_IT_number       1

loop_
  _space_group_symop_operation_xyz
  'x, y, z'

loop_
  _atom_site_type_symbol
  _atom_site_label
  _atom_site_symmetry_multiplicity
  _atom_site_fract_x
  _atom_site_fract_y
  _atom_site_fract_z
  _atom_site_occupancy
  Zn  Zn1       1.0  0.418123134504441  0.188390210500593  0.9283571819871668  1.0000
  Zn  Zn2       1.0  0.5818762837914802  0.8116100279935952  0.07164391083108508  1.0000
  H   H1        1.0  0.43322173998662805  0.039930852771988205  0.7666009211994192  1.0000
  H   H2        1.0  0.5667801587733975  0.960069387965021  0.2334000627486432  1.0000
  H   H3        1.0  0.4300547991176699  0.17870551061778883  0.7112527316093704  1.0000
  H   H4        1.0  0.5699421554901178  0.8212947239695508  0.28874934638690763  1.0000
  H   H5        1.0  0.17472479890837173  0.43194682651714805  0.8328877452052339  1.0000
  H   H6        1.0  0.8252753490146317  0.5680552454002097  0.16711572420647508  1.0000
  H   H7        1.0  0.8628280943219977  0.5256356120602775  0.8392119304841187  1.0000
  H   H8        1.0  0.13717162121632492  0.474363706122965  0.16079013758945138  1.0000
  H   H9        1.0  0.6700099371755142  0.41000381204212755  0.965006484988777  1.0000
  H   H10       1.0  0.3299897280349171  0.5899955111331965  0.03499295416128228  1.0000
  H   H11       1.0  0.7964346315096122  0.21187883075911884  0.07961131569339838  1.0000
  H   H12       1.0  0.20356352977830033  0.7881214082776892  0.9203889552521076  1.0000
  H   H13       1.0  0.23743421514250684  0.8522060838790252  0.2550875483200414  1.0000
  H   H14       1.0  0.7625655684342404  0.1477969150053937  0.7449114406049873  1.0000
  H   H15       1.0  0.8571795361015546  0.3206545494971493  0.3909423190623045  1.0000
  H   H16       1.0  0.14282138611688563  0.6793447731355615  0.6090579419604936  1.0000
  H   H17       1.0  0.6824505881586943  0.19075225787451439  0.51228102925743  1.0000
  H   H18       1.0  0.3175508782166573  0.8092452291283796  0.4877185533524936  1.0000
  H   H19       1.0  0.7100209808029875  0.972142166546533  0.4678188955717104  1.0000
  H   H20       1.0  0.2899823883276298  0.027857161657053105  0.5321795039652244  1.0000
  H   H21       1.0  0.9052319320509452  0.8960782186747026  0.3035243872653908  1.0000
  H   H22       1.0  0.09477143707967169  0.1039211095288834  0.696474012271544  1.0000
  H   H23       1.0  0.5345355788201827  0.4294246266466787  0.1571236453819083  1.0000
  H   H24       1.0  0.4654617075164963  0.5705783716589466  0.8428745761054657  1.0000
  H   H25       1.0  0.298098967725501  0.5791230234262699  0.468920130307211  1.0000
  H   H26       1.0  0.7018942158582461  0.42087721278892326  0.5310794820708296  1.0000
  H   H27       1.0  0.26602390363112244  0.21470861121726872  0.40264844098425806  1.0000
  H   H28       1.0  0.7339797291899685  0.7852898000034261  0.5973491811923209  1.0000
  C   C1        1.0  0.05340640060574487  0.21889426355438257  0.01785494532910549  1.0000
  C   C2        1.0  0.9465936969893605  0.7811078133550567  0.9821458951590855  1.0000
  C   C3        1.0  0.08675351773634787  0.38695491537294663  0.88690825284516  1.0000
  C   C4        1.0  0.9132453899546035  0.6130471554230043  0.11309527100164728  1.0000
  C   C5        1.0  0.9129461282716985  0.4382275796593549  0.8911341549545354  1.0000
  C   C6        1.0  0.08705300955779184  0.5617735774817519  0.10886683891623507  1.0000
  C   C7        1.0  0.8071976254140906  0.37534192199115074  0.9617764568435091  1.0000
  C   C8        1.0  0.19280299956195524  0.6246583209525058  0.03822282892397058  1.0000
  C   C9        1.0  0.8779618946873811  0.2635838917918393  0.026512179669943212  1.0000
  C   C10       1.0  0.12203600291005762  0.7364172642278604  0.9734888686359255  1.0000
  C   C11       1.0  0.1430892598379501  0.09905033967726243  0.0727017218825594  1.0000
  C   C12       1.0  0.8569110846716653  0.9009508219133127  0.9272974649374318  1.0000
  C   C13       1.0  0.22631330183007492  0.9245195657556736  0.18175298627988914  1.0000
  C   C14       1.0  0.7736877387546883  0.07548343258613241  0.8182468245178853  1.0000
  C   C15       1.0  0.9841717915221363  0.0698582600738149  0.26690425412527924  1.0000
  C   C16       1.0  0.015828603315370046  0.9301428965246786  0.7330975616182371  1.0000
  C   C17       1.0  0.8655056932513572  0.2256078039779582  0.37544906285749136  1.0000
  C   C18       1.0  0.13449774298311462  0.7743915175695124  0.6245528419108055  1.0000
  C   C19       1.0  0.7691903970111724  0.1523008176931455  0.4432775800479902  1.0000
  C   C20       1.0  0.23081174866335621  0.8476985077250067  0.5567217502318796  1.0000
  C   C21       1.0  0.7850559424529494  0.03179040060471291  0.4187525541669146  1.0000
  C   C22       1.0  0.21494438528069537  0.9682107626498966  0.5812457563452397  1.0000
  C   C23       1.0  0.895375536465977  0.9880366744161153  0.3277824098089326  1.0000
  C   C24       1.0  0.1046275689741734  0.0119635707703694  0.6722167670883579  1.0000
  C   C25       1.0  0.40906463006115235  0.3096613139168767  0.2734726728178813  1.0000
  C   C26       1.0  0.5909315781435964  0.6903370889113206  0.7265261522770956  1.0000
  C   C27       1.0  0.46325942069545084  0.41894609801079946  0.2398200821765784  1.0000
  C   C28       1.0  0.5367381293317024  0.5810559833119342  0.7601773619504472  1.0000
  C   C29       1.0  0.4252525372479994  0.5158369958644897  0.3100741041315587  1.0000
  C   C30       1.0  0.5747422005861581  0.48416231949713767  0.6899273053745532  1.0000
  C   C31       1.0  0.329390826784703  0.504189962639707  0.41435304248398097  1.0000
  C   C32       1.0  0.6705995958685094  0.49581118997958384  0.5856465798167676  1.0000
  C   C33       1.0  0.2721008291408181  0.3962296528020772  0.4449030718321012  1.0000
  C   C34       1.0  0.7278966360719462  0.6037687494835  0.5550965751356287  1.0000
  C   C35       1.0  0.31183546231689957  0.2981510636544159  0.3772188349443439  1.0000
  C   C36       1.0  0.6881638888751666  0.7018491814958879  0.622778752642553  1.0000
  C   C37       1.0  0.4478414556966328  0.2055382608987983  0.1969599299862352  1.0000
  C   C38       1.0  0.552160112269071  0.794462903477218  0.803038326090828  1.0000
  C   C39       1.0  0.477538394121133  0.6352874832121175  0.27106279315488274  1.0000
  C   C40       1.0  0.5224585269347201  0.36471275470328385  0.7289375322257143  1.0000
  N   N1        1.0  0.1557821891465778  0.279742180401648  0.948661145554631  1.0000
  N   N2        1.0  0.8442166682164823  0.7202598953863844  0.05133974936865118  1.0000
  N   N3        1.0  0.2833190295748834  0.037519282761202505  0.02295553050380761  1.0000
  N   N4        1.0  0.7166825719427479  0.9624818782867592  0.9770444781889366  1.0000
  N   N5        1.0  0.33448854663812005  0.928200464118433  0.09148785789014374  1.0000
  N   N6        1.0  0.6655099118921866  0.07179885460742241  0.9085133883106876  1.0000
  N   N7        1.0  0.10313256441705927  0.030367148026798012  0.1737681971209994  1.0000
  N   N8        1.0  0.8968677968685197  0.9696340118997571  0.826231866006836  1.0000
  N   N9        1.0  0.9731814612183741  0.18534896113363436  0.28824346493075137  1.0000
  N   N10       1.0  0.026822637539318316  0.8146522004931144  0.7117573111996408  1.0000
  N   N11       1.0  0.16335237725861862  0.3866893886008144  0.5507450138126373  1.0000
  N   N12       1.0  0.8366488254262592  0.6133090153849782  0.4492553461576492  1.0000
  O   O1        1.0  0.48279025281713234  0.2362187553120805  0.088131283892281  1.0000
  O   O2        1.0  0.5172110514580978  0.7637833260468272  0.9118677495451379  1.0000
  O   O3        1.0  0.4409254005254439  0.10000158442577603  0.24565891121240918  1.0000
  O   O4        1.0  0.5590761506642892  0.8999995816142675  0.75433846855681  1.0000
  O   O5        1.0  0.5272778735416351  0.6507391853116857  0.1631402053861564  1.0000
  O   O6        1.0  0.4727225045199078  0.34926197295083483  0.836860734049516  1.0000
  O   O7        1.0  0.46518963797444696  0.7121732057758196  0.3455048131662011  1.0000
  O   O8        1.0  0.5348063736436897  0.2878261073791607  0.6544982945204937  1.0000
  O   O9        1.0  0.13624746698381776  0.4726638424026604  0.6135064545662416  1.0000
  O   O10       1.0  0.8637530219153856  0.5273290391386426  0.3864989894983282  1.0000
  O   O11       1.0  0.10180926331108957  0.2944507145292477  0.5722043727314343  1.0000
  O   O12       1.0  0.8981970288501842  0.7055431029142271  0.42779456605530436  1.0000
  O   O13       1.0  0.3674118896456164  0.12671609571503242  0.7664539610658352  1.0000
  O   O14       1.0  0.6325875454262757  0.8732841411151357  0.23354800806026074  1.0000
