data_image0
_chemical_formula_structural       Er2H16C12O20
_chemical_formula_sum              "Er2 H16 C12 O20"
_cell_length_a       5.979530163444076
_cell_length_b       7.345216278643809
_cell_length_c       13.020993074991885
_cell_angle_alpha    104.61958200550265
_cell_angle_beta     101.37502374049927
_cell_angle_gamma    90.58458739863019

_space_group_name_H-M_alt    "P 1"
_space_group_IT_number       1

loop_
  _space_group_symop_operation_xyz
  'x, y, z'

loop_
  _atom_site_type_symbol
  _atom_site_label
  _atom_site_symmetry_multiplicity
  _atom_site_fract_x
  _atom_site_fract_y
  _atom_site_fract_z
  _atom_site_occupancy
  Er  Er1       1.0  0.017797900176141492  0.8199694046141915  0.6822903596278564  1.0000
  Er  Er2       1.0  0.9846962768461721  0.16023775671067852  0.31477234462429493  1.0000
  H   H1        1.0  0.3527920241248523  0.9568524869535081  0.06194939141866481  1.0000
  H   H2        1.0  0.6234322493336463  0.8936048829137705  0.944753505411704  1.0000
  H   H3        1.0  0.5070562596324777  0.3190673400684219  0.5646808060955452  1.0000
  H   H4        1.0  0.47557723090173437  0.29873038758747583  0.7379036303741345  1.0000
  H   H5        1.0  0.5089353813585191  0.7586026231820002  0.4359517772086577  1.0000
  H   H6        1.0  0.5356173853924702  0.5941416817849188  0.2590672722725175  1.0000
  H   H7        1.0  0.7720739379025615  0.6552987204480945  0.8189203855682408  1.0000
  H   H8        1.0  0.5960709335001297  0.712740027463802  0.7237710920798294  1.0000
  H   H9        1.0  0.24588013483064225  0.8228291822468703  0.2386186490524409  1.0000
  H   H10       1.0  0.4049043344585995  0.0163651084374621  0.2725350688886295  1.0000
  H   H11       1.0  0.1744923917950061  0.23947144955229047  0.07881527384675023  1.0000
  H   H12       1.0  0.7944284158609561  0.14716555547275326  0.9064046000252619  1.0000
  H   H13       1.0  0.19823123464924203  0.9925647917375142  0.4867025479480063  1.0000
  H   H14       1.0  0.15639226049816557  0.20291666404846612  0.7709959996596967  1.0000
  H   H15       1.0  0.8176063484693188  0.4991005688767842  0.5080817824557117  1.0000
  H   H16       1.0  0.8382122040448221  0.4419822549511707  0.2197020756333856  1.0000
  C   C1        1.0  0.19893320319729915  0.9603372928644374  0.9015757755884624  1.0000
  C   C2        1.0  0.36377178779011377  0.05088951834279241  0.008655629786218791  1.0000
  C   C3        1.0  0.6090339656204691  0.04226476935834  0.987650816949426  1.0000
  C   C4        1.0  0.7750544394169765  0.0755789294922025  0.09691438375853784  1.0000
  C   C5        1.0  0.15777651365112888  0.38478944388982933  0.5674530007433135  1.0000
  C   C6        1.0  0.34708964863045105  0.24536140156953218  0.5661621662588489  1.0000
  C   C7        1.0  0.3787023944357769  0.18352829549366584  0.672593653653337  1.0000
  C   C8        1.0  0.5126915834130797  0.005800388400985003  0.6701589019804148  1.0000
  C   C9        1.0  0.858257016283872  0.8235265166227494  0.43243577455078264  1.0000
  C   C10       1.0  0.6664623990635902  0.6834430890388674  0.4316965473266664  1.0000
  C   C11       1.0  0.6304592149531842  0.53249634685519  0.3221106387870806  1.0000
  C   C12       1.0  0.4920496905233093  0.3563045205110384  0.3227879728123355  1.0000
  O   O1        1.0  0.7480865352380022  0.6590897336297843  0.743528223048557  1.0000
  O   O2        1.0  0.2464669560450474  0.9558682839573293  0.24094037842221644  1.0000
  O   O3        1.0  0.22267148766383824  0.7904417477641559  0.8538301144660283  1.0000
  O   O4        1.0  0.0433991231711701  0.0542840751575611  0.8584310617946544  1.0000
  O   O5        1.0  0.3245553388070732  0.2389328770439292  0.058037174580540814  1.0000
  O   O6        1.0  0.6425958419652247  0.1673761085511885  0.9250040164152011  1.0000
  O   O7        1.0  0.7635971522134497  0.9581604424130818  0.1522141920967997  1.0000
  O   O8        1.0  0.9190145662946845  0.2206976670961467  0.1335476595046572  1.0000
  O   O9        1.0  0.17797242665825758  0.5308305020659104  0.6440197804184963  1.0000
  O   O10       1.0  0.9844619205496913  0.3406517065445057  0.4878988728796116  1.0000
  O   O11       1.0  0.2910309492614758  0.0940061388850282  0.47013409441989756  1.0000
  O   O12       1.0  0.15791418656771578  0.14941762308970397  0.6940335532901685  1.0000
  O   O13       1.0  0.40934552054577006  0.8650743221720345  0.6852536881515335  1.0000
  O   O14       1.0  0.7141884812598107  0.009207287240293703  0.6549838458646919  1.0000
  O   O15       1.0  0.03601942358387329  0.8426480231929219  0.5085150839208126  1.0000
  O   O16       1.0  0.8341637708082388  0.9082525742932576  0.3588965298674936  1.0000
  O   O17       1.0  0.720012395137033  0.6116922260288432  0.5248105111294806  1.0000
  O   O18       1.0  0.8491933526898875  0.4825285026633921  0.2988993190198244  1.0000
  O   O19       1.0  0.5969124816860969  0.20505463003201638  0.31548656832633537  1.0000
  O   O20       1.0  0.2857680067341306  0.3712870035786935  0.3301864288654884  1.0000
