data_image0
_chemical_formula_structural       Ag2H8C10S2N2O6
_chemical_formula_sum              "Ag2 H8 C10 S2 N2 O6"
_cell_length_a       5.403510682619128
_cell_length_b       7.969823070411048
_cell_length_c       8.094357175064133
_cell_angle_alpha    93.61983431113518
_cell_angle_beta     89.98274649546447
_cell_angle_gamma    109.53102741367728

_space_group_name_H-M_alt    "P 1"
_space_group_IT_number       1

loop_
  _space_group_symop_operation_xyz
  'x, y, z'

loop_
  _atom_site_type_symbol
  _atom_site_label
  _atom_site_symmetry_multiplicity
  _atom_site_fract_x
  _atom_site_fract_y
  _atom_site_fract_z
  _atom_site_occupancy
  Ag  Ag1       1.0  0.11464707235672492  0.9993453626956853  0.4988467760528934  1.0000
  Ag  Ag2       1.0  0.201982513215313  0.0014390326780429003  0.0011314384525818  1.0000
  H   H1        1.0  0.3345448904415634  0.7110900600962895  0.5318572426946632  1.0000
  H   H2        1.0  0.619871233613189  0.285151705109719  0.4686987176472428  1.0000
  H   H3        1.0  0.2172781710643363  0.4087925440705932  0.6486816964448539  1.0000
  H   H4        1.0  0.807231919604007  0.5876678874030432  0.3533339554768632  1.0000
  H   H5        1.0  0.7010092939685394  0.8067368380213866  0.7579214759852777  1.0000
  H   H6        1.0  0.89617782614625  0.1964598952858836  0.23980234464632136  1.0000
  H   H7        1.0  0.5600364025523064  0.511218600954976  0.8820377486880774  1.0000
  H   H8        1.0  0.05335234390476982  0.492609760677759  0.11689151172076612  1.0000
  C   C1        1.0  0.1637162559722754  0.6598821769159786  0.6088333997540119  1.0000
  C   C2        1.0  0.5021263480835003  0.33791153825399084  0.3912922201799489  1.0000
  C   C3        1.0  0.0980600330238701  0.4933633748894338  0.6727730143622852  1.0000
  C   C4        1.0  0.6041416697759843  0.5045820001752547  0.3282237697051116  1.0000
  C   C5        1.0  0.8743949648352328  0.4357755866508485  0.7685529929525076  1.0000
  C   C6        1.0  0.440567345663773  0.5643340089654957  0.23177689763230802  1.0000
  C   C7        1.0  0.8088278209644743  0.7143865223692388  0.7346967314045332  1.0000
  C   C8        1.0  0.09589862747298383  0.2872016973346377  0.2638539457851223  1.0000
  C   C9        1.0  0.7306869931974731  0.5493134173730356  0.8036152141874027  1.0000
  C   C10       1.0  0.18411847087992336  0.4526606945777873  0.19560971302492192  1.0000
  S   S1        1.0  0.7677164184809443  0.21325153673168987  0.8350817031289139  1.0000
  S   S2        1.0  0.5591713674538425  0.7869794418948147  0.16559573667005623  1.0000
  N   N1        1.0  0.01811626074788833  0.7671853161974413  0.6357106247727486  1.0000
  N   N2        1.0  0.2501246893590476  0.23225982715349866  0.3631474735085689  1.0000
  O   O1        1.0  0.6424710574133599  0.22334849344204605  0.9955101024674989  1.0000
  O   O2        1.0  0.4222954159151655  0.7792165630078713  0.006343613245519496  1.0000
  O   O3        1.0  0.012109607633405507  0.17072430906710423  0.8465576860096747  1.0000
  O   O4        1.0  0.8443373937336105  0.8247455804612545  0.15161682211245875  1.0000
  O   O5        1.0  0.5861105865540922  0.1056903821566166  0.7040934137945243  1.0000
  O   O6        1.0  0.4906620606782398  0.8966895258683395  0.29791028907393274  1.0000
