data_image0
_chemical_formula_structural       Zn6H48C108N4O32
_chemical_formula_sum              "Zn6 H48 C108 N4 O32"
_cell_length_a       21.83230767949211
_cell_length_b       21.832338200172895
_cell_length_c       31.98075555433992
_cell_angle_alpha    109.97298164565238
_cell_angle_beta     109.9721384993788
_cell_angle_gamma    89.98721038722368

_space_group_name_H-M_alt    "P 1"
_space_group_IT_number       1

loop_
  _space_group_symop_operation_xyz
  'x, y, z'

loop_
  _atom_site_type_symbol
  _atom_site_label
  _atom_site_symmetry_multiplicity
  _atom_site_fract_x
  _atom_site_fract_y
  _atom_site_fract_z
  _atom_site_occupancy
  Zn  Zn1       1.0  0.5227319027209987  0.5227125530433697  0.04543534674203192  1.0000
  Zn  Zn2       1.0  2.0163243840387128e-07  0.5583384127142068  0.9999928755177692  1.0000
  Zn  Zn3       1.0  0.441664178125329  1.4107711762886127e-06  7.880834260729849e-06  1.0000
  Zn  Zn4       1.0  0.9999979040967589  0.4417045821287857  1.8463248495156646e-06  1.0000
  Zn  Zn5       1.0  0.4772885134649415  0.4772688691464139  0.9545649953142715  1.0000
  Zn  Zn6       1.0  0.558296381127697  2.63931641342043e-06  0.9999967562581064  1.0000
  H   H1        1.0  0.5420541289258408  0.28031257272737514  0.9454715690399739  1.0000
  H   H2        1.0  0.6650892765407974  0.5420228502290813  0.9454530189171281  1.0000
  H   H3        1.0  0.4033743231589141  0.6651445685067259  0.9454377680878708  1.0000
  H   H4        1.0  0.28037788515803896  0.40345323580540776  0.9454646056715675  1.0000
  H   H5        1.0  0.45798186372314836  0.33491230920846254  0.05454725566256974  1.0000
  H   H6        1.0  0.3348554784463219  0.5966255570555106  0.0545643087959746  1.0000
  H   H7        1.0  0.5965467169922007  0.7196235553924877  0.05453492218524045  1.0000
  H   H8        1.0  0.7196860812608533  0.4579471276457524  0.05452547520264521  1.0000
  H   H9        1.0  0.5461254783517191  0.1665234146079726  0.9478427597421374  1.0000
  H   H10       1.0  0.7813035044174014  0.5463369493145364  0.9479303841972211  1.0000
  H   H11       1.0  0.4016567845600677  0.781354847504936  0.9479122248388735  1.0000
  H   H12       1.0  0.16662772441627988  0.4016191624138229  0.9478784669058555  1.0000
  H   H13       1.0  0.45366966212016985  0.21869849513289097  0.05207098994720384  1.0000
  H   H14       1.0  0.21864523680506667  0.5983444739187505  0.05208887626046284  1.0000
  H   H15       1.0  0.5983813578745155  0.8333733274027392  0.052120716052783664  1.0000
  H   H16       1.0  0.8334757561585419  0.45387752107915696  0.0521543264106158  1.0000
  H   H17       1.0  0.6304065899674498  0.34979902613578406  0.4656731701362489  1.0000
  H   H18       1.0  0.3497431305305908  0.8352872947442904  0.4656638159647599  1.0000
  H   H19       1.0  0.835366699736042  0.11592211031629766  0.4656701180412525  1.0000
  H   H20       1.0  0.11598413258619185  0.630304602284113  0.4656656318803556  1.0000
  H   H21       1.0  0.3696553390886733  0.8840511185979664  0.534336310256279  1.0000
  H   H22       1.0  0.6501759998152606  0.36956100752573917  0.534327716585878  1.0000
  H   H23       1.0  0.16475733113217209  0.650217912406596  0.5343356168830624  1.0000
  H   H24       1.0  0.8840979881554886  0.16465692389739667  0.5343259614179416  1.0000
  H   H25       1.0  0.5898036969560109  0.30640688772171387  0.377244338103175  1.0000
  H   H26       1.0  0.3063910409598947  0.78735126420726  0.37724199113122137  1.0000
  H   H27       1.0  0.7874515482736512  0.07078477240091975  0.3772578295617279  1.0000
  H   H28       1.0  0.07082257915975987  0.5897708735355564  0.37726751376234086  1.0000
  H   H29       1.0  0.41019042983053555  0.9292077626742806  0.6227328588831397  1.0000
  H   H30       1.0  0.6935652731679979  0.41016428188363807  0.6227552134912742  1.0000
  H   H31       1.0  0.2126878285592041  0.6935771092792463  0.6227581110832645  1.0000
  H   H32       1.0  0.9292341310078596  0.21257375429409114  0.6227386025969253  1.0000
  H   H33       1.0  0.7163061728054103  0.14196648351196467  0.2402559958382895  1.0000
  H   H34       1.0  0.09836880202463757  0.7162554298620023  0.2402571079056628  1.0000
  H   H35       1.0  0.5241040251749566  0.09836837291265245  0.2402301643206926  1.0000
  H   H36       1.0  0.14190449586926226  0.5240214025459977  0.24020387948543484  1.0000
  H   H37       1.0  0.2837365031316849  0.9016059357013477  0.7597430519526895  1.0000
  H   H38       1.0  0.9016123709946983  0.47590403248760527  0.7597701583894149  1.0000
  H   H39       1.0  0.4759801310434568  0.8581185692144189  0.7597942001012257  1.0000
  H   H40       1.0  0.8580454185380122  0.28369232849838966  0.7597422063056386  1.0000
  H   H41       1.0  0.6713608297273268  0.09734974079982085  0.15081326674606998  1.0000
  H   H42       1.0  0.053584314156452734  0.6713622992960637  0.15082000668176934  1.0000
  H   H43       1.0  0.4795761684394932  0.05353820929249759  0.15078593067349297  1.0000
  H   H44       1.0  0.0973500007790804  0.4795457570545664  0.1507590890117001  1.0000
  H   H45       1.0  0.3286295190371644  0.9463889676085981  0.8491801197997972  1.0000
  H   H46       1.0  0.9464453232744816  0.5204300333132464  0.8492149288666158  1.0000
  H   H47       1.0  0.5204570231571921  0.9026744658447182  0.8492390018268239  1.0000
  H   H48       1.0  0.9026659638038197  0.3286368033795739  0.8491848385089257  1.0000
  C   C1        1.0  0.6225811460315568  0.12256205951368318  0.24501051301923843  1.0000
  C   C2        1.0  0.22446238996865728  0.7245181469501673  0.4490007895047441  1.0000
  C   C3        1.0  0.12272446846779415  0.5560342459061545  0.2204030497441067  1.0000
  C   C4        1.0  0.3355474137029191  0.9021936578487841  0.7795531866321498  1.0000
  C   C5        1.0  0.902206755827464  0.44391327310964357  0.7795770345686323  1.0000
  C   C6        1.0  0.4439657939418637  0.8772875756336659  0.7795958119144117  1.0000
  C   C7        1.0  0.877219461474162  0.33551229274586086  0.7795444732380831  1.0000
  C   C8        1.0  0.6396040007527262  0.09784219304303576  0.17077437752847396  1.0000
  C   C9        1.0  0.07311003085127508  0.6395990083299096  0.1707705818726453  1.0000
  C   C10       1.0  0.5312949280837032  0.0730718290044052  0.17074440488534046  1.0000
  C   C11       1.0  0.09782230663540761  0.5312710956294636  0.1707288204855999  1.0000
  C   C12       1.0  0.3603953268572724  0.9268759722537112  0.8292291525034088  1.0000
  C   C13       1.0  0.27548484139371965  0.775536271174694  0.5510004624704976  1.0000
  C   C14       1.0  0.9269186858875  0.4687111301071383  0.829256040793986  1.0000
  C   C15       1.0  0.4687305895681533  0.9021910347572016  0.829271204872434  1.0000
  C   C16       1.0  0.9021663488070217  0.3603965337052628  0.8292246637661194  1.0000
  C   C17       1.0  0.7756341799015232  0.2756274254442488  0.5509976306553312  1.0000
  C   C18       1.0  0.5728852345006956  0.07289442916988516  0.14562494490775893  1.0000
  C   C19       1.0  0.07292065675307668  0.5728829542000042  0.14561358608006708  1.0000
  C   C20       1.0  0.42711227337692026  0.9270787244201772  0.8543859199360995  1.0000
  C   C21       1.0  0.9271067970796878  0.4271148542848449  0.8543741092179715  1.0000
  C   C22       1.0  0.6176688870334176  0.49994197150481057  0.9999353055045718  1.0000
  C   C23       1.0  0.7243686926091968  0.2243628508691557  0.44900096357716285  1.0000
  C   C24       1.0  0.49997342409459805  0.6176742125217557  0.9999737209729247  1.0000
  C   C25       1.0  0.3823282825335355  0.5000289600494197  2.9394997270135606e-05  1.0000
  C   C26       1.0  0.5000605162928693  0.3823321702124218  6.630766930021562e-05  1.0000
  C   C27       1.0  0.5240621565645184  0.2666143935613832  0.9693387457198313  1.0000
  C   C28       1.0  0.7027059503390091  0.5241165264015494  0.9693645628659909  1.0000
  C   C29       1.0  0.4452209782013838  0.7027257075312291  0.9693512531580454  1.0000
  C   C30       1.0  0.2666676978970911  0.4453047472870821  0.9693507191352211  1.0000
  C   C31       1.0  0.4758898351812348  0.2972958710327659  0.03063553936503638  1.0000
  C   C32       1.0  0.29727485310701246  0.5547803689582196  0.030650057038691603  1.0000
  C   C33       1.0  0.5546956124023409  0.7333332806294661  0.030649670080052305  1.0000
  C   C34       1.0  0.7333841751441881  0.4759397276283578  0.030658724451221534  1.0000
  C   C35       1.0  0.5257113041393778  0.20341883886840859  0.9703063718504481  1.0000
  C   C36       1.0  0.7668951806821837  0.5259269711316961  0.9703954113728203  1.0000
  C   C37       1.0  0.44452455011695946  0.7669150274711853  0.97037874851263  1.0000
  C   C38       1.0  0.20349053383012006  0.444520495961207  0.9703459562174716  1.0000
  C   C39       1.0  0.4740790410967293  0.2331053083835783  0.02960373046155242  1.0000
  C   C40       1.0  0.23308455836031786  0.5554754897707425  0.029621959521506414  1.0000
  C   C41       1.0  0.5554787466688893  0.7965096644982238  0.029653548011822288  1.0000
  C   C42       1.0  0.7965787798735844  0.474290439135302  0.029690972716686352  1.0000
  C   C43       1.0  0.49983981625242535  0.18622507903821628  0.9999243423447766  1.0000
  C   C44       1.0  0.6500250731343016  0.30732688625446514  0.44740289814934914  1.0000
  C   C45       1.0  0.8137744751695593  0.5001659693392851  7.473387847772236e-05  1.0000
  C   C46       1.0  0.500026146743572  0.8137472851728872  2.501492267729965e-05  1.0000
  C   C47       1.0  0.1862534848441656  0.49997502618929707  0.9999755753169169  1.0000
  C   C48       1.0  0.5000324696750766  0.3140126174787736  1.9221784647508772e-05  1.0000
  C   C49       1.0  0.6859876664729042  0.4999715230788198  0.9999783676839868  1.0000
  C   C50       1.0  0.4999513732563867  0.6859786910388692  0.9999902551822472  1.0000
  C   C51       1.0  0.3073431642357391  0.7973211042451208  0.4474056459326689  1.0000
  C   C52       1.0  0.31402123406057575  0.5000472264552939  9.441626787092929e-06  1.0000
  C   C53       1.0  0.5462116991348935  0.04619414591462596  0.09230488405860629  1.0000
  C   C54       1.0  0.04620836539584158  0.5462105294030549  0.0922965311171211  1.0000
  C   C55       1.0  0.4537863078886699  0.9537926718864329  0.9077030343919077  1.0000
  C   C56       1.0  0.9538080592974436  0.45378963533736527  0.9076943892282829  1.0000
  C   C57       1.0  0.7973241998046774  0.14000418670286757  0.4474116849463813  1.0000
  C   C58       1.0  0.49983527397841926  0.11795290919560134  0.9999377989017973  1.0000
  C   C59       1.0  0.882047805153519  0.5001710936933179  6.18489834210457e-05  1.0000
  C   C60       1.0  0.5000522837993485  0.8820344558513612  2.8297601005545383e-05  1.0000
  C   C61       1.0  0.11796728285618464  0.4999483903019524  0.9999716016347477  1.0000
  C   C62       1.0  0.12251688569912028  0.6225139571864773  0.24500311251210152  1.0000
  C   C63       1.0  0.14008536683081016  0.6500300084960245  0.4473991012371528  1.0000
  C   C64       1.0  0.6978412059865419  0.2785912968920171  0.4739190823784796  1.0000
  C   C65       1.0  0.2786141701475557  0.7760397686124989  0.47392224457428267  1.0000
  C   C66       1.0  0.7759897121128886  0.1952216104405622  0.4739274293805949  1.0000
  C   C67       1.0  0.1952807507714808  0.6979147278737443  0.47392723075613213  1.0000
  C   C68       1.0  0.3020711442043407  0.8047338917118336  0.5260733415325803  1.0000
  C   C69       1.0  0.7214000212524495  0.3021499822891159  0.5260809274555172  1.0000
  C   C70       1.0  0.2239787280738597  0.7213708603284344  0.5260784350353447  1.0000
  C   C71       1.0  0.8047843326621302  0.2240183942604475  0.5260699450466861  1.0000
  C   C72       1.0  0.34994325724144193  0.8599389938076667  0.552602391293334  1.0000
  C   C73       1.0  0.6926559827484126  0.3499521083374687  0.5525975528311022  1.0000
  C   C74       1.0  0.2027111809662471  0.692627506487625  0.5525947474972881  1.0000
  C   C75       1.0  0.8600109785762058  0.20269381531026204  0.5525832566270097  1.0000
  C   C76       1.0  0.37748447290857  0.8774850689792616  0.7549972464032706  1.0000
  C   C77       1.0  0.6266710017093545  0.28335345887504804  0.3975365894174132  1.0000
  C   C78       1.0  0.28340620890195106  0.7707321172057817  0.3975464590811981  1.0000
  C   C79       1.0  0.7707351068745041  0.11402692834977296  0.39754775727452335  1.0000
  C   C80       1.0  0.11409808365284847  0.6267357528674038  0.39753374457249885  1.0000
  C   C81       1.0  0.3732383444503639  0.8859212699364533  0.6024659941363737  1.0000
  C   C82       1.0  0.7166279901697621  0.37330540486215813  0.6024643268153157  1.0000
  C   C83       1.0  0.22929472674027793  0.7165691012458095  0.6024528097969294  1.0000
  C   C84       1.0  0.8774356628889848  0.37742252739666776  0.75498826505482  1.0000
  C   C85       1.0  0.8859882046156571  0.22928443414784988  0.6024493575548249  1.0000
  C   C86       1.0  0.6499389897658431  0.22904524608633636  0.3725931304087098  1.0000
  C   C87       1.0  0.22915788148328892  0.7224621198347877  0.37260007222644026  1.0000
  C   C88       1.0  0.722367165456724  0.14324887754224844  0.3725963369768195  1.0000
  C   C89       1.0  0.1433454910683025  0.6500724646798376  0.3725767177442592  1.0000
  C   C90       1.0  0.3499166242425317  0.8566643501307497  0.6274250134045402  1.0000
  C   C91       1.0  0.770941397462323  0.3500450930745274  0.627406814286097  1.0000
  C   C92       1.0  0.2775492215816087  0.77083331268242  0.6273998043099881  1.0000
  C   C93       1.0  0.8567563167514861  0.27764110553096094  0.6274009960788193  1.0000
  C   C94       1.0  0.6987626332146916  0.19876663692245702  0.3979104094655312  1.0000
  C   C95       1.0  0.19889860203292645  0.698939956713552  0.3979078066501813  1.0000
  C   C96       1.0  0.30106122392195545  0.801100554203785  0.602092774548865  1.0000
  C   C97       1.0  0.8012295553838769  0.3012338811424086  0.602088800891373  1.0000
  C   C98       1.0  0.6237352443743376  0.20449630375370728  0.31979297976334925  1.0000
  C   C99       1.0  0.2045163739594571  0.6959898790860349  0.31980394788558897  1.0000
  C   C100      1.0  0.6960142937494992  0.11518365066345379  0.31979092538404075  1.0000
  C   C101      1.0  0.11518561693604572  0.6237655132212153  0.31977299812481874  1.0000
  C   C102      1.0  0.3762162361059466  0.8848282754532448  0.6802282527421326  1.0000
  C   C103      1.0  0.7954896332672803  0.37624945858605946  0.6802063960349188  1.0000
  C   C104      1.0  0.30402240062431923  0.7954722623422723  0.6801963082955496  1.0000
  C   C105      1.0  0.884825629437053  0.3040010167118936  0.680206504810549  1.0000
  C   C106      1.0  0.6644870391777146  0.12278778043593519  0.22045408553335485  1.0000
  C   C107      1.0  0.09779250235899892  0.6644480407990441  0.2204466499659219  1.0000
  C   C108      1.0  0.5560905089493886  0.0977816512435012  0.22042207497031543  1.0000
  N   N1        1.0  0.6482759982807238  0.1482338186182446  0.296483829097724  1.0000
  N   N2        1.0  0.1481968999190642  0.6482257819940286  0.296473867081346  1.0000
  N   N3        1.0  0.3517718716445232  0.8518032174888859  0.7035258321118222  1.0000
  N   N4        1.0  0.8517645245606432  0.3517247386262311  0.7035145913559121  1.0000
  O   O1        1.0  0.6101960990358534  0.5031930695617887  0.038593183813766516  1.0000
  O   O2        1.0  0.5354238406113936  0.6101949953980464  0.0386282879078976  1.0000
  O   O3        1.0  0.42845917159838354  0.5354450008877476  0.038688618082986216  1.0000
  O   O4        1.0  0.5033148000743779  0.4284647786054522  0.03872976494766082  1.0000
  O   O5        1.0  0.3898061300322269  0.4645746325465439  0.9613708559005404  1.0000
  O   O6        1.0  0.4645538902187026  0.5715399640224845  0.9613112071693166  1.0000
  O   O7        1.0  0.5715354838433484  0.496685353245816  0.9612684500941101  1.0000
  O   O8        1.0  0.49680953249212934  0.3898059358738663  0.9614056700125176  1.0000
  O   O9        1.0  0.5862036188780451  0.04850635866501559  0.07129751719426743  1.0000
  O   O10       1.0  0.022854863552893845  0.5862047676796038  0.07130037539794642  1.0000
  O   O11       1.0  0.48521036625533037  0.02285808219197348  0.07131134465407742  1.0000
  O   O12       1.0  0.04851565264227286  0.4851896246067114  0.07129674276053075  1.0000
  O   O13       1.0  0.4137933093629015  0.9771463049945337  0.9286998017030044  1.0000
  O   O14       1.0  0.9771449202067971  0.514790087124389  0.9286887506826105  1.0000
  O   O15       1.0  0.5148078925711204  0.9514860310046274  0.9287022674440308  1.0000
  O   O16       1.0  0.9514954912520891  0.41379601592265663  0.9287010770962709  1.0000
  O   O17       1.0  0.5447500545326494  0.0858191688825372  0.9891964895404045  1.0000
  O   O18       1.0  0.9034129176393293  0.5450355133392079  0.9892773846608948  1.0000
  O   O19       1.0  0.44438610571525317  0.9034111278371807  0.9892555297027528  1.0000
  O   O20       1.0  0.08582956218601355  0.4442990841856157  0.9892098653281849  1.0000
  O   O21       1.0  0.4549710312412572  0.09658849644289089  0.01072243216604824  1.0000
  O   O22       1.0  0.09658931922558624  0.5556143830576018  0.01074568675710451  1.0000
  O   O23       1.0  0.5557012798167165  0.914170886077514  0.010789236134833458  1.0000
  O   O24       1.0  0.9141815993025374  0.4552569857703047  0.01080382394691538  1.0000
  O   O25       1.0  0.5829240107778518  0.23102427144895898  0.29681290465072163  1.0000
  O   O26       1.0  0.2310076996136061  0.7138555192124015  0.2968212843211475  1.0000
  O   O27       1.0  0.7139804628886778  0.06578828931352378  0.29680307505661574  1.0000
  O   O28       1.0  0.06571783866421298  0.5828853510172465  0.296775638086352  1.0000
  O   O29       1.0  0.4170831872048239  0.934305012035736  0.703224193656041  1.0000
  O   O30       1.0  0.7689539258954027  0.41704725953579913  0.7031862031812679  1.0000
  O   O31       1.0  0.28616552775697807  0.7689771827234394  0.7031786430336453  1.0000
  O   O32       1.0  0.9342324310396252  0.28604912886024175  0.7031941257846201  1.0000
