data_image0
_chemical_formula_structural       Zr6H29C50ClO52
_chemical_formula_sum              "Zr6 H29 C50 Cl1 O52"
_cell_length_a       14.856150994320842
_cell_length_b       14.844989611185877
_cell_length_c       14.85912006335567
_cell_angle_alpha    59.87470284901187
_cell_angle_beta     59.93867259591575
_cell_angle_gamma    60.03552033729071

_space_group_name_H-M_alt    "P 1"
_space_group_IT_number       1

loop_
  _space_group_symop_operation_xyz
  'x, y, z'

loop_
  _atom_site_type_symbol
  _atom_site_label
  _atom_site_symmetry_multiplicity
  _atom_site_fract_x
  _atom_site_fract_y
  _atom_site_fract_z
  _atom_site_occupancy
  Zr  Zr1       1.0  0.8808547213114793  0.8819750368044125  0.6181294815694683  1.0000
  Zr  Zr2       1.0  0.1186593374329092  0.11956602094721798  0.3806197540203868  1.0000
  Zr  Zr3       1.0  0.11802089644174893  0.8812708047925426  0.6187351691592013  1.0000
  Zr  Zr4       1.0  0.8817580020518746  0.12058298533390412  0.37942545528184013  1.0000
  Zr  Zr5       1.0  0.1179743768606514  0.8824419425964434  0.3811829285037333  1.0000
  Zr  Zr6       1.0  0.8815816891543021  0.11888653621526403  0.6176658607626919  1.0000
  H   H1        1.0  0.0928197849733155  0.7195966600855995  0.5935904507731635  1.0000
  H   H2        1.0  0.09393545776799779  0.09482652046888518  0.2183118766661778  1.0000
  H   H3        1.0  0.09354730060567817  0.09397153468538735  0.5931916150594532  1.0000
  H   H4        1.0  0.7188032780468346  0.09448941046641578  0.5927997638000163  1.0000
  H   H5        1.0  0.13924953689453187  0.5923853650861303  0.9143990126620166  1.0000
  H   H6        1.0  0.7410804890695533  0.6220496902685753  0.9652376236056099  1.0000
  H   H7        1.0  0.8284476219313464  0.5372258314215588  0.8801979365583388  1.0000
  H   H8        1.0  0.8346832755819094  0.36857495853046607  0.04899580071251806  1.0000
  H   H9        1.0  0.7477356653247256  0.4536682189247401  0.1338397472138553  1.0000
  H   H10       1.0  0.14675781836817958  0.353579662312356  0.34099601682400754  1.0000
  H   H11       1.0  0.8482583394061439  0.6531420774424888  0.6529581794944972  1.0000
  H   H12       1.0  0.149838257672741  0.65657943361834  0.3432821467131575  1.0000
  H   H13       1.0  0.8453412745716092  0.3485670191895665  0.6527481812631493  1.0000
  H   H14       1.0  0.34704690117459347  0.1534804831454366  0.1522806597382811  1.0000
  H   H15       1.0  0.6601379917987201  0.8415751627754987  0.8526841720524485  1.0000
  H   H16       1.0  0.655097873378388  0.15166702362500206  0.8488139595962209  1.0000
  H   H17       1.0  0.351643257368771  0.842634059847235  0.1566800656758501  1.0000
  H   H18       1.0  0.8462874808146097  0.15318580666451018  0.8473687542809072  1.0000
  H   H19       1.0  0.14848691343859594  0.8428659507491645  0.15641421632894037  1.0000
  H   H20       1.0  0.8486992734789782  0.1532673901696525  0.1520138869124779  1.0000
  H   H21       1.0  0.14559749859902388  0.8414486959088804  0.8528055727484795  1.0000
  H   H22       1.0  0.3520401683509889  0.6576059966476181  0.34162082169665087  1.0000
  H   H23       1.0  0.6532428692813922  0.3489386641145558  0.6517457600432123  1.0000
  H   H24       1.0  0.6603209877620844  0.353842779689991  0.3407105222993889  1.0000
  H   H25       1.0  0.3459209381759437  0.652988766983931  0.6525315976945547  1.0000
  H   H26       1.0  0.3497487012074603  0.8446241114029646  0.6502173298854287  1.0000
  H   H27       1.0  0.6554763805715923  0.15168982381310758  0.342855730499828  1.0000
  H   H28       1.0  0.6554876692326704  0.845198121288682  0.6493541529238624  1.0000
  H   H29       1.0  0.34980625917342684  0.15124149691025932  0.34345288028884363  1.0000
  C   C1        1.0  0.9975477972186868  0.6969264413244503  0.4966631579325875  1.0000
  C   C2        1.0  0.3092555360035192  0.9970157830980781  0.19617865054044598  1.0000
  C   C3        1.0  0.9966235631701464  0.30935480534803617  0.4978843243932332  1.0000
  C   C4        1.0  0.6969203722226565  0.9978001135861735  0.8088970101885521  1.0000
  C   C5        1.0  0.9944887833198026  0.7018251793164652  0.8050188243721549  1.0000
  C   C6        1.0  0.6965303393128296  0.9984413521513744  0.4959291559686107  1.0000
  C   C7        1.0  0.9985031010535085  0.30626857090299353  0.19987909090129807  1.0000
  C   C8        1.0  0.30903710983118043  0.997587004634461  0.49664706983804763  1.0000
  C   C9        1.0  0.3087502958584309  0.6967736196628351  0.49646130766930696  1.0000
  C   C10       1.0  0.996230186622519  0.9977310444497435  0.8089776164705426  1.0000
  C   C11       1.0  0.6970955637641864  0.31045627459079134  0.49634614099808533  1.0000
  C   C12       1.0  0.9978160146785912  0.997578304805735  0.19553254665797937  1.0000
  C   C13       1.0  0.9970462785110783  0.40734017733949907  0.49811561710030344  1.0000
  C   C14       1.0  0.998274900269841  0.5976535536711366  0.4979951249586279  1.0000
  C   C15       1.0  0.07973470726270909  0.45617885138891257  0.41386182022741724  1.0000
  C   C16       1.0  0.9166422237353017  0.5477226135863661  0.5832842160385991  1.0000
  C   C17       1.0  0.08044047718298235  0.5504080074331696  0.41395803257718455  1.0000
  C   C18       1.0  0.9156321321303834  0.4538986770075868  0.5830032468966806  1.0000
  C   C19       1.0  0.4078787669607565  0.9968850458290105  0.09814618721439651  1.0000
  C   C20       1.0  0.5994487631213163  0.9967842019288041  0.9079580820612705  1.0000
  C   C21       1.0  0.45479492227331525  0.08148980591511902  0.048903517911213536  1.0000
  C   C22       1.0  0.5527643916245568  0.911884389495448  0.9575037508706145  1.0000
  C   C23       1.0  0.5498078683466829  0.08137839926521202  0.9546324315092461  1.0000
  C   C24       1.0  0.45751297110559375  0.9123567350454562  0.0511994677577332  1.0000
  C   C25       1.0  0.9965520844942687  0.997711347649478  0.9070781704627745  1.0000
  C   C26       1.0  0.9979370231630542  0.9980499259018528  0.09697699240962993  1.0000
  C   C27       1.0  0.915812744833616  0.0831083994463954  0.9531073355391512  1.0000
  C   C28       1.0  0.07924050659185153  0.9132578019970268  0.05043212071778664  1.0000
  C   C29       1.0  0.9167163430172565  0.08340683581337081  0.04691312885166351  1.0000
  C   C30       1.0  0.07835396068165323  0.9128633558954888  0.9565182080217908  1.0000
  C   C31       1.0  0.40713344738929896  0.5985938553082518  0.4965124853057503  1.0000
  C   C32       1.0  0.598857836310316  0.4087359792278349  0.4961313551396599  1.0000
  C   C33       1.0  0.4572977598708975  0.5519803542239642  0.4116395248009964  1.0000
  C   C34       1.0  0.5483113531691403  0.45473883113861285  0.5814328070124262  1.0000
  C   C35       1.0  0.552514717360147  0.4583619464897524  0.4111740979228313  1.0000
  C   C36       1.0  0.4532170790050218  0.5487711932275374  0.5816858272160345  1.0000
  C   C37       1.0  0.9939035635402931  0.6020256347526568  0.9052052525255475  1.0000
  C   C38       1.0  0.0007801488020149675  0.4061455197496143  0.09978711604789932  1.0000
  C   C39       1.0  0.9161163509668597  0.5492941146007766  0.9564845338059556  1.0000
  C   C40       1.0  0.0810505342718955  0.4597356937800541  0.04569421790636595  1.0000
  C   C41       1.0  0.9202637382821949  0.4548572932216571  0.05055231731492441  1.0000
  C   C42       1.0  0.07627503705793282  0.5546517766156567  0.9521303306897194  1.0000
  C   C43       1.0  0.8154068933153699  0.5501675231689022  0.9530648256102694  1.0000
  C   C44       1.0  0.8195736663165292  0.4437285855460616  0.059460532671600536  1.0000
  C   C45       1.0  0.40722708284898346  0.9978388372241226  0.4965373712606577  1.0000
  C   C46       1.0  0.5982737028450913  0.9982466243790853  0.496139034579869  1.0000
  C   C47       1.0  0.4552169815006622  0.9148210179058864  0.5801078902261522  1.0000
  C   C48       1.0  0.5498224918526162  0.08172995562568271  0.41304069344795374  1.0000
  C   C49       1.0  0.5497742301150411  0.9149774231683094  0.5799095101422508  1.0000
  C   C50       1.0  0.4552471294953478  0.0815769601227104  0.4132422346674147  1.0000
  Cl  Cl1       1.0  0.1906708107512501  0.4142151481285764  0.08718475195031772  1.0000
  O   O1        1.0  0.9212202874299534  0.7401010399222585  0.5722862613779894  1.0000
  O   O2        1.0  0.2660883092762845  0.07340379330823056  0.23849632291861408  1.0000
  O   O3        1.0  0.07282507819834197  0.2664159208136425  0.4222404189378608  1.0000
  O   O4        1.0  0.7387884830427038  0.9226640899015524  0.7653409289848482  1.0000
  O   O5        1.0  0.07126733229494436  0.7420173676269286  0.76406597596835  1.0000
  O   O6        1.0  0.7390719282259611  0.07517567624771701  0.42002531950375027  1.0000
  O   O7        1.0  0.9217803904724137  0.2667466377279625  0.23761606977424762  1.0000
  O   O8        1.0  0.26575024808312986  0.9215872781686086  0.5732942037618329  1.0000
  O   O9        1.0  0.26581107843808377  0.7393650813599494  0.420513772647972  1.0000
  O   O10       1.0  0.9205988805239044  0.07439233779816587  0.7656947257501939  1.0000
  O   O11       1.0  0.7390414621527699  0.26690309980091337  0.5732659411483211  1.0000
  O   O12       1.0  0.07391846636145517  0.9214705563412054  0.23830477643236475  1.0000
  O   O13       1.0  0.07234375943578915  0.9219045606784988  0.7660189660524778  1.0000
  O   O14       1.0  0.7398699944398501  0.2676668018217612  0.42035477182061237  1.0000
  O   O15       1.0  0.9221151669109561  0.07390384758560486  0.2380117936766694  1.0000
  O   O16       1.0  0.26535031884977656  0.739041326575041  0.5730396866732972  1.0000
  O   O17       1.0  0.9188556225108186  0.7412176384003999  0.7641002888548271  1.0000
  O   O18       1.0  0.2659485154904928  0.07415581679562415  0.4207399632413029  1.0000
  O   O19       1.0  0.07256534215245132  0.2633003824886018  0.24354232184690966  1.0000
  O   O20       1.0  0.7389666343873601  0.9224834251263376  0.5724990384817658  1.0000
  O   O21       1.0  0.7391445732133519  0.07476330216555743  0.7652559116010949  1.0000
  O   O22       1.0  0.0738686357684842  0.7397563441634389  0.4204076366985132  1.0000
  O   O23       1.0  0.2658397111054213  0.9212209638905332  0.2385665254080535  1.0000
  O   O24       1.0  0.9204912558637802  0.266187770964592  0.5743655108184456  1.0000
  O   O25       1.0  0.7987787042068674  0.06805284558194567  0.5660552433635715  1.0000
  O   O26       1.0  0.06676988928513343  0.0672906444106047  0.5666803097120408  1.0000
  O   O27       1.0  0.06717883554910033  0.06713641551046827  0.2983887386341593  1.0000
  O   O28       1.0  0.06657698210045057  0.7996807806733127  0.5661000637988634  1.0000
  O   O29       1.0  0.1478267213765821  0.9510084478862169  0.4502710433126892  1.0000
  O   O30       1.0  0.9504391913123698  0.9517878955855534  0.44976086566057205  1.0000
  O   O31       1.0  0.9506260008807742  0.14829084073988955  0.45022893032243844  1.0000
  O   O32       1.0  0.9502400945014458  0.9512753190751085  0.6473247574016907  1.0000
  O   O33       1.0  0.15976564858810607  0.4177224706088296  0.3309248692587019  1.0000
  O   O34       1.0  0.8379160240641497  0.5855950902026806  0.6674300077174706  1.0000
  O   O35       1.0  0.16135992769506666  0.5912377129874571  0.3313855531921206  1.0000
  O   O36       1.0  0.8352355121209458  0.4123987927239696  0.6661157552317718  1.0000
  O   O37       1.0  0.41300510182866645  0.1648166488527778  0.08699512623093847  1.0000
  O   O38       1.0  0.5955323143983551  0.8281834792412754  0.9191865775126046  1.0000
  O   O39       1.0  0.5885061380993264  0.1644379870646445  0.91323156711141  1.0000
  O   O40       1.0  0.4180592259048412  0.8298946087703669  0.09209357922266277  1.0000
  O   O41       1.0  0.8362513403696001  0.1667375676402045  0.9110410382913513  1.0000
  O   O42       1.0  0.15952285078095232  0.8303727055361277  0.09166236539682159  1.0000
  O   O43       1.0  0.838299516078621  0.16773926188247398  0.08456670888615038  1.0000
  O   O44       1.0  0.15739417208418893  0.829160820578579  0.9185614034436256  1.0000
  O   O45       1.0  0.4184686349669279  0.5931099980988676  0.3288490036060096  1.0000
  O   O46       1.0  0.5862606810999723  0.412886582851499  0.6649569562004628  1.0000
  O   O47       1.0  0.5956835242949269  0.42014790591109374  0.3273253208240092  1.0000
  O   O48       1.0  0.4102732215300121  0.5863590908614851  0.6657063518019796  1.0000
  O   O49       1.0  0.4148201860311149  0.8333500061592789  0.6623069399246899  1.0000
  O   O50       1.0  0.58963309650526  0.16382586303302563  0.331464601911243  1.0000
  O   O51       1.0  0.5895555535631517  0.8335972566993205  0.6618713620483304  1.0000
  O   O52       1.0  0.41491251383160954  0.16357321468461808  0.3318990361375498  1.0000
