data_image0
_chemical_formula_structural       Sc4H20C24N8O24
_chemical_formula_sum              "Sc4 H20 C24 N8 O24"
_cell_length_a       6.620144385459594
_cell_length_b       9.737104072208167
_cell_length_c       13.210595127274454
_cell_angle_alpha    89.99994950259314
_cell_angle_beta     90.00074399939882
_cell_angle_gamma    102.16972709976133

_space_group_name_H-M_alt    "P 1"
_space_group_IT_number       1

loop_
  _space_group_symop_operation_xyz
  'x, y, z'

loop_
  _atom_site_type_symbol
  _atom_site_label
  _atom_site_symmetry_multiplicity
  _atom_site_fract_x
  _atom_site_fract_y
  _atom_site_fract_z
  _atom_site_occupancy
  Sc  Sc1       1.0  0.8912073652534501  0.625800371363752  0.9544760171560543  1.0000
  Sc  Sc2       1.0  0.10879257387516367  0.8742017670277492  0.4544731587933485  1.0000
  Sc  Sc3       1.0  0.10879138355138451  0.374200894531235  0.045528085606854105  1.0000
  Sc  Sc4       1.0  0.891213709950108  0.12579944361257842  0.5455203464401635  1.0000
  H   H1        1.0  0.06277505255589942  0.8221731590676384  0.7307542938775954  1.0000
  H   H2        1.0  0.9372235328911598  0.677828363757243  0.2307547824221317  1.0000
  H   H3        1.0  0.9372350691708177  0.17782591733067224  0.2692429962101884  1.0000
  H   H4        1.0  0.06276520932078003  0.3221792938234957  0.7692440215283228  1.0000
  H   H5        1.0  0.5986827234761094  0.40325601751269613  0.601469830193416  1.0000
  H   H6        1.0  0.40131328991620313  0.0967445436154861  0.1014706086399357  1.0000
  H   H7        1.0  0.4013111626010256  0.5967442309746147  0.3985335155855624  1.0000
  H   H8        1.0  0.5986999863983797  0.9032502974314911  0.8985251675233672  1.0000
  H   H9        1.0  0.24942973066291066  0.5643038057069205  0.8889318236850843  1.0000
  H   H10       1.0  0.7505651315976749  0.935697133592683  0.388927118738252  1.0000
  H   H11       1.0  0.7505654613183524  0.4356911679230607  0.1110677372591411  1.0000
  H   H12       1.0  0.249430944695753  0.06430520494296131  0.6110716852382653  1.0000
  H   H13       1.0  0.6648503530732482  0.8104774990618752  0.03657560454649911  1.0000
  H   H14       1.0  0.3351409430641042  0.6895214281934302  0.5365762515836466  1.0000
  H   H15       1.0  0.335143392459983  0.1895269626784497  0.9634277412306036  1.0000
  H   H16       1.0  0.6648514359811201  0.3104788313420457  0.46342709419033684  1.0000
  H   H17       1.0  0.5224643472752605  0.6528974575658992  0.0343209345486031  1.0000
  H   H18       1.0  0.47753408314452617  0.8471003580228141  0.5343178773840762  1.0000
  H   H19       1.0  0.4775290566260323  0.3471059536222257  0.9656816542595481  1.0000
  H   H20       1.0  0.5224681618701722  0.15289772307205143  0.46568471145513274  1.0000
  C   C1        1.0  0.9571133383489822  0.7303296719256239  0.7005784791186969  1.0000
  C   C2        1.0  0.042888292548859466  0.7696696380941362  0.20057903904209706  1.0000
  C   C3        1.0  0.04289794878764751  0.2696683428733024  0.29941881097330036  1.0000
  C   C4        1.0  0.9571077837445685  0.23033270044150822  0.7994197649344202  1.0000
  C   C5        1.0  0.8153439744885063  0.5982035962879452  0.5642942617416793  1.0000
  C   C6        1.0  0.184656408474588  0.9017932357373443  0.06429491521817  1.0000
  C   C7        1.0  0.184664780799892  0.40179127791044783  0.4357068131838275  1.0000
  C   C8        1.0  0.8153468613564241  0.0982079970062273  0.935703888782534  1.0000
  C   C9        1.0  0.699890652779615  0.4987812815090678  0.6281774843087932  1.0000
  C   C10       1.0  0.30010791059831377  0.0012203886517810007  0.1281784133530834  1.0000
  C   C11       1.0  0.30011159221520234  0.5012167995838227  0.371823590594076  1.0000
  C   C12       1.0  0.6999010457085432  0.9987797493449334  0.8718181197623098  1.0000
  C   C13       1.0  0.7232355918885386  0.5243543338361506  0.7311880523536303  1.0000
  C   C14       1.0  0.2767596492526111  0.975646161662063  0.23118775248845946  1.0000
  C   C15       1.0  0.27676816013819666  0.47564373620856776  0.2688130225542338  1.0000
  C   C16       1.0  0.7232462929804768  0.024353998430008503  0.7688080236487808  1.0000
  C   C17       1.0  0.6018175366784247  0.4237352636076253  0.806649840677217  1.0000
  C   C18       1.0  0.39817968519495384  0.07626691537507214  0.3066528829684217  1.0000
  C   C19       1.0  0.39817805750872276  0.5762702376357396  0.19335350510566235  1.0000
  C   C20       1.0  0.6018339327615081  0.9237289762250854  0.6933444071320026  1.0000
  C   C21       1.0  0.8190929538614141  0.5788492231619956  0.45102232084062893  1.0000
  C   C22       1.0  0.18089347189189914  0.9211487924248376  0.9510240623355345  1.0000
  C   C23       1.0  0.18089854078219503  0.42114367145894965  0.5489749691875404  1.0000
  C   C24       1.0  0.8190990476574738  0.07884725385368091  0.048976255567645  1.0000
  N   N1        1.0  0.8547140701315497  0.6374596021666434  0.7679649914056769  1.0000
  N   N2        1.0  0.14528549244901262  0.8625420175307  0.2679654103976077  1.0000
  N   N3        1.0  0.14529269593914051  0.36253844577976224  0.23203456957583776  1.0000
  N   N4        1.0  0.8547177773422445  0.1374592152089278  0.7320303657304238  1.0000
  N   N5        1.0  0.9390485538288685  0.716250979337204  0.5999160399734295  1.0000
  N   N6        1.0  0.060947078029030946  0.7837470401670573  0.09991595313051253  1.0000
  N   N7        1.0  0.06095602195596681  0.28374497855396197  0.4000827640333641  1.0000
  N   N8        1.0  0.9390481744764827  0.2162574105191837  0.9000828508425729  1.0000
  O   O1        1.0  0.6397436625666088  0.4613283971711652  0.9010771909214415  1.0000
  O   O2        1.0  0.36024179235801057  0.0386720259670739  0.4010777362402891  1.0000
  O   O3        1.0  0.36024644616315266  0.538683462617378  0.09892388393663513  1.0000
  O   O4        1.0  0.639770117488439  0.9613186128770298  0.5989195538562344  1.0000
  O   O5        1.0  0.4797488404625198  0.3171057632486836  0.7776386670607708  1.0000
  O   O6        1.0  0.5202459114915284  0.1828910874526173  0.2776424464518072  1.0000
  O   O7        1.0  0.5202410672090281  0.6829008327376016  0.2223639217347397  1.0000
  O   O8        1.0  0.4797636675549697  0.8171016745922233  0.7223563575726288  1.0000
  O   O9        1.0  0.9265398437372242  0.6831111278488536  0.4024245283723076  1.0000
  O   O10       1.0  0.0734461296417024  0.8168846490693795  0.9024256280127078  1.0000
  O   O11       1.0  0.0734590455618189  0.3168859247881883  0.5975757895516268  1.0000
  O   O12       1.0  0.9265514537035244  0.18311767842006083  0.0975746899051444  1.0000
  O   O13       1.0  0.727999800965861  0.4661955524984976  0.4115454099102324  1.0000
  O   O14       1.0  0.27197771048236047  0.0338028520343059  0.9115487707069435  1.0000
  O   O15       1.0  0.271987032107667  0.5338015885268846  0.588457178878258  1.0000
  O   O16       1.0  0.7280172004110881  0.9662005481017034  0.08845079023353013  1.0000
  O   O17       1.0  0.12447886060524381  0.5191360579944657  0.9244014394798798  1.0000
  O   O18       1.0  0.8755172746824159  0.9808660241953224  0.4243960179037174  1.0000
  O   O19       1.0  0.8755180395556007  0.48086416839846186  0.07560342024542172  1.0000
  O   O20       1.0  0.12448010757476878  0.019131039488904402  0.575603543047059  1.0000
  O   O21       1.0  0.636596939053554  0.7195882305654847  0.9975163527538129  1.0000
  O   O22       1.0  0.36339522864837187  0.7804098729114913  0.4975137293732176  1.0000
  O   O23       1.0  0.3634024930151583  0.2804151364338878  0.0024892639469911004  1.0000
  O   O24       1.0  0.6366013298904746  0.2195893029302313  0.5024911303513023  1.0000
