data_image0
_chemical_formula_structural       Zn4H24C20N8O24
_chemical_formula_sum              "Zn4 H24 C20 N8 O24"
_cell_length_a       6.1193843020573615
_cell_length_b       6.260530192336417
_cell_length_c       19.675357173723192
_cell_angle_alpha    92.51362430823993
_cell_angle_beta     89.99954959865315
_cell_angle_gamma    90.00022291976488

_space_group_name_H-M_alt    "P 1"
_space_group_IT_number       1

loop_
  _space_group_symop_operation_xyz
  'x, y, z'

loop_
  _atom_site_type_symbol
  _atom_site_label
  _atom_site_symmetry_multiplicity
  _atom_site_fract_x
  _atom_site_fract_y
  _atom_site_fract_z
  _atom_site_occupancy
  Zn  Zn1       1.0  0.15786872859612794  0.08222765587122889  0.8003878661758324  1.0000
  Zn  Zn2       1.0  0.6578631375821188  0.9177632714070254  0.699610276342142  1.0000
  Zn  Zn3       1.0  0.8421346941208226  0.9177666865724489  0.1996122721281283  1.0000
  Zn  Zn4       1.0  0.34214028516228007  0.08223904775093865  0.3003889429606233  1.0000
  H   H1        1.0  0.7103158517668359  0.20339684651274578  0.9982484892083863  1.0000
  H   H2        1.0  0.21031218835019413  0.7966022480760555  0.5017491163285541  1.0000
  H   H3        1.0  0.289689205093083  0.7966103300298497  0.0017543472755789987  1.0000
  H   H4        1.0  0.7896814295092793  0.2033952310863326  0.49824750253063155  1.0000
  H   H5        1.0  0.05556951824194559  0.34057515666554383  0.9476524937797067  1.0000
  H   H6        1.0  0.5555633330180355  0.6594298574500925  0.5523491212617203  1.0000
  H   H7        1.0  0.9444371727889234  0.659428787426428  0.05234827015610221  1.0000
  H   H8        1.0  0.4444302848463194  0.3405772320565389  0.4476486315971331  1.0000
  H   H9        1.0  0.14756885165741807  0.37848106336979  0.7031183715962472  1.0000
  H   H10       1.0  0.6475727077559412  0.6215178397246957  0.796880910176377  1.0000
  H   H11       1.0  0.8524247661505553  0.6215196917541232  0.2968828616285678  1.0000
  H   H12       1.0  0.3524274467044251  0.3784876596713786  0.20311733149317499  1.0000
  H   H13       1.0  0.17465917410550694  0.5157280573407234  0.7756264158094199  1.0000
  H   H14       1.0  0.6746643068285818  0.4842709397076276  0.7243728007030017  1.0000
  H   H15       1.0  0.8253377120051367  0.4842726977888531  0.22437481741145868  1.0000
  H   H16       1.0  0.3253423842277882  0.5157329695778897  0.2756259297772559  1.0000
  H   H17       1.0  0.32918229096637214  0.7269563068337132  0.8567123826878318  1.0000
  H   H18       1.0  0.8291804505671931  0.2730448336276225  0.6432869895069333  1.0000
  H   H19       1.0  0.6708194976011936  0.2730460471278632  0.14328887007245333  1.0000
  H   H20       1.0  0.17081643555863477  0.7269607092708554  0.3567137939860034  1.0000
  H   H21       1.0  0.07115782135007719  0.7032334340090429  0.8645075435421322  1.0000
  H   H22       1.0  0.5711562714642611  0.29676841042440566  0.6354924697602942  1.0000
  H   H23       1.0  0.928840698920709  0.29677211759387484  0.13549374831272593  1.0000
  H   H24       1.0  0.4288422488133889  0.7032339261282768  0.3645077662761481  1.0000
  C   C1        1.0  0.5134377181896922  0.17435187900863267  0.9021491274787368  1.0000
  C   C2        1.0  0.013441558754671196  0.825638573491183  0.5978508880436239  1.0000
  C   C3        1.0  0.4865673386643579  0.8256520998869586  0.09785366991459202  1.0000
  C   C4        1.0  0.9865618639662157  0.17435095507875786  0.4021481748966097  1.0000
  C   C5        1.0  0.5565866987494701  0.2179968774539276  0.9715225488107183  1.0000
  C   C6        1.0  0.056585573376153796  0.7819969136271822  0.5284768935015338  1.0000
  C   C7        1.0  0.4434183581021358  0.7820022962695389  0.02847968158278041  1.0000
  C   C8        1.0  0.9434129469152452  0.21799899282504495  0.4715212308980982  1.0000
  C   C9        1.0  0.3562509588344937  0.2816632658413738  0.999569119539736  1.0000
  C   C10       1.0  0.8562381430770002  0.7183427736496099  0.5004307544615828  1.0000
  C   C11       1.0  0.6437606346567435  0.7183406695574844  0.0004311360262789969  1.0000
  C   C12       1.0  0.14375384060220134  0.28165634784151183  0.49956842576433064  1.0000
  C   C13       1.0  0.6533641512497963  0.10343867263606651  0.8438941913302219  1.0000
  C   C14       1.0  0.15336844351745776  0.8965378583271357  0.6561042944831004  1.0000
  C   C15       1.0  0.3466376372756342  0.8965477104937135  0.15610788270468134  1.0000
  C   C16       1.0  0.846626808474717  0.10345644059430725  0.3438933020112601  1.0000
  C   C17       1.0  0.28147746866567747  0.34208325640017273  0.06974423631091042  1.0000
  C   C18       1.0  0.7814781158330317  0.6579190524997355  0.4302560690843509  1.0000
  C   C19       1.0  0.7185243199239506  0.6579206702800703  0.9302555109030312  1.0000
  C   C20       1.0  0.21852040443580725  0.342078487582441  0.5697441083161436  1.0000
  N   N1        1.0  0.30033644700144885  0.20889017468775958  0.8890819501818685  1.0000
  N   N2        1.0  0.800340752555428  0.7911092669207702  0.6109174719477793  1.0000
  N   N3        1.0  0.6996637074147855  0.7911121792709892  0.11091930258039186  1.0000
  N   N4        1.0  0.19966103604401297  0.208893043532747  0.3890812389930646  1.0000
  N   N5        1.0  0.20862072581867608  0.27238652736834  0.9478067656366708  1.0000
  N   N6        1.0  0.7086148161058928  0.727620616366522  0.5521945002602139  1.0000
  N   N7        1.0  0.7913892335143657  0.727620623077918  0.05219454574972811  1.0000
  N   N8        1.0  0.291383704196761  0.27238489172832897  0.44780424977520294  1.0000
  O   O1        1.0  0.5478639293877308  0.05234681836716249  0.7890315400986199  1.0000
  O   O2        1.0  0.047878484666206596  0.9476517215570794  0.7109669651154535  1.0000
  O   O3        1.0  0.452136225022137  0.947655544293198  0.21097022102753027  1.0000
  O   O4        1.0  0.9521282063813528  0.052347391257931995  0.2890317067288565  1.0000
  O   O5        1.0  0.8570610023421775  0.10186123327991939  0.8525739933589808  1.0000
  O   O6        1.0  0.3570655191258324  0.8980856090727443  0.6474226136739747  1.0000
  O   O7        1.0  0.14294405441584246  0.8981044086580494  0.14743036840231133  1.0000
  O   O8        1.0  0.6429330011974415  0.10191025387141647  0.352572968906209  1.0000
  O   O9        1.0  0.1622298118151448  0.3712135380778534  0.7533124417693744  1.0000
  O   O10       1.0  0.6622431298172771  0.628783834458275  0.7466878018570997  1.0000
  O   O11       1.0  0.8377490986210459  0.6287888332472774  0.24668982774624487  1.0000
  O   O12       1.0  0.33775048803187957  0.3712184672794621  0.2533104007296956  1.0000
  O   O13       1.0  0.41701498648784957  0.3330027643294002  0.11822858020946825  1.0000
  O   O14       1.0  0.9170152548954889  0.6670016221511756  0.3817719265951639  1.0000
  O   O15       1.0  0.5829851679715147  0.6670091477639132  0.8817707563691289  1.0000
  O   O16       1.0  0.0829799970731315  0.33300072309745576  0.6182288178091115  1.0000
  O   O17       1.0  0.18836945591832685  0.7507631237327743  0.8325701257125647  1.0000
  O   O18       1.0  0.6883669136010225  0.24923590344751992  0.6674280410542297  1.0000
  O   O19       1.0  0.8116323326624836  0.24923600647696276  0.16742956286542926  1.0000
  O   O20       1.0  0.3116348749949864  0.7507680145311111  0.33257119779582217  1.0000
  O   O21       1.0  0.0814377715428165  0.39534945122965565  0.07535319447977433  1.0000
  O   O22       1.0  0.5814367134027519  0.6046409634456466  0.424646947617916  1.0000
  O   O23       1.0  0.9185607487574001  0.6046512516930773  0.9246449885558051  1.0000
  O   O24       1.0  0.4185634410061638  0.3953469749967409  0.5753526041448256  1.0000
