data_image0
_chemical_formula_structural       Zn2H29C40S2N3O10
_chemical_formula_sum              "Zn2 H29 C40 S2 N3 O10"
_cell_length_a       12.755131469077636
_cell_length_b       16.386850544753948
_cell_length_c       17.6077161006622
_cell_angle_alpha    96.0758565686215
_cell_angle_beta     90.05788335867237
_cell_angle_gamma    94.04829363187291

_space_group_name_H-M_alt    "P 1"
_space_group_IT_number       1

loop_
  _space_group_symop_operation_xyz
  'x, y, z'

loop_
  _atom_site_type_symbol
  _atom_site_label
  _atom_site_symmetry_multiplicity
  _atom_site_fract_x
  _atom_site_fract_y
  _atom_site_fract_z
  _atom_site_occupancy
  Zn  Zn1       1.0  0.4916455649933482  0.4097498122965958  0.4955549622106614  1.0000
  Zn  Zn2       1.0  0.510338962238265  0.5873527352216287  0.498670261773455  1.0000
  H   H1        1.0  0.3938425376967487  0.7089494551473976  0.4402355388751288  1.0000
  H   H2        1.0  0.38797416360067427  0.8600464018252721  0.4422223078281106  1.0000
  H   H3        1.0  0.6672683478992879  0.8848311144019262  0.5847536080754165  1.0000
  H   H4        1.0  0.3453690419763901  0.1097539507447394  0.4080473979538368  1.0000
  H   H5        1.0  0.6048847331665641  0.1415171027157456  0.5693446704150773  1.0000
  H   H6        1.0  0.600379931313043  0.29192998424768046  0.5644213845686039  1.0000
  H   H7        1.0  0.5987858963876888  0.007083824157859902  0.5554133432031491  1.0000
  H   H8        1.0  0.405761119093107  0.9907672703697372  0.4481114590509989  1.0000
  H   H9        1.0  0.46317785867101696  0.6075101045857705  0.26410678974811214  1.0000
  H   H10       1.0  0.46463574878067243  0.6065854949068168  0.12339693017035809  1.0000
  H   H11       1.0  0.5454011705971739  0.35441470033394035  0.10461964646614769  1.0000
  H   H12       1.0  0.4529625000521804  0.648209295715887  0.8863316450843826  1.0000
  H   H13       1.0  0.5276605785492663  0.3946372569175551  0.8741309001262321  1.0000
  H   H14       1.0  0.527897904333372  0.38886228503269393  0.7331831336128545  1.0000
  H   H15       1.0  0.5274716284658112  0.41216383133982504  0.993133235231646  1.0000
  H   H16       1.0  0.46941839041067374  0.5919912683526222  0.0008533420341266071  1.0000
  H   H17       1.0  0.8644151081130219  0.6169616928703192  0.46678265461776647  1.0000
  H   H18       1.0  0.7303017094868949  0.6827647729470457  0.545069826714048  1.0000
  H   H19       1.0  0.6488803621992218  0.6773291265155095  0.6245652842244026  1.0000
  H   H20       1.0  0.7399824675160361  0.7654592064341796  0.6207215356188553  1.0000
  H   H21       1.0  0.3011688989023398  0.22953427794152503  0.3476060940028276  1.0000
  H   H22       1.0  0.35960807775099823  0.3299903755729829  0.3794206458502244  1.0000
  H   H23       1.0  0.2572029294745306  0.28529968586585136  0.4322950295203825  1.0000
  H   H24       1.0  0.48470727488673043  0.30462441621538255  0.2811118182887355  1.0000
  H   H25       1.0  0.6166886113159434  0.3415753146643253  0.29209363913331987  1.0000
  H   H26       1.0  0.572816538347773  0.2857852296977513  0.20352976253694519  1.0000
  H   H27       1.0  0.41691681420563503  0.7105539953599802  0.7813933849669679  1.0000
  H   H28       1.0  0.39020368709631004  0.6521219254916701  0.6909712731901081  1.0000
  H   H29       1.0  0.5181876144199791  0.6948948645523672  0.7128304356186277  1.0000
  C   C1        1.0  0.4976979159715214  0.4903656843383216  0.3498672637793945  1.0000
  C   C2        1.0  0.29766661084360624  0.5108853125299221  0.5058300255490948  1.0000
  C   C3        1.0  0.5003713013214011  0.5047893099946492  0.6446343621269647  1.0000
  C   C4        1.0  0.7045865634580437  0.4915814293073452  0.4945478980026364  1.0000
  C   C5        1.0  0.4533153086608124  0.7508171760838637  0.47113535277843244  1.0000
  C   C6        1.0  0.4507198871248477  0.8352606997182122  0.472729483929669  1.0000
  C   C7        1.0  0.5287702345446376  0.8866904530522747  0.5141592287690742  1.0000
  C   C8        1.0  0.6052017857744615  0.8477774802978432  0.551741808660921  1.0000
  C   C9        1.0  0.6040401948948925  0.7620843145762635  0.547865074776162  1.0000
  C   C10       1.0  0.5344991065730368  0.976319426320785  0.5196698324143653  1.0000
  C   C11       1.0  0.46924063497549895  0.0219933347022661  0.48434978385846966  1.0000
  C   C12       1.0  0.4033421052476172  0.14820942033502865  0.4438243121354972  1.0000
  C   C13       1.0  0.474391312707006  0.1114488770366222  0.4880695603265508  1.0000
  C   C14       1.0  0.546985349234852  0.16463956288990295  0.5331007328630122  1.0000
  C   C15       1.0  0.5448740316640368  0.2486699803550962  0.5310593126528999  1.0000
  C   C16       1.0  0.40469583906340034  0.233633579901209  0.4441980846288587  1.0000
  C   C17       1.0  0.5017654134339652  0.4825564367726257  0.26445508465555884  1.0000
  C   C18       1.0  0.48063447531396264  0.5521084124009337  0.22789705611996422  1.0000
  C   C19       1.0  0.48173041148947243  0.5512985780994628  0.1491850587525789  1.0000
  C   C20       1.0  0.5049298862934251  0.4793467631196719  0.10290784395083107  1.0000
  C   C21       1.0  0.5267069229389706  0.4104084422458526  0.1399315431627812  1.0000
  C   C22       1.0  0.5259500753468201  0.4095095971985714  0.21931296099222655  1.0000
  C   C23       1.0  0.5077578473882697  0.47240310711995903  0.019911184625428298  1.0000
  C   C24       1.0  0.4888515626653386  0.5315220120554685  0.9744652726676079  1.0000
  C   C25       1.0  0.4713548287740963  0.5911982192901063  0.8525027304624118  1.0000
  C   C26       1.0  0.4916654934600828  0.52312615291968  0.8913646787820183  1.0000
  C   C27       1.0  0.5127439477828375  0.4494635094772761  0.8468843022627367  1.0000
  C   C28       1.0  0.5134624267014729  0.44592310960788245  0.7680008378618693  1.0000
  C   C29       1.0  0.49541187669012743  0.5149210197414932  0.7298929384850155  1.0000
  C   C30       1.0  0.47299733593405335  0.5894768781667707  0.7728700935097734  1.0000
  C   C31       1.0  0.10906207590586087  0.4428050667546941  0.5259528269814309  1.0000
  C   C32       1.0  0.8903198163478834  0.5596096265529057  0.48350102228497593  1.0000
  C   C33       1.0  0.1808122084017967  0.5072410426104028  0.5117155267594029  1.0000
  C   C34       1.0  0.820821589972425  0.4944829029568965  0.49747496813118625  1.0000
  C   C35       1.0  0.9952566352909925  0.5398575751453405  0.49308911110699666  1.0000
  C   C36       1.0  0.003281597432959398  0.4600181547615777  0.5140485051180474  1.0000
  C   C37       1.0  0.6859287432053945  0.7205431221518593  0.5872433902769599  1.0000
  C   C38       1.0  0.32688738608356976  0.2717361381422235  0.3977468709448998  1.0000
  C   C39       1.0  0.5516735484256117  0.33107639753047385  0.2505400234409336  1.0000
  C   C40       1.0  0.4479155928379441  0.6658500873954978  0.7377133718034656  1.0000
  S   S1        1.0  0.11790079131596802  0.5904432618438378  0.48644996792130246  1.0000
  S   S2        1.0  0.8821611508494984  0.4087989781831992  0.5211174950396253  1.0000
  N   N1        1.0  0.5277252094012824  0.7144964195045205  0.5074441637867791  1.0000
  N   N2        1.0  0.47591240260354795  0.2829366152540729  0.48777995891605735  1.0000
  N   N3        1.0  0.1349495671466485  0.36599562033845956  0.552803748210188  1.0000
  O   O1        1.0  0.5106512793872895  0.42613787401303677  0.3829832412605398  1.0000
  O   O2        1.0  0.48129479584289203  0.5609038204431727  0.3844132612490299  1.0000
  O   O3        1.0  0.3451580761430293  0.5821547396335234  0.5164309761412511  1.0000
  O   O4        1.0  0.3375777120687787  0.4431391761988195  0.4877235675023996  1.0000
  O   O5        1.0  0.5242407942600452  0.5689487712547389  0.611067861000869  1.0000
  O   O6        1.0  0.4817789958723467  0.432410007993191  0.6112305526728717  1.0000
  O   O7        1.0  0.6553459403276777  0.42452231242239685  0.5086314907203828  1.0000
  O   O8        1.0  0.6646121499911858  0.5568631050405768  0.4787349040311709  1.0000
  O   O9        1.0  0.07176186117552422  0.3052470429567719  0.5338500011183241  1.0000
  O   O10       1.0  0.21400940392028645  0.3649281389294146  0.5931961382092366  1.0000
