data_image0
_chemical_formula_structural       Cd2H30C30S4N14
_chemical_formula_sum              "Cd2 H30 C30 S4 N14"
_cell_length_a       9.343817516432033
_cell_length_b       10.207518181021447
_cell_length_c       10.473188661658355
_cell_angle_alpha    95.83531779634752
_cell_angle_beta     98.43980557613585
_cell_angle_gamma    109.81455427006145

_space_group_name_H-M_alt    "P 1"
_space_group_IT_number       1

loop_
  _space_group_symop_operation_xyz
  'x, y, z'

loop_
  _atom_site_type_symbol
  _atom_site_label
  _atom_site_symmetry_multiplicity
  _atom_site_fract_x
  _atom_site_fract_y
  _atom_site_fract_z
  _atom_site_occupancy
  Cd  Cd1       1.0  0.6336912910625189  0.3079401479709746  0.1181966626115383  1.0000
  Cd  Cd2       1.0  0.36630989884385207  0.6920627559932272  0.8818026016457948  1.0000
  H   H1        1.0  0.6544627266853099  0.6267831591277472  0.2558440469316992  1.0000
  H   H2        1.0  0.3455508196628402  0.37322083663082145  0.7441551705315134  1.0000
  H   H3        1.0  0.6980221879754326  0.7290988053421898  0.5203476085799821  1.0000
  H   H4        1.0  0.301989177376953  0.2709051813055297  0.4796522529498402  1.0000
  H   H5        1.0  0.6378089654307573  0.5600353339083101  0.7162282165244774  1.0000
  H   H6        1.0  0.36218951491280654  0.43996335377607215  0.2837683395423127  1.0000
  H   H7        1.0  0.725872101142251  0.4300954861922365  0.7057385259450015  1.0000
  H   H8        1.0  0.2741285297267027  0.5699032027794075  0.2942592907621417  1.0000
  H   H9        1.0  0.6998647209534637  0.8273179350497627  0.7448112182856902  1.0000
  H   H10       1.0  0.30013438227658173  0.1726796881227912  0.2551881866499528  1.0000
  H   H11       1.0  0.8466728341476114  0.08392443725193033  0.8208885820116834  1.0000
  H   H12       1.0  0.15332297473598544  0.9160731663866529  0.1791132175541037  1.0000
  H   H13       1.0  0.12794151189675776  0.17662403065599366  0.8983164729210954  1.0000
  H   H14       1.0  0.8720539817422266  0.8233756654878237  0.10168930658525714  1.0000
  H   H15       1.0  0.2804882071852219  0.018010564099398604  0.9104292129295501  1.0000
  H   H16       1.0  0.7195077464475688  0.9819901991557742  0.08957387185137826  1.0000
  H   H17       1.0  0.6486799244463696  0.19506430344286232  0.3875760827564747  1.0000
  H   H18       1.0  0.3513204521187419  0.8049364936811971  0.6124219044773083  1.0000
  H   H19       1.0  0.6269418790318896  0.23242311517841338  0.5504119137781842  1.0000
  H   H20       1.0  0.3730574146529335  0.7675776793461184  0.4495859193121632  1.0000
  H   H21       1.0  0.9081647422393786  0.32970038460834417  0.6303733013395599  1.0000
  H   H22       1.0  0.09183326287518415  0.6702972320528889  0.3696269018061287  1.0000
  H   H23       1.0  0.9446179149957316  0.33597987688433056  0.4707668648720541  1.0000
  H   H24       1.0  0.05538227111460267  0.6640177488877514  0.5292326942070247  1.0000
  H   H25       1.0  0.8393507036441789  0.07281694119942729  0.416813180900256  1.0000
  H   H26       1.0  0.16064798529764357  0.9271796265971591  0.5831860617003528  1.0000
  H   H27       1.0  0.7835568258908979  0.05976115345188053  0.571386340297586  1.0000
  H   H28       1.0  0.21643968205516034  0.940235405233857  0.42861354636963267  1.0000
  H   H29       1.0  0.9826118601903673  0.12563308174095061  0.5629309568671772  1.0000
  H   H30       1.0  0.017385331582943385  0.8743624280801401  0.43706796925496144  1.0000
  C   C1        1.0  0.6694793019012054  0.5761159492252973  0.3403483148393178  1.0000
  C   C2        1.0  0.3305320634511801  0.4238880374224224  0.6596515466904975  1.0000
  C   C3        1.0  0.690249468497015  0.628058885375566  0.4700866555799478  1.0000
  C   C4        1.0  0.309755908181316  0.37194086937015675  0.52991194003598  1.0000
  C   C5        1.0  0.7288941672819576  0.5317423679357561  0.6788761563038719  1.0000
  C   C6        1.0  0.2711079455203134  0.4682573750995971  0.3211229292352371  1.0000
  C   C7        1.0  0.9130033659277713  0.7802980017452442  0.7783030537001211  1.0000
  C   C8        1.0  0.08699433917737315  0.21970171133301628  0.2217001770326519  1.0000
  C   C9        1.0  0.825502724029235  0.8677262726659835  0.7754178191186013  1.0000
  C   C10       1.0  0.17449610966177437  0.13227345474718535  0.22458270869715588  1.0000
  C   C11       1.0  0.9082197491387874  0.010336503623293003  0.8194704405940811  1.0000
  C   C12       1.0  0.0917771426251051  0.989661102614818  0.18053151311514168  1.0000
  C   C13       1.0  0.07049029188029009  0.06370814458394142  0.8651210900779134  1.0000
  C   C14       1.0  0.9295063303445659  0.9362915658947912  0.13488198651142366  1.0000
  C   C15       1.0  0.15642839916020534  0.9767168335342902  0.8717160170586807  1.0000
  C   C16       1.0  0.8435686373528738  0.023283932320410403  0.12828722186569047  1.0000
  C   C17       1.0  0.0747056873586446  0.8322267063623772  0.8266468153713544  1.0000
  C   C18       1.0  0.9252935301502063  0.1677740686031726  0.1733557794864069  1.0000
  C   C19       1.0  0.6914140403333277  0.4079790209857635  0.4477778221788284  1.0000
  C   C20       1.0  0.308590667752938  0.5920217865364067  0.552220781628705  1.0000
  C   C21       1.0  0.7002489817284  0.27134303623325456  0.4787353344766672  1.0000
  C   C22       1.0  0.2997494833799763  0.7286556475393341  0.5212621739436045  1.0000
  C   C23       1.0  0.8653501381289531  0.27424737570292024  0.5288150297560819  1.0000
  C   C24       1.0  0.13464831174422193  0.7257513041578748  0.4711834310176712  1.0000
  C   C25       1.0  0.8680857255050043  0.12487641515307503  0.5192731307333743  1.0000
  C   C26       1.0  0.13191121196447134  0.8751212028204235  0.4807259659153971  1.0000
  C   C27       1.0  0.6829502436278218  0.6016800613455473  0.9823664149955461  1.0000
  C   C28       1.0  0.31704150036537027  0.3983207228058775  0.017628434383759408  1.0000
  C   C29       1.0  0.5437111819776774  0.03744149817199371  0.8446576454022221  1.0000
  C   C30       1.0  0.4562788591570312  0.9625550527401646  0.15533941169740473  1.0000
  S   S1        1.0  0.8206042071405122  0.5490913222571551  0.04398713380116699  1.0000
  S   S2        1.0  0.17939752947636123  0.45091049763624375  0.956019741092433  1.0000
  S   S3        1.0  0.6163300956153749  0.20835545342496434  0.8542072279665192  1.0000
  S   S4        1.0  0.3836636893485591  0.7916505997827203  0.1457903377949279  1.0000
  N   N1        1.0  0.6693301817856324  0.43986668929782274  0.32765694495866177  1.0000
  N   N2        1.0  0.3306775206376571  0.5601362341753386  0.672342291805812  1.0000
  N   N3        1.0  0.7045468882332386  0.5214144637014329  0.5374287222654247  1.0000
  N   N4        1.0  0.2954578198530272  0.47858634382073745  0.4625698815421018  1.0000
  N   N5        1.0  0.876931128645637  0.6380590831261657  0.7417180690328067  1.0000
  N   N6        1.0  0.1230694412825386  0.3619395901982969  0.2582835570882763  1.0000
  N   N7        1.0  0.0045460091931702655  0.6033880311586728  0.7649389032309201  1.0000
  N   N8        1.0  0.9954565026621297  0.3966127633408477  0.2350612969966974  1.0000
  N   N9        1.0  0.12263743561134534  0.718349653994217  0.8162636898567257  1.0000
  N   N10       1.0  0.877362895248183  0.2816511313944546  0.1837371544375088  1.0000
  N   N11       1.0  0.5875039038852279  0.6441943078297926  0.9356058767940568  1.0000
  N   N12       1.0  0.41249821182532304  0.3558001400539865  0.064398419477655  1.0000
  N   N13       1.0  0.4925717819160269  0.913139643767117  0.837493856775083  1.0000
  N   N14       1.0  0.5074251878397078  0.08687169674352901  0.1625027700980084  1.0000
