data_image0
_chemical_formula_structural       Zn2H44C52N2O12
_chemical_formula_sum              "Zn2 H44 C52 N2 O12"
_cell_length_a       13.944413675046325
_cell_length_b       15.33680246918768
_cell_length_c       19.633890307231137
_cell_angle_alpha    90.50108749054208
_cell_angle_beta     89.98993135480208
_cell_angle_gamma    90.1570031580988

_space_group_name_H-M_alt    "P 1"
_space_group_IT_number       1

loop_
  _space_group_symop_operation_xyz
  'x, y, z'

loop_
  _atom_site_type_symbol
  _atom_site_label
  _atom_site_symmetry_multiplicity
  _atom_site_fract_x
  _atom_site_fract_y
  _atom_site_fract_z
  _atom_site_occupancy
  Zn  Zn1       1.0  0.400107613274578  0.5000688760514507  0.5001263167810988  1.0000
  Zn  Zn2       1.0  0.5985035151008802  0.5001427260602824  0.5000028208480172  1.0000
  H   H1        1.0  0.6557676200695611  0.4831725207614567  0.2837855604130936  1.0000
  H   H2        1.0  0.6420344743918848  0.061932059688217606  0.5350431573863119  1.0000
  H   H3        1.0  0.3508199580182065  0.0576592992476463  0.4618900091378605  1.0000
  H   H4        1.0  0.6418838999919956  0.9390101744945127  0.46348490597933517  1.0000
  H   H5        1.0  0.3499648927676803  0.7791057929186778  0.5368283275973836  1.0000
  H   H6        1.0  0.640312680607032  0.22460490788741075  0.5328247043087089  1.0000
  H   H7        1.0  0.3493355742764592  0.2202086229893041  0.46293795618004896  1.0000
  H   H8        1.0  0.6406739412699312  0.776332102201806  0.46637272629673265  1.0000
  H   H9        1.0  0.931477623374974  0.5541598604810005  0.6021140856986233  1.0000
  H   H10       1.0  0.0667948974747503  0.3768510824098925  0.4455886999495674  1.0000
  H   H11       1.0  0.9312239813008746  0.44570731515156575  0.3979869444922598  1.0000
  H   H12       1.0  0.3511871840287456  0.5108006520504631  0.7141257152774327  1.0000
  H   H13       1.0  0.0674105063683541  0.6233889593182058  0.5543362461853005  1.0000
  H   H14       1.0  0.7511295046370636  0.5518885610908768  0.5973932295151625  1.0000
  H   H15       1.0  0.24697497851123273  0.38220835315643603  0.4484691885223881  1.0000
  H   H16       1.0  0.7508930677462049  0.4483304096613948  0.4026070521349111  1.0000
  H   H17       1.0  0.24759530312579872  0.6181234859884981  0.5514332471876384  1.0000
  H   H18       1.0  0.7626317231359183  0.41510664266699837  0.20698043919970383  1.0000
  H   H19       1.0  0.7712670949272394  0.5312590618267234  0.21289118552176228  1.0000
  H   H20       1.0  0.8343392309623354  0.5370884261264522  0.09324978405372518  1.0000
  H   H21       1.0  0.9077664860120508  0.46825807601501174  0.14405673600343494  1.0000
  H   H22       1.0  0.8238193345485386  0.42180120241131647  0.08555127207847588  1.0000
  H   H23       1.0  0.6568985392422205  0.49145336450989413  0.7161377241869712  1.0000
  H   H24       1.0  0.23314012620780744  0.46678946398846216  0.7838845453457493  1.0000
  H   H25       1.0  0.24513577348873383  0.582703215845001  0.7889060628533142  1.0000
  H   H26       1.0  0.17961234431322745  0.5797878352130326  0.9091167511236687  1.0000
  H   H27       1.0  0.0965044418528862  0.5338710463759142  0.8497574209635912  1.0000
  H   H28       1.0  0.16620950280737656  0.4645964829601397  0.9027796168608899  1.0000
  H   H29       1.0  0.773473167080887  0.5369270310089719  0.7884702428742327  1.0000
  H   H30       1.0  0.7614726458347081  0.42093588101783297  0.7911596920861041  1.0000
  H   H31       1.0  0.8228165255907671  0.42296690288507927  0.9124777988964677  1.0000
  H   H32       1.0  0.9079730640615082  0.46936062757541924  0.8554785416310363  1.0000
  H   H33       1.0  0.8362718890331208  0.5381820414292804  0.9085087538445789  1.0000
  H   H34       1.0  0.3516381568178488  0.5166345361978201  0.2860928453097172  1.0000
  H   H35       1.0  0.24412630024781382  0.5854406518025713  0.21120065037734287  1.0000
  H   H36       1.0  0.23429553766555963  0.4695242863445869  0.2164980210354486  1.0000
  H   H37       1.0  0.16708400969198323  0.4628366937949265  0.09796253908299238  1.0000
  H   H38       1.0  0.09644006861348232  0.5332007119329063  0.15049933360737808  1.0000
  H   H39       1.0  0.17885871995599706  0.5779211069290895  0.09071610312415147  1.0000
  H   H40       1.0  0.4426339628501239  0.6295147560992334  0.06447902494078757  1.0000
  H   H41       1.0  0.5596578992386371  0.3709562834762252  0.935492945391388  1.0000
  H   H42       1.0  0.44285041999374636  0.6302516145905486  0.9381435662658286  1.0000
  H   H43       1.0  0.559665947389334  0.37024702174367957  0.06181473653912658  1.0000
  H   H44       1.0  0.3509582966474198  0.9416577157668868  0.5373077652200279  1.0000
  C   C1        1.0  0.49408514620222377  0.670482068677984  0.501723570400756  1.0000
  C   C2        1.0  0.49639077016663447  0.0481419825971798  0.4987820986412216  1.0000
  C   C3        1.0  0.8945806336154547  0.5309390664663383  0.5564913471742796  1.0000
  C   C4        1.0  0.10377997663924533  0.4320350121284804  0.4691794282593803  1.0000
  C   C5        1.0  0.8944277784165635  0.4690550725688283  0.44357512551160727  1.0000
  C   C6        1.0  0.1041216201612514  0.568171486776066  0.5308114628690815  1.0000
  C   C7        1.0  0.7950115719283275  0.5297236974800086  0.5546217941582084  1.0000
  C   C8        1.0  0.20336625216001641  0.4341813167627677  0.470549957599651  1.0000
  C   C9        1.0  0.7948777369425175  0.47044174406263284  0.4453826278420647  1.0000
  C   C10       1.0  0.20369781007556753  0.5660759229884746  0.5294395641966003  1.0000
  C   C11       1.0  0.9463619545364353  0.5000062415582534  0.5000381399581996  1.0000
  C   C12       1.0  0.49366209147897433  0.3297015467607736  0.4983417695115689  1.0000
  C   C13       1.0  0.052073998004104304  0.5000638685028561  0.5000146328511831  1.0000
  C   C14       1.0  0.5049198957090298  0.5009130485799815  0.6332192467156614  1.0000
  C   C15       1.0  0.5045837612576207  0.4997801493994629  0.3669304134398884  1.0000
  C   C16       1.0  0.5897913012441054  0.4899673841805665  0.25492657953864745  1.0000
  C   C17       1.0  0.4166585183054893  0.5074599798122321  0.7439805202739718  1.0000
  C   C18       1.0  0.5906113205387412  0.495670168970868  0.7450451112332812  1.0000
  C   C19       1.0  0.4167117844454751  0.5092311747128591  0.25617126722004707  1.0000
  C   C20       1.0  0.5885978681780202  0.49031272082633137  0.18375325394572425  1.0000
  C   C21       1.0  0.41623258690403736  0.508049878494596  0.8152146599242084  1.0000
  C   C22       1.0  0.5892004135827592  0.4950347147445555  0.8162394619644998  1.0000
  C   C23       1.0  0.41353499226907087  0.8150778001139473  0.5210026938437691  1.0000
  C   C24       1.0  0.41625934991962055  0.5087269543390319  0.18495222853032084  1.0000
  C   C25       1.0  0.5019627403346335  0.499529810518304  0.1473964434322923  1.0000
  C   C26       1.0  0.5022007235151165  0.5013566428900731  0.852624738946197  1.0000
  C   C27       1.0  0.5036744037125658  0.49965721315153644  0.29067136343300587  1.0000
  C   C28       1.0  0.5040628370037652  0.5014436474875765  0.7094425829344427  1.0000
  C   C29       1.0  0.46815460898378813  0.5726079949043169  0.03621119609887559  1.0000
  C   C30       1.0  0.5340834210522657  0.4278344798114802  0.9637953134869546  1.0000
  C   C31       1.0  0.4682431270952776  0.5730386404672673  0.9653033695951121  1.0000
  C   C32       1.0  0.534047984868792  0.427412318952733  0.034692470720308684  1.0000
  C   C33       1.0  0.5013628835777268  0.5007268658519735  0.9280729940426722  1.0000
  C   C34       1.0  0.5774592285626667  0.186999748674566  0.5173541532057084  1.0000
  C   C35       1.0  0.5012295784556429  0.4998335973063348  0.07196344352696117  1.0000
  C   C36       1.0  0.4142046938655639  0.9057143379807897  0.5205029498612816  1.0000
  C   C37       1.0  0.5781749639791302  0.09632628766819812  0.5179290915253529  1.0000
  C   C38       1.0  0.41401486119554687  0.09399492688287839  0.4786738481893023  1.0000
  C   C39       1.0  0.5782063223392981  0.9042445445939222  0.48086760051764793  1.0000
  C   C40       1.0  0.7605063788144405  0.47594456232106114  0.17722422392792225  1.0000
  C   C41       1.0  0.8360904469622029  0.4757678438104165  0.12166789213073056  1.0000
  C   C42       1.0  0.24442112283258413  0.5223167511774136  0.8192399917066238  1.0000
  C   C43       1.0  0.1671367103874815  0.5252918808092274  0.873536694870189  1.0000
  C   C44       1.0  0.7610257647789781  0.4810484368656347  0.8226002905246117  1.0000
  C   C45       1.0  0.4130817261152445  0.1846378428036033  0.47851544571787474  1.0000
  C   C46       1.0  0.836505130589032  0.47773548150824746  0.8781345777690175  1.0000
  C   C47       1.0  0.24453921367315698  0.5242976701291865  0.18100897763763155  1.0000
  C   C48       1.0  0.16716338060027178  0.524548764720059  0.12673816116819836  1.0000
  C   C49       1.0  0.5777688410443389  0.8135644910044703  0.48180979227807075  1.0000
  C   C50       1.0  0.4952439742013938  0.7680592499761048  0.501648825551072  1.0000
  C   C51       1.0  0.4947292950909202  0.23210689660352551  0.4979314773081993  1.0000
  C   C52       1.0  0.4964295987020862  0.9520022314933245  0.5000727219393679  1.0000
  N   N1        1.0  0.7462811461345212  0.5001573784248805  0.49997198775471907  1.0000
  N   N2        1.0  0.25222180958186163  0.500119221899304  0.5000290255174064  1.0000
  O   O1        1.0  0.413823978859007  0.6332363682153925  0.5132952426557009  1.0000
  O   O2        1.0  0.3343438932353707  0.5131006708294024  0.8536291272725048  1.0000
  O   O3        1.0  0.6700805021993049  0.4900371222152203  0.8556913304363645  1.0000
  O   O4        1.0  0.3345531857324033  0.5153524975198067  0.14658827048210543  1.0000
  O   O5        1.0  0.5729256800201128  0.3683705982559502  0.5101338092485433  1.0000
  O   O6        1.0  0.4135039519275666  0.3669294826951699  0.4870449291735424  1.0000
  O   O7        1.0  0.5732063235174891  0.6318485827739836  0.49004088159061593  1.0000
  O   O8        1.0  0.4253190173182305  0.487628616274044  0.6029538677956905  1.0000
  O   O9        1.0  0.5847144494233589  0.48538344537963235  0.39619425438217337  1.0000
  O   O10       1.0  0.4254164590008074  0.5142143327332107  0.39739253210633746  1.0000
  O   O11       1.0  0.5854577989430325  0.513692692992052  0.6039408571192695  1.0000
  O   O12       1.0  0.6694050088808795  0.48360105348604077  0.14428089733318214  1.0000
