data_image0
_chemical_formula_structural       Zn6H90C66Br6N12O12
_chemical_formula_sum              "Zn6 H90 C66 Br6 N12 O12"
_cell_length_a       10.470261427000109
_cell_length_b       17.74548662698951
_cell_length_c       17.745210259625026
_cell_angle_alpha    120.00254993158252
_cell_angle_beta     90.0000104095808
_cell_angle_gamma    89.99998372259176

_space_group_name_H-M_alt    "P 1"
_space_group_IT_number       1

loop_
  _space_group_symop_operation_xyz
  'x, y, z'

loop_
  _atom_site_type_symbol
  _atom_site_label
  _atom_site_symmetry_multiplicity
  _atom_site_fract_x
  _atom_site_fract_y
  _atom_site_fract_z
  _atom_site_occupancy
  Zn  Zn1       1.0  0.7334658072003394  0.5440376962543212  0.07514953182997168  1.0000
  Zn  Zn2       1.0  0.5668455089126282  0.07514388907934935  0.5310284842113829  1.0000
  Zn  Zn3       1.0  0.40019625347508747  0.5311026646355543  0.4559398800324104  1.0000
  Zn  Zn4       1.0  0.2334660274615317  0.4559628802652754  0.9248504536946242  1.0000
  Zn  Zn5       1.0  0.06684536282531892  0.9248563874167887  0.46897182147827  1.0000
  Zn  Zn6       1.0  0.9001962138886556  0.4688975612032778  0.5440604360383716  1.0000
  H   H1        1.0  0.8401700720567078  0.47446204277957094  0.926328825581727  1.0000
  H   H2        1.0  0.673569465467672  0.9263082655365976  0.45185406346644175  1.0000
  H   H3        1.0  0.5069242774044085  0.4518646513187718  0.5255547768149568  1.0000
  H   H4        1.0  0.340170951628707  0.5255379539780237  0.073670599713232  1.0000
  H   H5        1.0  0.17356975381940742  0.07369143119455406  0.5481456819941853  1.0000
  H   H6        1.0  0.006924314487186201  0.5481345071897082  0.4744443999034332  1.0000
  H   H7        1.0  0.616014242960901  0.4737181627181855  0.8439388528982902  1.0000
  H   H8        1.0  0.4493544408178279  0.8439635311733298  0.3702554584532365  1.0000
  H   H9        1.0  0.2827350525828222  0.3702601885540773  0.5262956649889289  1.0000
  H   H10       1.0  0.116014192473834  0.5262813045563277  0.15606000186344463  1.0000
  H   H11       1.0  0.9493545783510129  0.15603612364846245  0.6297442955958131  1.0000
  H   H12       1.0  0.7827349138340197  0.629739729790856  0.47370497277780976  1.0000
  H   H13       1.0  0.5921390328509446  0.322903803537997  0.799407134902445  1.0000
  H   H14       1.0  0.42551361143130617  0.7994465696241448  0.47652628977814954  1.0000
  H   H15       1.0  0.25879390971002886  0.47652107383704845  0.6771020428530291  1.0000
  H   H16       1.0  0.0921389234305323  0.6770959055676756  0.2005926080222906  1.0000
  H   H17       1.0  0.9255136947754182  0.200553652367347  0.5234740270810575  1.0000
  H   H18       1.0  0.7587937756868542  0.5234788481460698  0.32289859416813727  1.0000
  H   H19       1.0  0.7408306658815675  0.24323655813733325  0.8421333419218299  1.0000
  H   H20       1.0  0.5741660687442192  0.8421457653087997  0.5989810694982366  1.0000
  H   H21       1.0  0.4075055565679691  0.5989343009476258  0.7568097427735336  1.0000
  H   H22       1.0  0.24083050491743307  0.7567631283725761  0.15786640563342044  1.0000
  H   H23       1.0  0.0741662712197737  0.1578536211843229  0.40101899822069237  1.0000
  H   H24       1.0  0.9075054569577575  0.40106624912423433  0.24319024817096138  1.0000
  H   H25       1.0  0.6495387671770558  0.3192432477080514  0.932700899108205  1.0000
  H   H26       1.0  0.4828502776629122  0.9327185970316519  0.6134820233966493  1.0000
  H   H27       1.0  0.31622224277322897  0.6134892083272517  0.6807735411089053  1.0000
  H   H28       1.0  0.14953957000994222  0.6807564526748565  0.06729884560406411  1.0000
  H   H29       1.0  0.982850383012675  0.06728161624673126  0.3865182952481233  1.0000
  H   H30       1.0  0.8162221736024617  0.38651103027260103  0.3192267723467737  1.0000
  H   H31       1.0  0.8107171616282614  0.34265748680876834  0.9236115768816119  1.0000
  H   H32       1.0  0.6440535085741103  0.9236393912102655  0.581008082982002  1.0000
  H   H33       1.0  0.47740351375358614  0.5809565121341933  0.6573718098327532  1.0000
  H   H34       1.0  0.31071797854119154  0.6573430779713689  0.07638841104873963  1.0000
  H   H35       1.0  0.1440537558463362  0.07636087355299989  0.4189922251120492  1.0000
  H   H36       1.0  0.9774034361206746  0.4190437019719226  0.34262850864239164  1.0000
  H   H37       1.0  0.8744891824495156  0.36282273592296127  0.7875814581681694  1.0000
  H   H38       1.0  0.7078236537472408  0.7875421364862234  0.4247546065541527  1.0000
  H   H39       1.0  0.5411698643852035  0.42477544456189525  0.6372045177268005  1.0000
  H   H40       1.0  0.3744900509894364  0.6371774938223496  0.21241885710205816  1.0000
  H   H41       1.0  0.2078229285124991  0.21245844393013164  0.5752453781718855  1.0000
  H   H42       1.0  0.0411698540174754  0.575223946945478  0.36279554896457  1.0000
  H   H43       1.0  0.7488657559190272  0.3677678341413395  0.7226972630386468  1.0000
  H   H44       1.0  0.5821639500018208  0.7226903260453315  0.3549405157352011  1.0000
  H   H45       1.0  0.4155493303541036  0.3549527965756241  0.6322462681412161  1.0000
  H   H46       1.0  0.24886569174675094  0.6322324146942719  0.27730304831943897  1.0000
  H   H47       1.0  0.0821641701214801  0.2773102734666963  0.6450594650775939  1.0000
  H   H48       1.0  0.9155491515863547  0.6450479904768543  0.3677546119602936  1.0000
  H   H49       1.0  0.786729208181086  0.2673124337386383  0.7167232672554248  1.0000
  H   H50       1.0  0.62003694584714  0.7166935154611949  0.4494229514150944  1.0000
  H   H51       1.0  0.45340224611761215  0.4494146544391313  0.7327118274574074  1.0000
  H   H52       1.0  0.28672909745545644  0.7326875711401116  0.28327615637527254  1.0000
  H   H53       1.0  0.1200361788809445  0.28330675295180185  0.5505773559310183  1.0000
  H   H54       1.0  0.9534011268159689  0.5505855633143852  0.2672884902702819  1.0000
  H   H55       1.0  0.6842464917096506  0.5664502311731995  0.667882900722425  1.0000
  H   H56       1.0  0.517565728125831  0.6679397209887341  0.10147369274863385  1.0000
  H   H57       1.0  0.35092633254890876  0.10141808781484937  0.43346671648299656  1.0000
  H   H58       1.0  0.18424654014059166  0.43355002748219823  0.3321174086233043  1.0000
  H   H59       1.0  0.017565999965619  0.3320605629961193  0.8985266114063675  1.0000
  H   H60       1.0  0.8509251378022  0.8985815819645636  0.5665330345008072  1.0000
  H   H61       1.0  0.03318159062549599  0.4710991625983851  0.6922038166927251  1.0000
  H   H62       1.0  0.8665073622208296  0.6922087124496129  0.22109279675517968  1.0000
  H   H63       1.0  0.6997924881366373  0.22110762994561378  0.5288746711869264  1.0000
  H   H64       1.0  0.5331814493370075  0.5289020079039802  0.3077967261472736  1.0000
  H   H65       1.0  0.3665076088961712  0.30779151850868647  0.7789075182664715  1.0000
  H   H66       1.0  0.19979241303030185  0.7788926263473641  0.471125638642924  1.0000
  H   H67       1.0  0.6269012304361253  0.616831557494912  0.8228291511638021  1.0000
  H   H68       1.0  0.46023476019507115  0.8228561345510387  0.20600011823919573  1.0000
  H   H69       1.0  0.2934711917080648  0.20599328439160297  0.3831318943961222  1.0000
  H   H70       1.0  0.12690221048342207  0.3831687098748375  0.1771711563961063  1.0000
  H   H71       1.0  0.9602349381686467  0.1771440821640837  0.7940001997012941  1.0000
  H   H72       1.0  0.7934710179346142  0.7940069576656016  0.6168684183510464  1.0000
  H   H73       1.0  0.992073611142054  0.5169053863867105  0.847563935141444  1.0000
  H   H74       1.0  0.8254033059284469  0.8475665585709677  0.33065330893106176  1.0000
  H   H75       1.0  0.6586206078457408  0.3306265054593922  0.48307168708625164  1.0000
  H   H76       1.0  0.4920745354293388  0.48309482548999944  0.15243638379057234  1.0000
  H   H77       1.0  0.3254026386040039  0.15243311508699267  0.6693464412579216  1.0000
  H   H78       1.0  0.15861964452602  0.6693737570902911  0.5169286214614244  1.0000
  H   H79       1.0  0.6829533360890211  0.6263782907087715  0.9615746355195467  1.0000
  H   H80       1.0  0.5163431833321753  0.9616119204085153  0.33522783287641295  1.0000
  H   H81       1.0  0.3496645984167799  0.3352501528399117  0.37364632929293856  1.0000
  H   H82       1.0  0.1829542779864823  0.373621404596321  0.03842511023331951  1.0000
  H   H83       1.0  0.0163425695390771  0.03838780021543193  0.6647719076878927  1.0000
  H   H84       1.0  0.8496654449209657  0.6647483900375735  0.6263522945463932  1.0000
  H   H85       1.0  0.8488670576396304  0.6251140534080264  0.9837525565482748  1.0000
  H   H86       1.0  0.6822731358890622  0.9838034141534494  0.35866696613911125  1.0000
  H   H87       1.0  0.5155687599447916  0.3586405465687079  0.3748962269070119  1.0000
  H   H88       1.0  0.3488670370089437  0.37488529134046183  0.016247519725325836  1.0000
  H   H89       1.0  0.18227348065084933  0.01619651945803472  0.6413336684990724  1.0000
  H   H90       1.0  0.0155687985366768  0.6413589359698904  0.6251026247266793  1.0000
  C   C1        1.0  0.5293831862845977  0.4640634860063244  0.9459554312478742  1.0000
  C   C2        1.0  0.3627625172521434  0.9460064252530956  0.4819434444143551  1.0000
  C   C3        1.0  0.19604282695116382  0.4819299953458084  0.5359542664960342  1.0000
  C   C4        1.0  0.0293840548001469  0.5359356690891488  0.05404374616993823  1.0000
  C   C5        1.0  0.8627626695318825  0.05399291738377338  0.518056632291973  1.0000
  C   C6        1.0  0.696042739022772  0.5180696979702334  0.46404547966444903  1.0000
  C   C7        1.0  0.6473802342447783  0.4515466621833467  0.8890366002738188  1.0000
  C   C8        1.0  0.48077963464601237  0.8890546851386675  0.43751842055137047  1.0000
  C   C9        1.0  0.31409910861977147  0.4375311835167964  0.5484750794362512  1.0000
  C   C10       1.0  0.1473811142675316  0.5484533638713458  0.11096281901733113  1.0000
  C   C11       1.0  0.9807807282632834  0.110945203110532  0.5624822233828438  1.0000
  C   C12       1.0  0.8140989954447946  0.5624681665151741  0.4515249957546104  1.0000
  C   C13       1.0  0.6818674489105588  0.3544067227238943  0.8322807658041355  1.0000
  C   C14       1.0  0.5152687647230038  0.832293975461049  0.4779061417696297  1.0000
  C   C15       1.0  0.34853091888311377  0.4779085457607408  0.645619373523317  1.0000
  C   C16       1.0  0.18186829962380813  0.6455929727462221  0.16771897991490908  1.0000
  C   C17       1.0  0.015268999756806102  0.16770630887285887  0.5220941623138416  1.0000
  C   C18       1.0  0.8485298401423761  0.5220916879294322  0.35438094093849765  1.0000
  C   C19       1.0  0.7233143787773599  0.31295513464831964  0.8859143951562414  1.0000
  C   C20       1.0  0.556674609382405  0.8859305039254793  0.5730462456927228  1.0000
  C   C21       1.0  0.38998736484698077  0.5730010279330245  0.687094429013058  1.0000
  C   C22       1.0  0.2233142379104152  0.6870445545234319  0.11408535185351802  1.0000
  C   C23       1.0  0.0566748409417954  0.11406944877246873  0.42695438503410077  1.0000
  C   C24       1.0  0.8899872742237418  0.4269986359104436  0.312905323187195  1.0000
  C   C25       1.0  0.7788535589684857  0.33783452202109754  0.7611705435633738  1.0000
  C   C26       1.0  0.6121842141141797  0.7611449198785394  0.42335118540938754  1.0000
  C   C27       1.0  0.44552851262748316  0.42336339892279545  0.6621913905374582  1.0000
  C   C28       1.0  0.2788534685219942  0.6621651587106926  0.23882920517597486  1.0000
  C   C29       1.0  0.11218347659523432  0.2388553497277925  0.5766491216921849  1.0000
  C   C30       1.0  0.9455283575899073  0.5766362564804197  0.33780836339243325  1.0000
  C   C31       1.0  0.7490739171882835  0.5570768496795466  0.7105121548876453  1.0000
  C   C32       1.0  0.5824208400134481  0.7105699827236407  0.15346018281717727  1.0000
  C   C33       1.0  0.4157776152720274  0.15339620971508341  0.44281340285215254  1.0000
  C   C34       1.0  0.24907490305505317  0.4429239626711023  0.2894887200295456  1.0000
  C   C35       1.0  0.0824211163724442  0.2894306167493427  0.8465397980036115  1.0000
  C   C36       1.0  0.9157773977716699  0.8466040137559504  0.5571869137038518  1.0000
  C   C37       1.0  0.9441129974228843  0.5027461884868387  0.723851254552059  1.0000
  C   C38       1.0  0.7774532267202827  0.723868110575367  0.2210920048177484  1.0000
  C   C39       1.0  0.6107192536689751  0.2211036250793796  0.4972348741540883  1.0000
  C   C40       1.0  0.44411395300619455  0.49725459422490564  0.2761496264389861  1.0000
  C   C41       1.0  0.2774525335616858  0.2761315703692731  0.7789077438779869  1.0000
  C   C42       1.0  0.110718233223281  0.7788966447495937  0.502765432901853  1.0000
  C   C43       1.0  0.718231331958073  0.5846626433159373  0.7967654393703253  1.0000
  C   C44       1.0  0.5516059338883538  0.7968334142003285  0.21209508952878758  1.0000
  C   C45       1.0  0.38481179892702505  0.2120934407395723  0.4152881448505211  1.0000
  C   C46       1.0  0.21823230453865244  0.41533761017492316  0.20323487103376436  1.0000
  C   C47       1.0  0.05160623373843261  0.20316686461163877  0.7879052156862868  1.0000
  C   C48       1.0  0.8848116181846636  0.7879062238903958  0.5847116071885522  1.0000
  C   C49       1.0  0.8038032279826055  0.5688756800456147  0.8478293944804773  1.0000
  C   C50       1.0  0.6371997832169071  0.8478982075334687  0.27892625677348787  1.0000
  C   C51       1.0  0.4703750738405789  0.27895462608520916  0.43110904132860367  1.0000
  C   C52       1.0  0.30380322213854777  0.4311245604414752  0.1521709185884532  1.0000
  C   C53       1.0  0.1372000870758754  0.1521014947245618  0.7210734875545198  1.0000
  C   C54       1.0  0.9703739653476332  0.7210447873393164  0.5688898244685274  1.0000
  C   C55       1.0  0.9199178111198378  0.5286060725372081  0.8102435213664733  1.0000
  C   C56       1.0  0.7532733032247662  0.8102653769146785  0.28160723002488897  1.0000
  C   C57       1.0  0.5864485899333545  0.2816287450369614  0.47139827465025513  1.0000
  C   C58       1.0  0.4199177974565699  0.4713944756484238  0.18975646996456413  1.0000
  C   C59       1.0  0.2532735881282591  0.18973430770436284  0.7183925179178486  1.0000
  C   C60       1.0  0.08644760660588699  0.7183715284802761  0.5286020316498536  1.0000
  C   C61       1.0  0.7713484602861341  0.5881162553147234  0.9384618329668796  1.0000
  C   C62       1.0  0.6047631420056659  0.9385051279723342  0.35035535201673434  1.0000
  C   C63       1.0  0.4380520785226665  0.35037361575433584  0.4119127910964905  1.0000
  C   C64       1.0  0.27134843578630813  0.4118839901043217  0.06153847909135382  1.0000
  C   C65       1.0  0.10476346750602518  0.061494579214894485  0.6496443913011446  1.0000
  C   C66       1.0  0.9380519654360454  0.6496258025820368  0.5880860736940646  1.0000
  Br  Br1       1.0  0.7525751995954196  0.4448097377358877  0.12712394936104937  1.0000
  Br  Br2       1.0  0.5854859328675772  0.1275054419700225  0.6822834783286139  1.0000
  Br  Br3       1.0  0.41907637215565785  0.6823254165421204  0.5549740747751385  1.0000
  Br  Br4       1.0  0.2525753560402606  0.5551905105360008  0.8728763621125566  1.0000
  Br  Br5       1.0  0.0854867204878289  0.8724945934903874  0.31771593903503975  1.0000
  Br  Br6       1.0  0.9190763749065881  0.317674806427604  0.4450262418836032  1.0000
  N   N1        1.0  0.7543937939569573  0.5071507816953299  0.9427588287302198  1.0000
  N   N2        1.0  0.5877998718477144  0.9427577353833955  0.4356092216563994  1.0000
  N   N3        1.0  0.42113081197281577  0.4356457693297813  0.49288209166316216  1.0000
  N   N4        1.0  0.2543946842144749  0.4928489027533942  0.057240919247426775  1.0000
  N   N5        1.0  0.0878001731292386  0.057241649037870046  0.5643908464871216  1.0000
  N   N6        1.0  0.9211316701042164  0.5643538897809323  0.5071176615069602  1.0000
  N   N7        1.0  0.859276518502  0.5156139625241848  0.6740091414923339  1.0000
  N   N8        1.0  0.6925938388597004  0.6740286953444325  0.15839486218786894  1.0000
  N   N9        1.0  0.525940103807848  0.1583460830797848  0.484290441506701  1.0000
  N   N10       1.0  0.359277495641237  0.48438626953289804  0.3259911733041533  1.0000
  N   N11       1.0  0.1925940960948509  0.3259709984957056  0.8416048838652088  1.0000
  N   N12       1.0  0.0259390571173554  0.8416536360858089  0.515709299356466  1.0000
  O   O1        1.0  0.5343475688879026  0.5176276988750246  0.027647417972957663  1.0000
  O   O2        1.0  0.367676660191222  0.027688379334982558  0.5100052418521627  1.0000
  O   O3        1.0  0.2009576844317706  0.5100380996930556  0.4823814608890018  1.0000
  O   O4        1.0  0.03434874614827519  0.4823720190127645  0.9723523231520658  1.0000
  O   O5        1.0  0.8676782716012001  0.9723112878987762  0.4899945096533214  1.0000
  O   O6        1.0  0.7009576265506396  0.4899621564228625  0.5176188489771434  1.0000
  O   O7        1.0  0.4325670790325802  0.41967361230005196  0.9055187474246578  1.0000
  O   O8        1.0  0.26595787692206585  0.9056010598852495  0.4859701216286466  1.0000
  O   O9        1.0  0.09924964318829407  0.4858884018614591  0.5803648378336349  1.0000
  O   O10       1.0  0.9325678023317324  0.5803254815260104  0.09448044254900619  1.0000
  O   O11       1.0  0.7659589635821576  0.09439797211859263  0.5140302774169426  1.0000
  O   O12       1.0  0.5992485883975149  0.5141121079134692  0.41963635777163677  1.0000
