data_image0
_chemical_formula_structural       H24Rh4C16Cl2O16
_chemical_formula_sum              "H24 Rh4 C16 Cl2 O16"
_cell_length_a       7.5542264954739515
_cell_length_b       7.554261916190436
_cell_length_c       12.50297667879658
_cell_angle_alpha    93.56522607449904
_cell_angle_beta     93.56626219202064
_cell_angle_gamma    107.85821391762781

_space_group_name_H-M_alt    "P 1"
_space_group_IT_number       1

loop_
  _space_group_symop_operation_xyz
  'x, y, z'

loop_
  _atom_site_type_symbol
  _atom_site_label
  _atom_site_symmetry_multiplicity
  _atom_site_fract_x
  _atom_site_fract_y
  _atom_site_fract_z
  _atom_site_occupancy
  H   H1        1.0  0.7675662007110019  0.5468169476558629  0.7079165460551381  1.0000
  H   H2        1.0  0.45399275552813384  0.23151367852972266  0.7925143883013633  1.0000
  H   H3        1.0  0.23150324132665653  0.4539896369655168  0.2925192348889993  1.0000
  H   H4        1.0  0.5468140959522786  0.767570335499606  0.20791802058829495  1.0000
  H   H5        1.0  0.5777048342160854  0.6001797152488919  0.6405689474074094  1.0000
  H   H6        1.0  0.40132782068185696  0.4224546577902756  0.8591307134508953  1.0000
  H   H7        1.0  0.4224633234955704  0.4013361962917657  0.3591257849412557  1.0000
  H   H8        1.0  0.6001856058330404  0.5777150387052288  0.1405719832064918  1.0000
  H   H9        1.0  0.7933279491974333  0.6385788686460147  0.5810701207770705  1.0000
  H   H10       1.0  0.3623300817526882  0.20744023821984572  0.9194305138929764  1.0000
  H   H11       1.0  0.20745860607993902  0.3623269688785983  0.4194360272927398  1.0000
  H   H12       1.0  0.6385863894313815  0.7933419658846786  0.0810734978091077  1.0000
  H   H13       1.0  0.6133803676491639  0.1530668883806712  0.152677983844498  1.0000
  H   H14       1.0  0.8457090240423782  0.386192827047921  0.34714369109964593  1.0000
  H   H15       1.0  0.38620010950528894  0.8456978053638482  0.8471402714035179  1.0000
  H   H16       1.0  0.15306869565165473  0.6133900965766587  0.6526776076903076  1.0000
  H   H17       1.0  0.4366055011929575  0.2594081745949098  0.18270952204526483  1.0000
  H   H18       1.0  0.7389074475960768  0.5622660090846949  0.3164689602446202  1.0000
  H   H19       1.0  0.5622597211574815  0.7388826209980977  0.8164591003110858  1.0000
  H   H20       1.0  0.25938110114440605  0.4365896746801711  0.6827039662200889  1.0000
  H   H21       1.0  0.3696765116924681  0.022188297509529803  0.1362827061090925  1.0000
  H   H22       1.0  0.9758627290972656  0.6301961095779874  0.36357832708423393  1.0000
  H   H23       1.0  0.6302096431763715  0.9758363019677533  0.8635717741969628  1.0000
  H   H24       1.0  0.022162907674456292  0.36969710700863356  0.6362780844485485  1.0000
  Rh  Rh1       1.0  0.6568715159935009  0.000345248530322799  0.4938255450290043  1.0000
  Rh  Rh2       1.0  0.0005963182265134481  0.3429344847907175  0.006298033544041507  1.0000
  Rh  Rh3       1.0  0.34293384964916385  0.0005946415618112013  0.5062977866551819  1.0000
  Rh  Rh4       1.0  0.00034476853382872674  0.6568716282790491  0.9938263108849199  1.0000
  C   C1        1.0  0.6227336050404731  0.3523643002883787  0.576139579246643  1.0000
  C   C2        1.0  0.6486695248623775  0.3770567284206052  0.9239826894460706  1.0000
  C   C3        1.0  0.3770654342360089  0.6486708652318356  0.4239819339396362  1.0000
  C   C4        1.0  0.3523667165294028  0.6227354466371153  0.07613698673078771  1.0000
  C   C5        1.0  0.4869893565388709  0.08170875259551019  0.2987748731145032  1.0000
  C   C6        1.0  0.9182432446776191  0.5126274803831733  0.20117358905380206  1.0000
  C   C7        1.0  0.5126321990675605  0.9182346086661184  0.7011695789816912  1.0000
  C   C8        1.0  0.08170141669694429  0.486992728379704  0.7987732619405677  1.0000
  C   C9        1.0  0.6938808077966669  0.5460380037350916  0.6292867455256257  1.0000
  C   C10       1.0  0.4550277593410926  0.30608345297050493  0.8708852511217842  1.0000
  C   C11       1.0  0.3060869038771513  0.4550303936763314  0.3708856048090041  1.0000
  C   C12       1.0  0.5460411580936437  0.6938850025072584  0.129287156329525  1.0000
  C   C13       1.0  0.4785115097556627  0.1327531480099466  0.18554926103016814  1.0000
  C   C14       1.0  0.8659596402133688  0.520944488165469  0.31415004816355463  1.0000
  C   C15       1.0  0.5209487435272991  0.8659425418137516  0.8141458994758538  1.0000
  C   C16       1.0  0.13273912897427212  0.4785170699627699  0.6855468924735746  1.0000
  Cl  Cl1       1.0  9.227904266849997e-05  0.000706963645065199  0.5001311320224673  1.0000
  Cl  Cl2       1.0  0.0007088651697202001  9.408786587529999e-05  0.0001375645723201  1.0000
  O   O1        1.0  0.7426685616000199  0.27470810878330815  0.546500539428081  1.0000
  O   O2        1.0  0.7264383363024791  0.2570370352046965  0.9533093130992469  1.0000
  O   O3        1.0  0.2570416883704922  0.7264341158729692  0.4533137886161143  1.0000
  O   O4        1.0  0.27470895435698145  0.7426754758224733  0.04649652838536872  1.0000
  O   O5        1.0  0.6406610269549945  0.0631090302783122  0.3390943506314343  1.0000
  O   O6        1.0  0.9367832104644479  0.3589034702557683  0.16088208524114833  1.0000
  O   O7        1.0  0.35890226258255337  0.9367788092338641  0.6608813367075896  1.0000
  O   O8        1.0  0.0630983218005383  0.6406625915523633  0.8390934554991605  1.0000
  O   O9        1.0  0.44529100349575407  0.2736249157989121  0.5640017229804783  1.0000
  O   O10       1.0  0.7273010644703534  0.5545528414045506  0.9364186409320256  1.0000
  O   O11       1.0  0.5545566211121553  0.7273057214266319  0.4364126018465413  1.0000
  O   O12       1.0  0.273632623875571  0.44530263366588235  0.0640009432018829  1.0000
  O   O13       1.0  0.3407721762910896  0.06021194408245379  0.3496325741552795  1.0000
  O   O14       1.0  0.9409190570593253  0.6591912525227103  0.15048719137087122  1.0000
  O   O15       1.0  0.6591862719042895  0.940911541939876  0.6504849019640417  1.0000
  O   O16       1.0  0.06021601573992541  0.3407788942115957  0.8496328628192774  1.0000
