data_image0
_chemical_formula_structural       Zn4H24C48S8O40
_chemical_formula_sum              "Zn4 H24 C48 S8 O40"
_cell_length_a       10.476581884601442
_cell_length_b       18.621881182529464
_cell_length_c       18.739872347761956
_cell_angle_alpha    89.67467061505381
_cell_angle_beta     93.24578884440378
_cell_angle_gamma    86.84563540238314

_space_group_name_H-M_alt    "P 1"
_space_group_IT_number       1

loop_
  _space_group_symop_operation_xyz
  'x, y, z'

loop_
  _atom_site_type_symbol
  _atom_site_label
  _atom_site_symmetry_multiplicity
  _atom_site_fract_x
  _atom_site_fract_y
  _atom_site_fract_z
  _atom_site_occupancy
  Zn  Zn1       1.0  0.38255657594086057  0.0091080488436504  0.49340247197885395  1.0000
  Zn  Zn2       1.0  0.628989653731196  0.9921068581380796  0.5096010240374653  1.0000
  Zn  Zn3       1.0  0.6174821729775671  0.4929207357430201  0.009532879284890307  1.0000
  Zn  Zn4       1.0  0.37108865892567877  0.5092314791342148  0.992511375601396  1.0000
  H   H1        1.0  0.6804289881573667  0.6725378457075379  0.17253284225655827  1.0000
  H   H2        1.0  0.27484045413020647  0.6560964535568278  0.1406890842109405  1.0000
  H   H3        1.0  0.3216698475732969  0.834489697362422  0.3252078857972337  1.0000
  H   H4        1.0  0.726279897912427  0.8594239654825913  0.34837024487893603  1.0000
  H   H5        1.0  0.6789052078098762  0.32398704208615214  0.8356086058584042  1.0000
  H   H6        1.0  0.2744680996127756  0.34664776863628083  0.8606756541478192  1.0000
  H   H7        1.0  0.31939606735625153  0.1716874878134362  0.6730811803148387  1.0000
  H   H8        1.0  0.7248622722242785  0.1404402032069925  0.6563052359492689  1.0000
  H   H9        1.0  0.6645024506432549  0.33206631986845997  0.17508434965156283  1.0000
  H   H10       1.0  0.2555912832316166  0.36153130220569824  0.15216884051947946  1.0000
  H   H11       1.0  0.3347721446324102  0.17489262032989228  0.3325106130690402  1.0000
  H   H12       1.0  0.7437164532334748  0.1520345104130314  0.3618700856710505  1.0000
  H   H13       1.0  0.3286650035039003  0.6738783347348158  0.8266817159726686  1.0000
  H   H14       1.0  0.7360940725114347  0.6470265211232732  0.8631168267537535  1.0000
  H   H15       1.0  0.6713094782260712  0.8262767830549296  0.6743474933887799  1.0000
  H   H16       1.0  0.2638658257764632  0.8623880790139045  0.6471111426954226  1.0000
  H   H17       1.0  0.9401012171479479  0.7326926917937941  0.17767655802722263  1.0000
  H   H18       1.0  0.051420079718447205  0.8249084953923717  0.2702586806286504  1.0000
  H   H19       1.0  0.9489973160691321  0.26867149507506133  0.8257910146182967  1.0000
  H   H20       1.0  0.059764038032042804  0.17607145053315781  0.7334249743096138  1.0000
  H   H21       1.0  0.9355132259005857  0.32252513666702504  0.23026835713228885  1.0000
  H   H22       1.0  0.0639096726783563  0.23044013587222176  0.3226193542582153  1.0000
  H   H23       1.0  0.06807435992156032  0.7309407527792546  0.8214752084871935  1.0000
  H   H24       1.0  0.9321019874510698  0.8212990460052013  0.7310669534623886  1.0000
  C   C1        1.0  0.48882942394065754  0.9025598956769301  0.5983867980097133  1.0000
  C   C2        1.0  0.5057351780270878  0.9064647090387087  0.39980699747952303  1.0000
  C   C3        1.0  0.5268350180973586  0.10167986743049791  0.4078459174198415  1.0000
  C   C4        1.0  0.5033900970638499  0.09600361669754423  0.6023258163097582  1.0000
  C   C5        1.0  0.47250214241880434  0.40747910012457583  0.10190603770171693  1.0000
  C   C6        1.0  0.49632295301034185  0.6025219235651065  0.09594541188408813  1.0000
  C   C7        1.0  0.5110487161966547  0.5980074315787861  0.9030814422145711  1.0000
  C   C8        1.0  0.4953452369846687  0.39834316489939436  0.9077805183150646  1.0000
  C   C9        1.0  0.58404035615672  0.69067977745123  0.18538810534435163  1.0000
  C   C10       1.0  0.3547772989931559  0.6816239115257332  0.16761395211304386  1.0000
  C   C11       1.0  0.3337191070574832  0.7319758275877037  0.21958187529205028  1.0000
  C   C12       1.0  0.43663079856347053  0.7667948567355156  0.25591324928551984  1.0000
  C   C13       1.0  0.41764857597277694  0.8195088320053118  0.3092357396102443  1.0000
  C   C14       1.0  0.646256107257294  0.8335746732145921  0.3219006363709768  1.0000
  C   C15       1.0  0.6673376750070616  0.781371593577589  0.27174220942500693  1.0000
  C   C16       1.0  0.5645807302705064  0.7454751445637983  0.23657576761488747  1.0000
  C   C17       1.0  0.4808930707383751  0.6600962929645107  0.1507677089821229  1.0000
  C   C18       1.0  0.5205526878456651  0.8523998312805573  0.3415136266027759  1.0000
  C   C19       1.0  0.5828525995735631  0.3079472745524258  0.820619819882623  1.0000
  C   C20       1.0  0.3543739595071925  0.3203535683331041  0.8347497247596183  1.0000
  C   C21       1.0  0.33302458643954225  0.2703891023962017  0.7823656470410685  1.0000
  C   C22       1.0  0.43556338974619274  0.23544154879521542  0.7463119258787856  1.0000
  C   C23       1.0  0.41586005332497683  0.18455786250938647  0.6912450805140724  1.0000
  C   C24       1.0  0.6450715230666191  0.1671225528352025  0.6819988130459012  1.0000
  C   C25       1.0  0.6663408126181806  0.21873962685894097  0.7327298994198304  1.0000
  C   C26       1.0  0.5635831252302311  0.2547909615953969  0.7677163764080107  1.0000
  C   C27       1.0  0.4801624990468625  0.3400277755370666  0.853648631684621  1.0000
  C   C28       1.0  0.5188967178049281  0.1503248946805941  0.6603577327190424  1.0000
  C   C29       1.0  0.5713383458927339  0.3179050341021751  0.19175060448662865  1.0000
  C   C30       1.0  0.33997441246945936  0.3347001551191512  0.1790062738544336  1.0000
  C   C31       1.0  0.3281311495662891  0.28207799323083554  0.22965109829834068  1.0000
  C   C32       1.0  0.4374171702458938  0.24561760283187797  0.26566468999427434  1.0000
  C   C33       1.0  0.42793274370945517  0.1915620651705794  0.3182964243781328  1.0000
  C   C34       1.0  0.6593151261330236  0.17883108501759185  0.33501696188395164  1.0000
  C   C35       1.0  0.6711407830599255  0.22940241159139418  0.2823420374870126  1.0000
  C   C36       1.0  0.5618475154226417  0.26535880589757005  0.2458671669929942  1.0000
  C   C37       1.0  0.46274299849091693  0.35242571197215267  0.1595479536371229  1.0000
  C   C38       1.0  0.53654813231568  0.15938274074579786  0.3528018819976212  1.0000
  C   C39       1.0  0.4230132255920935  0.6899096580758695  0.814099944117544  1.0000
  C   C40       1.0  0.6538445064215921  0.6745997427151097  0.834818252939826  1.0000
  C   C41       1.0  0.6701186994291461  0.7256886018236204  0.7831856244643023  1.0000
  C   C42       1.0  0.563310566597309  0.7623049002157246  0.7448528358934753  1.0000
  C   C43       1.0  0.5769642947810995  0.8136370816159442  0.6903083168413462  1.0000
  C   C44       1.0  0.346120251718169  0.8341979676955376  0.6747956721719606  1.0000
  C   C45       1.0  0.3298727787838658  0.7826571378451561  0.7259903955983307  1.0000
  C   C46       1.0  0.4367048853965869  0.7444334768991825  0.7627134029778306  1.0000
  C   C47       1.0  0.5289409106288332  0.6559535540067644  0.8495497829013774  1.0000
  C   C48       1.0  0.4710014475180627  0.8489851595748521  0.6562464925776299  1.0000
  S   S1        1.0  0.8302643802909914  0.7515208041864484  0.2667001404155657  1.0000
  S   S2        1.0  0.17545392886686528  0.7362826748000801  0.24890130870903712  1.0000
  S   S3        1.0  0.8247411351561313  0.2481953475400901  0.7374576289753919  1.0000
  S   S4        1.0  0.16999495790702923  0.26549436807813726  0.7525726713159744  1.0000
  S   S5        1.0  0.8280418310657185  0.2335686084237949  0.2519792623094618  1.0000
  S   S6        1.0  0.17119338286893535  0.2515568322511044  0.23401515480484394  1.0000
  S   S7        1.0  0.1702277790059767  0.7554675084720941  0.7309954500081377  1.0000
  S   S8        1.0  0.8297522633933526  0.730479278982429  0.7561685546986255  1.0000
  O   O1        1.0  0.38635699231293325  0.9318354305415825  0.5676145749479673  1.0000
  O   O2        1.0  0.6030582275442952  0.9148333346208164  0.584225528990878  1.0000
  O   O3        1.0  0.611693728366177  0.9221901856588561  0.43202209281747644  1.0000
  O   O4        1.0  0.39484396815653616  0.9321242463128105  0.4135200840329675  1.0000
  O   O5        1.0  0.631707232111239  0.07270407457980352  0.4348335845226644  1.0000
  O   O6        1.0  0.4140185785103442  0.08573341713459831  0.4229902124569166  1.0000
  O   O7        1.0  0.39227271850329254  0.08405880838056132  0.5757429117367537  1.0000
  O   O8        1.0  0.6091190284201815  0.06553979947089063  0.5838864378785119  1.0000
  O   O9        1.0  0.5853292914120232  0.4219746738213745  0.08541778457917103  1.0000
  O   O10       1.0  0.36765353230487824  0.43515116297953677  0.07353904850892691  1.0000
  O   O11       1.0  0.3907203327042268  0.5849775120568808  0.06458193944830272  1.0000
  O   O12       1.0  0.6072881924579221  0.5754275300270777  0.08450131590776523  1.0000
  O   O13       1.0  0.3968173852325166  0.5832016539070255  0.9146865052022126  1.0000
  O   O14       1.0  0.6134791516179094  0.5677816361947096  0.9329721819563164  1.0000
  O   O15       1.0  0.6064356709835437  0.4126142268839815  0.9327754045075383  1.0000
  O   O16       1.0  0.38942348999578513  0.43007158333949763  0.9242473008226568  1.0000
  O   O17       1.0  0.8488763438195122  0.7523667196242699  0.18315906280810884  1.0000
  O   O18       1.0  0.9080346885648466  0.8066868937590785  0.29933171811973125  1.0000
  O   O19       1.0  0.8464810882657119  0.6794186658413682  0.2945937141069025  1.0000
  O   O20       1.0  0.13921587436747274  0.8201636957539193  0.24987449402797077  1.0000
  O   O21       1.0  0.0936077264706157  0.7043895129113978  0.19321966559684264  1.0000
  O   O22       1.0  0.17905210903792584  0.7064276242106118  0.31985413573070093  1.0000
  O   O23       1.0  0.8611230487525176  0.24823233432616124  0.8208660934849876  1.0000
  O   O24       1.0  0.9062618715540656  0.19249276030036813  0.7052151785845313  1.0000
  O   O25       1.0  0.8214516000146403  0.31991078215339297  0.7086059006454237  1.0000
  O   O26       1.0  0.1510562095092709  0.18141804792269772  0.7530430387325071  1.0000
  O   O27       1.0  0.0924288942853124  0.29810800476148813  0.8074838256766201  1.0000
  O   O28       1.0  0.1537839996805914  0.2938463608287592  0.6810134848875721  1.0000
  O   O29       1.0  0.8489434263643361  0.3173149572404341  0.25099880022524  1.0000
  O   O30       1.0  0.9170465117696338  0.20013301893961002  0.3069069195918318  1.0000
  O   O31       1.0  0.8281213603024185  0.20523626340258266  0.18082531486057724  1.0000
  O   O32       1.0  0.1504752895470105  0.25127487157931233  0.3172451504588737  1.0000
  O   O33       1.0  0.08221527589194011  0.30653647893472424  0.20032548431677102  1.0000
  O   O34       1.0  0.17095198485920804  0.17972003770349693  0.20644818900375844  1.0000
  O   O35       1.0  0.15197648708704037  0.7540392482225827  0.8147506784171343  1.0000
  O   O36       1.0  0.0832629198362156  0.8126658703419595  0.6996318101600922  1.0000
  O   O37       1.0  0.16437529072602078  0.6842588830877078  0.702465584995615  1.0000
  O   O38       1.0  0.848212060325004  0.8147503632577939  0.7540646257979093  1.0000
  O   O39       1.0  0.9167247118858344  0.6993758080961644  0.8132699939966486  1.0000
  O   O40       1.0  0.8354723447037107  0.7011898971879519  0.6856375924646303  1.0000
