data_image0
_chemical_formula_structural       CuH34C50N6O6
_chemical_formula_sum              "Cu1 H34 C50 N6 O6"
_cell_length_a       7.028578548408794
_cell_length_b       10.904738277970317
_cell_length_c       13.768776939087921
_cell_angle_alpha    82.58130495216446
_cell_angle_beta     89.68290360092776
_cell_angle_gamma    73.36613366286905

_space_group_name_H-M_alt    "P 1"
_space_group_IT_number       1

loop_
  _space_group_symop_operation_xyz
  'x, y, z'

loop_
  _atom_site_type_symbol
  _atom_site_label
  _atom_site_symmetry_multiplicity
  _atom_site_fract_x
  _atom_site_fract_y
  _atom_site_fract_z
  _atom_site_occupancy
  Cu  Cu1       1.0  0.49999901917992423  0.9999996326313794  1.0827112360088975e-07  1.0000
  H   H1        1.0  0.14449460522272523  0.035851308386782015  0.9210656454234967  1.0000
  H   H2        1.0  0.8555096596925936  0.9641526419243225  0.07892918531534578  1.0000
  H   H3        1.0  0.28222226601020867  0.8926238531270699  0.48826192673972474  1.0000
  H   H4        1.0  0.7177804805553624  0.10737719082778342  0.5117375663631734  1.0000
  H   H5        1.0  0.2081092665191164  0.5397032898782756  0.6399350911012933  1.0000
  H   H6        1.0  0.7918882150418513  0.4602967841176025  0.3600638004072324  1.0000
  H   H7        1.0  0.35426660343643607  0.9816758816347216  0.36087903768976315  1.0000
  H   H8        1.0  0.6457472732668704  0.0183193730411162  0.639123172616067  1.0000
  H   H9        1.0  0.4358285335011233  0.07680804343342372  0.19749256868185233  1.0000
  H   H10       1.0  0.564176507036784  0.9231910683077802  0.8025085635449472  1.0000
  H   H11       1.0  0.41376041091011484  0.7591437123218158  0.06878632928267345  1.0000
  H   H12       1.0  0.586231956734345  0.24085828676721385  0.9312138426224978  1.0000
  H   H13       1.0  0.3335596676734626  0.6475089792575589  0.22852888064948473  1.0000
  H   H14       1.0  0.6664392482655545  0.352491093873482  0.7714714565815088  1.0000
  H   H15       1.0  0.21538244097965284  0.35336870661316777  0.6310498510134792  1.0000
  H   H16       1.0  0.7846196041200246  0.6466275073804867  0.36894941326008995  1.0000
  H   H17       1.0  0.22266115174411996  0.13300649844705256  0.606912923834557  1.0000
  H   H18       1.0  0.7773394650790026  0.8669897153051663  0.39308562108723083  1.0000
  H   H19       1.0  0.26480861061840244  0.2102327349987051  0.3065260863880042  1.0000
  H   H20       1.0  0.7351846044173698  0.7897673349540355  0.693472826177221  1.0000
  H   H21       1.0  0.26957566519517684  0.4354058539902469  0.31875421324840403  1.0000
  H   H22       1.0  0.7304208300893651  0.5645932518772342  0.6812455083504148  1.0000
  H   H23       1.0  0.08193099582752703  0.9738300318860382  0.6028715430083196  1.0000
  H   H24       1.0  0.9180639069505645  0.02617583615629121  0.39712676829593363  1.0000
  H   H25       1.0  0.06390521119521253  0.06965600790515941  0.7579849797702709  1.0000
  H   H26       1.0  0.9360895832052168  0.9303469573411575  0.24201653413776822  1.0000
  H   H27       1.0  0.3318502673740369  0.6920940727857643  0.9160604879785768  1.0000
  H   H28       1.0  0.6681396979204237  0.30790695572090243  0.08394124740648583  1.0000
  H   H29       1.0  0.3552715080993211  0.596558884266962  0.7612431829686415  1.0000
  H   H30       1.0  0.644720284761384  0.40344118433807824  0.23875573661548094  1.0000
  H   H31       1.0  0.7253355561893216  0.6412635885768128  0.8878542014841175  1.0000
  H   H32       1.0  0.2746690667544271  0.3587364866262633  0.11214828678333791  1.0000
  H   H33       1.0  0.8774362324362743  0.4075820745556771  0.865636222834816  1.0000
  H   H34       1.0  0.12256596375150508  0.5924170344901115  0.13436492342977863  1.0000
  C   C1        1.0  0.24154453685494565  0.7236367231913052  0.5771822745294346  1.0000
  C   C2        1.0  0.7584529386045276  0.2763633519108382  0.4228158906084047  1.0000
  C   C3        1.0  0.27041514215932955  0.7950106227262526  0.48869164436181484  1.0000
  C   C4        1.0  0.7295888937976759  0.20498752420536454  0.5113081388432194  1.0000
  C   C5        1.0  0.29365296334563606  0.7373822896684319  0.40261258467097605  1.0000
  C   C6        1.0  0.7063539291644859  0.26261585774607005  0.5973886372376287  1.0000
  C   C7        1.0  0.2534238503295613  0.5475451115649578  0.4838935302558839  1.0000
  C   C8        1.0  0.7465787756553655  0.4524530318064139  0.5161077127094204  1.0000
  C   C9        1.0  0.2340685274261887  0.5972367948512131  0.573357048516506  1.0000
  C   C10       1.0  0.7659295411215158  0.4027652074161098  0.42664454805444774  1.0000
  C   C11       1.0  0.3387914220145802  0.8039640820232639  0.3084202777820906  1.0000
  C   C12       1.0  0.6612158819882129  0.19603310303563154  0.6915788617151719  1.0000
  C   C13       1.0  0.3678917609401111  0.9269524606079219  0.29894822720393693  1.0000
  C   C14       1.0  0.6321202637909878  0.0730437583946184  0.7010538934200741  1.0000
  C   C15       1.0  0.41292782609697554  0.9815137483919261  0.20815252487470567  1.0000
  C   C16       1.0  0.587079913804452  0.018482469886294  0.7918474376939529  1.0000
  C   C17       1.0  0.4013409506469472  0.8030428227181051  0.13593586186218692  1.0000
  C   C18       1.0  0.5986599561493906  0.1969591833509057  0.8640649943002714  1.0000
  C   C19       1.0  0.35646274162769503  0.7425222426672207  0.22397912863613104  1.0000
  C   C20       1.0  0.6435367551965643  0.2574797598415444  0.7760231872866044  1.0000
  C   C21       1.0  0.2448804896602255  0.4148469710893537  0.47585305114142074  1.0000
  C   C22       1.0  0.7551207019466518  0.585151173146848  0.5241467461014155  1.0000
  C   C23       1.0  0.22780094483741928  0.32735947746258637  0.5570349930191298  1.0000
  C   C24       1.0  0.7721992543915378  0.6726376997514976  0.4429649079433205  1.0000
  C   C25       1.0  0.23112481249432898  0.20232804313528882  0.5435866904233536  1.0000
  C   C26       1.0  0.7688749447344992  0.7976701019657428  0.45641166109700754  1.0000
  C   C27       1.0  0.25702038054070914  0.24452922487613188  0.3779814816884512  1.0000
  C   C28       1.0  0.7429742566701311  0.7554708464243236  0.6220174238578765  1.0000
  C   C29       1.0  0.25740985534120137  0.3707306344745903  0.384093182001081  1.0000
  C   C30       1.0  0.7425862101461934  0.6292694370673007  0.6159064428970284  1.0000
  C   C31       1.0  0.2234091147664754  0.7785764739224281  0.6698093007841878  1.0000
  C   C32       1.0  0.7765846750530517  0.2214255265143096  0.330190864102086  1.0000
  C   C33       1.0  0.14159728397482504  0.9120588362051409  0.6710230294063992  1.0000
  C   C34       1.0  0.8583984967020373  0.08794509716956611  0.3289776544113395  1.0000
  C   C35       1.0  0.12900732733756132  0.9662123560221617  0.757567249970336  1.0000
  C   C36       1.0  0.8709887381498265  0.033787715519729006  0.2424323749277733  1.0000
  C   C37       1.0  0.19906924007466395  0.8874193770122363  0.8467172360523139  1.0000
  C   C38       1.0  0.800925246048074  0.11257779923608525  0.15327978750298854  1.0000
  C   C39       1.0  0.27822260323471687  0.7532888998682241  0.8470098207969843  1.0000
  C   C40       1.0  0.7217656245666929  0.24671599465488475  0.15298934867317376  1.0000
  C   C41       1.0  0.28939558682580474  0.7004563932348733  0.7598434525549038  1.0000
  C   C42       1.0  0.7105963449200206  0.29954657263483137  0.24015589627887834  1.0000
  C   C43       1.0  0.8281376192679348  0.7685006135694084  0.026738415024908604  1.0000
  C   C44       1.0  0.17186169596076442  0.2314984994185707  0.9732583870533633  1.0000
  C   C45       1.0  0.9165059923721092  0.6297899255394129  0.012348159796175685  1.0000
  C   C46       1.0  0.08349622212013944  0.3702091801875655  0.9876551655804777  1.0000
  C   C47       1.0  0.8456952468131081  0.5784877943270178  0.9365100815367459  1.0000
  C   C48       1.0  0.15430311874811056  0.42151034389496556  0.0634919088559514  1.0000
  C   C49       1.0  0.9289726182496881  0.4495383502959386  0.9243343668726924  1.0000
  C   C50       1.0  0.07102916034392599  0.5504617222117149  0.07566813543256501  1.0000
  N   N1        1.0  0.28352923131381413  0.6165211759128442  0.4002054653176047  1.0000
  N   N2        1.0  0.7164772252976666  0.38347793828233284  0.5997949335196042  1.0000
  N   N3        1.0  0.43062079871864983  0.9206148431980241  0.12808826328315356  1.0000
  N   N4        1.0  0.5693813974691226  0.07938426584775733  0.8719128829814412  1.0000
  N   N5        1.0  0.2470999871828284  0.15898702483855237  0.4560471645866075  1.0000
  N   N6        1.0  0.7528946378250225  0.8410130486744409  0.5439502882183478  1.0000
  O   O1        1.0  0.6723155288768158  0.8300886220703207  0.9725710707501778  1.0000
  O   O2        1.0  0.3276842710624522  0.16990951528683243  0.02743236536499441  1.0000
  O   O3        1.0  0.9071100037808364  0.8146248033893928  0.08971454267658173  1.0000
  O   O4        1.0  0.0929062011157811  0.1853810903999076  0.9102800314907357  1.0000
  O   O5        1.0  0.19369717581955825  0.9365655011720978  0.9320232573950168  1.0000
  O   O6        1.0  0.8062990285529497  0.06343746763446491  0.0679767967527454  1.0000
