data_image0
_chemical_formula_structural       Li4H16C4N20O6
_chemical_formula_sum              "Li4 H16 C4 N20 O6"
_cell_length_a       6.820705713252425
_cell_length_b       7.661028864599807
_cell_length_c       9.919676943500523
_cell_angle_alpha    82.78363216197744
_cell_angle_beta     75.00036220228614
_cell_angle_gamma    66.79635605722427

_space_group_name_H-M_alt    "P 1"
_space_group_IT_number       1

loop_
  _space_group_symop_operation_xyz
  'x, y, z'

loop_
  _atom_site_type_symbol
  _atom_site_label
  _atom_site_symmetry_multiplicity
  _atom_site_fract_x
  _atom_site_fract_y
  _atom_site_fract_z
  _atom_site_occupancy
  Li  Li1       1.0  0.566660759683721  0.36524268842412516  0.1656636071418021  1.0000
  Li  Li2       1.0  0.4333398181388333  0.6347566563449262  0.8343367868811741  1.0000
  Li  Li3       1.0  0.48864318172732607  0.14189060759820651  0.5686058911039851  1.0000
  Li  Li4       1.0  0.5113582749400936  0.8581101714434423  0.43139422302548525  1.0000
  H   H1        1.0  0.9946921795609281  0.35050270333301375  0.7690416665751628  1.0000
  H   H2        1.0  0.00530776536771784  0.6494980620419994  0.230958707285609  1.0000
  H   H3        1.0  0.959215317377968  0.6784379839992597  0.7380568566614797  1.0000
  H   H4        1.0  0.04078312858255371  0.32156277493988483  0.261942765927607  1.0000
  H   H5        1.0  0.6940083884221764  0.1643422877474094  0.7288568029686928  1.0000
  H   H6        1.0  0.3059915692771257  0.8356584848583637  0.2711425598890855  1.0000
  H   H7        1.0  0.14692448501096317  0.1021721566685727  0.5499452010433288  1.0000
  H   H8        1.0  0.8530745938434734  0.89782718166461  0.4500544417079624  1.0000
  H   H9        1.0  0.94151504243019  0.1425323799170286  0.08761393391902324  1.0000
  H   H10       1.0  0.05848490249844935  0.8574683854579845  0.9123864399417414  1.0000
  H   H11       1.0  0.6497825369100597  0.9786793213223178  0.798025237700081  1.0000
  H   H12       1.0  0.3502158962797992  0.021321430386066695  0.201975395891985  1.0000
  H   H13       1.0  0.8069340452142767  0.011596442314406402  0.09403394863397808  1.0000
  H   H14       1.0  0.19306653260827025  0.9884029024546449  0.9059664453890051  1.0000
  H   H15       1.0  0.22892464605327933  0.9651367192020927  0.6764441441136457  1.0000
  H   H16       1.0  0.7710759445399302  0.0348626327977257  0.3235552389063514  1.0000
  C   C1        1.0  0.17514106491558581  0.5581617252762001  0.5611031024840898  1.0000
  C   C2        1.0  0.824860158571539  0.4418362061176566  0.4388963006981115  1.0000
  C   C3        1.0  0.19914995074358902  0.3491447269652427  0.8912069556731624  1.0000
  C   C4        1.0  0.8008493740617978  0.6508574662464852  0.10879238702240461  1.0000
  N   N1        1.0  0.11511940281506841  0.3962757742448701  0.7751604297976229  1.0000
  N   N2        1.0  0.8848805548842336  0.6037249983609102  0.22483893306016264  1.0000
  N   N3        1.0  0.337669487655738  0.40862085557964883  0.4917400010352893  1.0000
  N   N4        1.0  0.662331102937472  0.5913784964201697  0.5082593819847077  1.0000
  N   N5        1.0  0.3559766769100677  0.4636346127604227  0.35628137548486183  1.0000
  N   N6        1.0  0.64402541265126  0.5363647456752644  0.6437187588068198  1.0000
  N   N7        1.0  0.1054559202883637  0.5681963846989364  0.7050930092605512  1.0000
  N   N8        1.0  0.8945440374109382  0.431804387906837  0.2949063535972343  1.0000
  N   N9        1.0  0.294869156478093  0.19936341064993707  0.07525360522303969  1.0000
  N   N10       1.0  0.7051323129599892  0.8006373756224647  0.9247454979034444  1.0000
  N   N11       1.0  0.0930760501488238  0.7015481243441924  0.4737553667653672  1.0000
  N   N12       1.0  0.9069230287056059  0.2984512139889972  0.5262442759859313  1.0000
  N   N13       1.0  0.37553377450204545  0.3321855283709353  0.04491339874100222  1.0000
  N   N14       1.0  0.6244676821653742  0.6678152506707135  0.955086715388468  1.0000
  N   N15       1.0  0.1793670068945801  0.20527701466062348  0.9808395369394703  1.0000
  N   N16       1.0  0.8206307934013708  0.7947251576537225  0.019161076490391397  1.0000
  N   N17       1.0  0.21198915393343756  0.6377035294111266  0.3452539747232776  1.0000
  N   N18       1.0  0.7880114238891168  0.3622958153579318  0.6547464192996985  1.0000
  N   N19       1.0  0.31940913425627576  0.43039756665474027  0.9285289005071463  1.0000
  N   N20       1.0  0.680588666039675  0.5696046056595988  0.07147171292270832  1.0000
  O   O1        1.0  0.2806785841767194  0.0126260777511291  0.5821794439654155  1.0000
  O   O2        1.0  0.7193226393104054  0.9873718536427348  0.4178199592167857  1.0000
  O   O3        1.0  0.8131953626416292  0.11419523214397026  0.14342007882957122  1.0000
  O   O4        1.0  0.1868052151809182  0.885804112625088  0.8565803151934047  1.0000
  O   O5        1.0  0.6252761293544395  0.07579775359432972  0.7209332396210401  1.0000
  O   O6        1.0  0.37472382834486234  0.9242030190114433  0.27906612323673846  1.0000
