data_image0
_chemical_formula_structural       Cd4H16C32S4N40O4
_chemical_formula_sum              "Cd4 H16 C32 S4 N40 O4"
_cell_length_a       7.173298572253136
_cell_length_b       11.675292973209771
_cell_length_c       14.724876963001833
_cell_angle_alpha    89.99912192561055
_cell_angle_beta     99.70318422820984
_cell_angle_gamma    90.00194738806177

_space_group_name_H-M_alt    "P 1"
_space_group_IT_number       1

loop_
  _space_group_symop_operation_xyz
  'x, y, z'

loop_
  _atom_site_type_symbol
  _atom_site_label
  _atom_site_symmetry_multiplicity
  _atom_site_fract_x
  _atom_site_fract_y
  _atom_site_fract_z
  _atom_site_occupancy
  Cd  Cd1       1.0  0.6273788417601125  0.4365753923052721  0.1372158032090951  1.0000
  Cd  Cd2       1.0  0.8726199019768542  0.9365793952740444  0.8627840769421553  1.0000
  Cd  Cd3       1.0  0.3726126691101257  0.5634233486281062  0.8627811650442254  1.0000
  Cd  Cd4       1.0  0.127376999453169  0.063425341153291  0.1372201749863393  1.0000
  H   H1        1.0  0.0028703467960725015  0.40133367694509997  0.08155502728267547  1.0000
  H   H2        1.0  0.49712926435555727  0.9013361695632225  0.9184462126964659  1.0000
  H   H3        1.0  0.997149312049494  0.5986607818124909  0.9184479022545629  1.0000
  H   H4        1.0  0.5028621136716112  0.09866085826919148  0.08155413966003519  1.0000
  H   H5        1.0  0.9816506233630874  0.5387456590479758  0.0913418859713389  1.0000
  H   H6        1.0  0.5183571948988969  0.038746868193541686  0.9086540899079123  1.0000
  H   H7        1.0  0.018363379293276708  0.46124623009017524  0.9086605281196183  1.0000
  H   H8        1.0  0.481644214279406  0.9612535859177952  0.09134378036724658  1.0000
  H   H9        1.0  0.8471688378897682  0.9750828816242103  0.3706059183783878  1.0000
  H   H10       1.0  0.652831665172691  0.4750875320561292  0.6294017887346823  1.0000
  H   H11       1.0  0.15282414009729453  0.024909007288158605  0.6293898250683441  1.0000
  H   H12       1.0  0.34717630950828493  0.524918060914956  0.37060958546816636  1.0000
  H   H13       1.0  0.6861035165982018  0.9300243096699035  0.21673029274323596  1.0000
  H   H14       1.0  0.8138949858419336  0.43002673812997466  0.783272928459702  1.0000
  H   H15       1.0  0.3138909286120253  0.06997357486478957  0.7832642259391278  1.0000
  H   H16       1.0  0.18611021388663573  0.5699788548284701  0.216736834380704  1.0000
  C   C1        1.0  0.7660056366489059  0.6569918271641412  0.2940503860122732  1.0000
  C   C2        1.0  0.733978420798202  0.15699326603763808  0.7059508156970721  1.0000
  C   C3        1.0  0.233971946271005  0.34300006159683244  0.7059398790498363  1.0000
  C   C4        1.0  0.2660268320335674  0.843008900915329  0.2940575934885458  1.0000
  C   C5        1.0  0.8636653715708604  0.6838130536443571  0.38548820657236854  1.0000
  C   C6        1.0  0.6363205439852421  0.18381865911201334  0.6145133002719942  1.0000
  C   C7        1.0  0.1363235236920062  0.31617969180771144  0.6145030893682202  1.0000
  C   C8        1.0  0.36369039160859973  0.8161869339863159  0.3854949475409555  1.0000
  C   C9        1.0  0.8924897611892462  0.7997860016198214  0.4145907426833729  1.0000
  C   C10       1.0  0.6074941775119385  0.29978592952344474  0.5854023410239932  1.0000
  C   C11       1.0  0.10749926690959911  0.20020760042365282  0.5853971691512142  1.0000
  C   C12       1.0  0.39251681120636317  0.7002188070980678  0.4146045531426097  1.0000
  C   C13       1.0  0.8250227284595439  0.8851005964215374  0.3517769732450801  1.0000
  C   C14       1.0  0.6749679334773832  0.3851025988217742  0.6482259852543988  1.0000
  C   C15       1.0  0.1749703823918551  0.11489557512046392  0.6482153861069121  1.0000
  C   C16       1.0  0.3250386271616179  0.6149029941266235  0.35178526008899513  1.0000
  C   C17       1.0  0.7304569651044446  0.8583770141836451  0.2626445656655747  1.0000
  C   C18       1.0  0.7695303731735309  0.35837570213796965  0.7373593131274345  1.0000
  C   C19       1.0  0.2695246740235078  0.14162001358815246  0.7373508237441369  1.0000
  C   C20       1.0  0.2304719453324324  0.6416290342327926  0.2626515456347675  1.0000
  C   C21       1.0  0.6970899626192663  0.7464690355906499  0.2310862751188907  1.0000
  C   C22       1.0  0.802892615265641  0.24647430760963124  0.7689186410130515  1.0000
  C   C23       1.0  0.30288308599368446  0.2535279919795101  0.7689110484211241  1.0000
  C   C24       1.0  0.19710410020394423  0.7535304287031079  0.23109034866778433  1.0000
  C   C25       1.0  0.9902991225043182  0.827020972832507  0.5039881697028504  1.0000
  C   C26       1.0  0.5096976481425203  0.3270258225747469  0.49601505141963986  1.0000
  C   C27       1.0  0.009694068016052909  0.17297177272038064  0.4960021591725904  1.0000
  C   C28       1.0  0.4903202513910329  0.6729789140620068  0.5039965479748431  1.0000
  C   C29       1.0  0.6005729349073264  0.7280682382962735  0.1369663556166145  1.0000
  C   C30       1.0  0.8994177428661844  0.2280691763496562  0.8630412431980472  1.0000
  C   C31       1.0  0.3994143869756073  0.2719313591113277  0.8630288724176152  1.0000
  C   C32       1.0  0.10057593198612119  0.7719347032771748  0.13697290333517023  1.0000
  S   S1        1.0  0.8600616364167165  0.4792745212782774  0.3728065789141438  1.0000
  S   S2        1.0  0.6399362673166562  0.9792751254414682  0.6271968370824579  1.0000
  S   S3        1.0  0.1399344087533976  0.5207182243363631  0.6271833308584434  1.0000
  S   S4        1.0  0.36005623259984526  0.02073046732912329  0.3728110892010504  1.0000
  N   N1        1.0  0.34409859542136456  0.4004801158350161  0.18383593785324587  1.0000
  N   N2        1.0  0.155903909324735  0.9004758551461975  0.8161635237479601  1.0000
  N   N3        1.0  0.6558942763876698  0.5995220511265343  0.8161625129143174  1.0000
  N   N4        1.0  0.8440877609756187  0.09952716843318397  0.18382938358884357  1.0000
  N   N5        1.0  0.30414235644720117  0.30664741898622333  0.20478720987489396  1.0000
  N   N6        1.0  0.1958456029007891  0.806650733940806  0.7952172435905209  1.0000
  N   N7        1.0  0.6958503028923244  0.6933615999208128  0.795216655489298  1.0000
  N   N8        1.0  0.8041458814674839  0.19335571556221245  0.2047804015098862  1.0000
  N   N9        1.0  0.26046380271562  0.21506123315555925  0.22769172278133704  1.0000
  N   N10       1.0  0.23951690444921075  0.7150543643755469  0.772313643798334  1.0000
  N   N11       1.0  0.739520106707147  0.7849469289420552  0.7723181376409156  1.0000
  N   N12       1.0  0.7604759407869538  0.2849469460600815  0.2276854837881785  1.0000
  N   N13       1.0  0.7551452199658542  0.5427729943432807  0.27956521068060164  1.0000
  N   N14       1.0  0.7448498854457029  0.04277243550699691  0.7204309855678018  1.0000
  N   N15       1.0  0.24484506279448942  0.45722232064377966  0.7204268909496532  1.0000
  N   N16       1.0  0.2551484299979521  0.9572288749048068  0.2795733952088924  1.0000
  N   N17       1.0  0.9225888519580748  0.5905887285104326  0.4359137796979268  1.0000
  N   N18       1.0  0.5773911718644699  0.09059541442878329  0.5640894352135248  1.0000
  N   N19       1.0  0.0774042588507839  0.40940230397423233  0.5640785796371757  1.0000
  N   N20       1.0  0.4226070107999149  0.9094118914680603  0.4359183296916881  1.0000
  N   N21       1.0  0.07259343435208619  0.8517899627277786  0.5766847934003536  1.0000
  N   N22       1.0  0.4274212033356762  0.3517997152791352  0.4233100934293574  1.0000
  N   N23       1.0  0.9274084528967778  0.14819678752533597  0.4233008940380286  1.0000
  N   N24       1.0  0.5726111288341754  0.6482041652550592  0.5766953495175001  1.0000
  N   N25       1.0  0.5375509866894035  0.8161698477784964  0.08046843655451139  1.0000
  N   N26       1.0  0.962498428603233  0.31617299662980963  0.9195266214381801  1.0000
  N   N27       1.0  0.46247347222016083  0.18383146346740628  0.9195206663265834  1.0000
  N   N28       1.0  0.0375396394176946  0.6838291710251523  0.08047730647559347  1.0000
  N   N29       1.0  0.4623511760946358  0.769977949106206  0.0001302513204138131  1.0000
  N   N30       1.0  0.03771173141401359  0.2699807181560701  0.9998652238120795  1.0000
  N   N31       1.0  0.5376847279725895  0.23002250589352968  0.9998564983247176  1.0000
  N   N32       1.0  0.962334900527793  0.7300180236459325  0.00013744678189908755  1.0000
  N   N33       1.0  0.4772117503313637  0.657215162197019  0.0064392622213986965  1.0000
  N   N34       1.0  0.022800708151848405  0.15721425976734338  0.9935639502442938  1.0000
  N   N35       1.0  0.5228012633992662  0.34278443576637596  0.9935521938872183  1.0000
  N   N36       1.0  0.9772017431262797  0.8427836246088274  0.006443524386568826  1.0000
  N   N37       1.0  0.5627706601574545  0.6279537888453176  0.09136132655859089  1.0000
  N   N38       1.0  0.9371927480451772  0.1279548168539364  0.9086473557915082  1.0000
  N   N39       1.0  0.43720953838401744  0.37204580841608237  0.9086346108218704  1.0000
  N   N40       1.0  0.0627739802979335  0.872047349273522  0.0913663728716543  1.0000
  O   O1        1.0  0.9256989268446746  0.46259726880676044  0.10186819983253062  1.0000
  O   O2        1.0  0.5742905619194048  0.9626007523877006  0.898125534735449  1.0000
  O   O3        1.0  0.07429300902128942  0.5373946203120993  0.8981179392500563  1.0000
  O   O4        1.0  0.42571047531674117  0.0373971319657826  0.10188181103595889  1.0000
