data_image0
_chemical_formula_structural       Ag2H22C30S2N6O6
_chemical_formula_sum              "Ag2 H22 C30 S2 N6 O6"
_cell_length_a       7.511081800563276
_cell_length_b       9.772896655173694
_cell_length_c       10.231752273504421
_cell_angle_alpha    79.68293564798051
_cell_angle_beta     70.70119495748024
_cell_angle_gamma    80.2326235844247

_space_group_name_H-M_alt    "P 1"
_space_group_IT_number       1

loop_
  _space_group_symop_operation_xyz
  'x, y, z'

loop_
  _atom_site_type_symbol
  _atom_site_label
  _atom_site_symmetry_multiplicity
  _atom_site_fract_x
  _atom_site_fract_y
  _atom_site_fract_z
  _atom_site_occupancy
  Ag  Ag1       1.0  0.2335883297801757  0.6566215582643551  0.12676203208054904  1.0000
  Ag  Ag2       1.0  0.7664091561261941  0.3433825504077319  0.873237658598839  1.0000
  H   H1        1.0  0.16582616956449672  0.8900329200785676  0.8996556678742208  1.0000
  H   H2        1.0  0.8341743031740806  0.10997006228944882  0.1003386148847483  1.0000
  H   H3        1.0  0.30537590645514  0.9537745971710765  0.6424063543810943  1.0000
  H   H4        1.0  0.694637469552454  0.046227740875615105  0.35759366580843005  1.0000
  H   H5        1.0  0.5450438592534966  0.7812158299620223  0.5034829389992552  1.0000
  H   H6        1.0  0.4549626690441997  0.21878530969113544  0.496517048158303  1.0000
  H   H7        1.0  0.4669407524194399  0.4929622384856245  0.8858742851816713  1.0000
  H   H8        1.0  0.5330557347809092  0.5070398278664358  0.11412897960406095  1.0000
  H   H9        1.0  0.017052295468467094  0.1469041658815371  0.6445845811226363  1.0000
  H   H10       1.0  0.9829493828801644  0.8530926549767346  0.3554154827464657  1.0000
  H   H11       1.0  0.1978702818430804  0.07182994187498791  0.409872698959397  1.0000
  H   H12       1.0  0.8021336245595165  0.9281700853918269  0.5901271728512326  1.0000
  H   H13       1.0  0.17171034747308056  0.22085567924094116  0.19247696993130592  1.0000
  H   H14       1.0  0.828290744931195  0.7791443067619924  0.807523604608491  1.0000
  H   H15       1.0  0.9504869707216129  0.4403793656421513  0.19867792984184263  1.0000
  H   H16       1.0  0.04951271468350878  0.5596205997288451  0.8013229960625381  1.0000
  H   H17       1.0  0.36024946343302117  0.8614967173093152  0.23047780970941995  1.0000
  H   H18       1.0  0.6397473983391039  0.13850315857506965  0.76952187536655  1.0000
  H   H19       1.0  0.850882775948577  0.9754629885326198  0.888664161919948  1.0000
  H   H20       1.0  0.14911267882439458  0.024536866719827802  0.11133587452059861  1.0000
  H   H21       1.0  0.689614264479843  0.6113837633605926  0.3981989318414136  1.0000
  H   H22       1.0  0.31038421084667783  0.38861513436737033  0.6018024991302511  1.0000
  C   C1        1.0  0.26908089383578465  0.8168805257603681  0.8357921513309988  1.0000
  C   C2        1.0  0.7309197999100334  0.18312153015339316  0.16420714402461556  1.0000
  C   C3        1.0  0.3478031061354868  0.8510329536384732  0.6922507952895458  1.0000
  C   C4        1.0  0.6522018182424815  0.14896921239384403  0.3077493895298957  1.0000
  C   C5        1.0  0.48084039997068123  0.754618213496933  0.6156787464785225  1.0000
  C   C6        1.0  0.5191663204302442  0.24538185503376295  0.38432042260294  1.0000
  C   C7        1.0  0.5310682549152546  0.6230392352557885  0.6847648050264823  1.0000
  C   C8        1.0  0.46893162741043426  0.3769596831041113  0.31523627458059167  1.0000
  C   C9        1.0  0.440824530288829  0.5956491008507997  0.828555501750955  1.0000
  C   C10       1.0  0.5591735511965723  0.4043518908993563  0.17144562181530884  1.0000
  C   C11       1.0  0.6714282768036738  0.5183080764027397  0.6092539825059614  1.0000
  C   C12       1.0  0.3285689836269157  0.48168972957081724  0.3907469817541909  1.0000
  C   C13       1.0  0.8775686597541037  0.3340711567125113  0.5523421934078241  1.0000
  C   C14       1.0  0.12242841339059397  0.66592774449488  0.44766056070721294  1.0000
  C   C15       1.0  0.9999196849618598  0.20831235801633605  0.5485406686411238  1.0000
  C   C16       1.0  8.180128354940086e-05  0.7916855339644118  0.45146021330406666  1.0000
  C   C17       1.0  0.10168444700870789  0.16914587660144065  0.4173854490550397  1.0000
  C   C18       1.0  0.8983164484750148  0.8308551564125964  0.5826149717820567  1.0000
  C   C19       1.0  0.08602244581391008  0.2529236269545976  0.293151412418581  1.0000
  C   C20       1.0  0.9139788435109322  0.7470753120372466  0.7068493158239163  1.0000
  C   C21       1.0  0.9641600269709445  0.3771361794637401  0.2949024107616579  1.0000
  C   C22       1.0  0.035838453172921364  0.6228627423755954  0.7050999919887884  1.0000
  C   C23       1.0  0.8593186172839183  0.41503443060685197  0.42670516080790555  1.0000
  C   C24       1.0  0.14067986285994039  0.5849644912324764  0.5732972419425408  1.0000
  C   C25       1.0  0.6160456108888112  0.906381119157999  0.06440214635922806  1.0000
  C   C26       1.0  0.3839496469635932  0.09361978310554522  0.9355977363786251  1.0000
  C   C27       1.0  0.4194287401171692  0.9216274559397136  0.12899161985001925  1.0000
  C   C28       1.0  0.5805709404706221  0.07837248531991041  0.8710083342755724  1.0000
  C   C29       1.0  0.6972410743404822  0.9847205958519895  0.9360587935643423  1.0000
  C   C30       1.0  0.30276020534969206  0.015278294917109704  0.06393999112056999  1.0000
  S   S1        1.0  0.7642527530807327  0.7810376911263788  0.14360326155971145  1.0000
  S   S2        1.0  0.23574290343013618  0.21896114122633753  0.8563979003623244  1.0000
  N   N1        1.0  0.31611911237708756  0.6910484422230213  0.9026898838587127  1.0000
  N   N2        1.0  0.6838783687119517  0.30895564233769335  0.09730883504188624  1.0000
  N   N3        1.0  0.7608181181751518  0.4022362592317208  0.6641026579599653  1.0000
  N   N4        1.0  0.23917933917599746  0.5977604997307396  0.33589846000288043  1.0000
  N   N5        1.0  0.7281971127896298  0.5283462213773547  0.46714344792420803  1.0000
  N   N6        1.0  0.2718027647187212  0.4716526728711799  0.5328566599040769  1.0000
  O   O1        1.0  0.9288332271506975  0.8514128025682055  0.13205273467092127  1.0000
  O   O2        1.0  0.07116243417750921  0.14858605389587615  0.8679493990299036  1.0000
  O   O3        1.0  0.6432026146261193  0.7505343966117054  0.2900113385690021  1.0000
  O   O4        1.0  0.3567916300682513  0.24946439099770162  0.7099892029388286  1.0000
  O   O5        1.0  0.8148506003545036  0.6601942594282307  0.06677705470973189  1.0000
  O   O6        1.0  0.18514686663132096  0.33980254775696045  0.933226006810699  1.0000
