data_image0
_chemical_formula_structural       Mn8Sb8H32C48S20N8
_chemical_formula_sum              "Mn8 Sb8 H32 C48 S20 N8"
_cell_length_a       12.089788793015263
_cell_length_b       12.174043538
_cell_length_c       12.6385
_cell_angle_alpha    90.0
_cell_angle_beta     112.35107942249503
_cell_angle_gamma    90.0

_space_group_name_H-M_alt    "P 1"
_space_group_IT_number       1

loop_
  _space_group_symop_operation_xyz
  'x, y, z'

loop_
  _atom_site_type_symbol
  _atom_site_label
  _atom_site_symmetry_multiplicity
  _atom_site_fract_x
  _atom_site_fract_y
  _atom_site_fract_z
  _atom_site_occupancy
  Mn  Mn1       1.0  0.7340583163880936  0.709537465759638  0.35658140764085994  1.0000
  Mn  Mn2       1.0  0.7659395606848493  0.20953761106879648  0.6434140617432432  1.0000
  Mn  Mn3       1.0  0.2659411626619317  0.2904606007825166  0.6434203809356872  1.0000
  Mn  Mn4       1.0  0.23405723536099296  0.7904612768931257  0.3565835859026548  1.0000
  Mn  Mn5       1.0  0.990526685636894  0.845875075759075  0.4912308656182205  1.0000
  Mn  Mn6       1.0  0.5094756631096828  0.3458785067472974  0.5087741427607497  1.0000
  Mn  Mn7       1.0  0.0094781594214837  0.1541221693633119  0.5087720837213823  1.0000
  Mn  Mn8       1.0  0.49052739327924405  0.6541212026343928  0.4912281559134541  1.0000
  Sb  Sb1       1.0  0.7672533383966995  0.808988399725898  0.6256793711341473  1.0000
  Sb  Sb2       1.0  0.7327409613373419  0.3089918307141204  0.37432033555112537  1.0000
  Sb  Sb3       1.0  0.2327497179922275  0.1910104882360244  0.37432055384064716  1.0000
  Sb  Sb4       1.0  0.267253151704324  0.6910111643466337  0.6256795010292322  1.0000
  Sb  Sb5       1.0  0.772119413638471  0.5000318900617344  0.6426744143683223  1.0000
  Sb  Sb6       1.0  0.7278865124470073  3.0392531357399998e-05  0.35732398301006896  1.0000
  Sb  Sb7       1.0  0.2278845370851812  0.4999711049990196  0.35732504470603027  1.0000
  Sb  Sb8       1.0  0.2721201212808211  0.9999668525910295  0.6426756608292407  1.0000
  H   H1        1.0  0.4734634867155592  0.8239834175628359  0.22179336805214686  1.0000
  H   H2        1.0  0.026530439633731407  0.3239810986126912  0.7782018510244625  1.0000
  H   H3        1.0  0.5265324149955575  0.1760236845967498  0.7782039542610518  1.0000
  H   H4        1.0  0.9734672507468363  0.6760153250899278  0.22179612195413517  1.0000
  H   H5        1.0  0.3396638570940027  0.85068284565223  0.015110944965584796  1.0000
  H   H6        1.0  0.1603345409289219  0.3506895623195234  0.9848843183082465  1.0000
  H   H7        1.0  0.6603338332865647  0.1493152208899247  0.9848862367798787  1.0000
  H   H8        1.0  0.8396694097947306  0.6493035757040317  0.015112767066696646  1.0000
  H   H9        1.0  0.3779208136492755  0.7439311328015705  0.8655249127321057  1.0000
  H   H10       1.0  0.12207758437364191  0.24393702804909617  0.1344735154742764  1.0000
  H   H11       1.0  0.6220741937271158  0.2560677551603447  0.13447683164721266  1.0000
  H   H12       1.0  0.8779218946763763  0.7560643241721223  0.8655266906359955  1.0000
  H   H13       1.0  0.8393206192517653  0.3772616703451135  0.045783054699469944  1.0000
  H   H14       1.0  0.6606754691517338  0.8772623464557225  0.954214928951785  1.0000
  H   H15       1.0  0.16067170512045692  0.6227322890982094  0.9542192961480325  1.0000
  H   H16       1.0  0.3393222212288407  0.12273325582713569  0.045783044026812506  1.0000
  H   H17       1.0  0.9684464555975438  0.3779919125175084  0.2568182225981345  1.0000
  H   H18       1.0  0.5315505271406735  0.8779942314676461  0.7431792951526788  1.0000
  H   H19       1.0  0.031549446113572806  0.6220061540246462  0.743183055880749  1.0000
  H   H20       1.0  0.4684480575746193  0.1220038350745085  0.2568182119254843  1.0000
  H   H21       1.0  0.9239586690092951  0.5097813212699904  0.38494076355186724  1.0000
  H   H22       1.0  0.5760436797372749  0.0097847522582128  0.6150587061951427  1.0000
  H   H23       1.0  0.0760417043754487  0.4902200309512281  0.6150613503573794  1.0000
  H   H24       1.0  0.4239602709863704  0.9902141357037095  0.3849407528792099  1.0000
  H   H25       1.0  0.5001629556124244  0.5943292364131523  0.8179449057144835  1.0000
  H   H26       1.0  0.9998384987994202  0.0943310245618392  0.18205423869983406  1.0000
  H   H27       1.0  0.49984278378067876  0.4056745800673696  0.18205678649154317  1.0000
  H   H28       1.0  0.00015829724642200003  0.9056719704989149  0.8179481563448903  1.0000
  H   H29       1.0  0.6642268723469301  0.4599449626183869  0.8837815412444597  1.0000
  H   H30       1.0  0.8357763707343722  0.9599448173092284  0.11621825383524956  1.0000
  H   H31       1.0  0.3357770783767222  0.5400604967016704  0.11621712659675859  1.0000
  H   H32       1.0  0.16422221398092773  0.0400548920724617  0.8837855831080077  1.0000
  C   C1        1.0  0.48870295043910533  0.7789318290509328  0.1539288005054402  1.0000
  C   C2        1.0  0.0112954475838194  0.278932795779852  0.8460664627683911  1.0000
  C   C3        1.0  0.5112965286109201  0.2210703445900535  0.8460666582060056  1.0000
  C   C4        1.0  0.9887049258009242  0.7210628065029994  0.15393248620830502  1.0000
  C   C5        1.0  0.4142907239336182  0.793646742747505  0.038434768180216766  1.0000
  C   C6        1.0  0.0857058854198485  0.2936501737357275  0.961561426894491  1.0000
  C   C7        1.0  0.5857033891080476  0.2063562523132489  0.9615666508664089  1.0000
  C   C8        1.0  0.9142962766343461  0.7063470713866593  0.03843500781505335  1.0000
  C   C9        1.0  0.4359631373381134  0.7339385613424411  0.9554058680507183  1.0000
  C   C10       1.0  0.0640352606848111  0.2339436351701991  0.0445901864562543  1.0000
  C   C11       1.0  0.5640327643730103  0.2660611480392419  0.04458749809679566  1.0000
  C   C12       1.0  0.9359660070346649  0.7660544313719555  0.9554122527856918  1.0000
  C   C13       1.0  0.5311945819198982  0.6579243761531544  0.9880780993231397  1.0000
  C   C14       1.0  0.9688041894877699  0.1579286285611445  0.01192086032621373  1.0000
  C   C15       1.0  0.4688040027953946  0.3420786189075997  0.011919407755023278  1.0000
  C   C16       1.0  0.0311970782317061  0.842072723660074  0.9880823701488666  1.0000
  C   C17       1.0  0.6029980340309251  0.649978782752072  0.10674625204159578  1.0000
  C   C18       1.0  0.8970007373767431  0.1499789280612305  0.8932534988408918  1.0000
  C   C19       1.0  0.3970005506843748  0.3500266765679783  0.8932496725702918  1.0000
  C   C20       1.0  0.1029987416732752  0.8500174956413886  0.10674987220192379  1.0000
  C   C21       1.0  0.7022888639320328  0.5753002261030673  0.14479673903235823  1.0000
  C   C22       1.0  0.7977108018103679  0.0753011928319935  0.8552033371828286  1.0000
  C   C23       1.0  0.2977115094527178  0.42470359037744737  0.8552022099443376  1.0000
  C   C24       1.0  0.20229314891328445  0.9246976951299288  0.1447984955909405  1.0000
  C   C25       1.0  0.7227270954152516  0.5054031539146919  0.0638175940244494  1.0000
  C   C26       1.0  0.7772716759924236  0.0054041206436182  0.9361829480911722  1.0000
  C   C27       1.0  0.2772697006305975  0.49460066256582275  0.9361816360877243  1.0000
  C   C28       1.0  0.2227260143881509  0.9945947673183042  0.0638181898199761  1.0000
  C   C29       1.0  0.8209089502566657  0.4325686846414172  0.10507981267075187  1.0000
  C   C30       1.0  0.6790889268162844  0.9325693607520265  0.8949196128790433  1.0000
  C   C31       1.0  0.1790896344586344  0.567431024740273  0.8949224418062371  1.0000
  C   C32       1.0  0.3209087635642902  0.0674295272098959  0.10507994256582978  1.0000
  C   C33       1.0  0.8926211802256817  0.43331206953007495  0.22017005700084977  1.0000
  C   C34       1.0  0.6073802741861698  0.9333119242209165  0.7798282961803267  1.0000
  C   C35       1.0  0.1073818761632452  0.5666901041109114  0.7798330329064882  1.0000
  C   C36       1.0  0.3926192048638555  0.0666869637410059  0.22017270116308643  1.0000
  C   C37       1.0  0.8667140918956591  0.5062516805334596  0.29418610105643234  1.0000
  C   C38       1.0  0.6332873625161852  0.0062518258426181  0.7058122521247441  1.0000
  C   C39       1.0  0.1332844928196337  0.493749671687759  0.7058121972548718  1.0000
  C   C40       1.0  0.3667147995380092  0.9937462406995365  0.29418655628420953  1.0000
  C   C41       1.0  0.5559336690983372  0.5880585179159041  0.9088114398611111  1.0000
  C   C42       1.0  0.9440677853135071  0.08805948464483039  0.09118849578634063  1.0000
  C   C43       1.0  0.4440667042864064  0.4119469414041461  0.09118750911558483  1.0000
  C   C44       1.0  0.0559316937365111  0.9119402247368597  0.9088140840233407  1.0000
  C   C45       1.0  0.6471182490469688  0.5134530676261164  0.9453642328414915  1.0000
  C   C46       1.0  0.8528832053648758  0.0134532129352749  0.05463570280596031  1.0000
  C   C47       1.0  0.3528874903461343  0.48654910601486984  0.05463825059767658  1.0000
  C   C48       1.0  0.1471189566893187  0.9865456750266474  0.9453670617686852  1.0000
  S   S1        1.0  0.6026403001406991  0.810333885303379  0.43942934838005954  1.0000
  S   S2        1.0  0.8973566825975183  0.3103373162916014  0.5605642132050761  1.0000
  S   S3        1.0  0.3973618619134953  0.1896625383992472  0.5605694600289013  1.0000
  S   S4        1.0  0.1026383247788729  0.6896623930900887  0.4394343662417057  1.0000
  S   S5        1.0  0.8855657735757348  0.6899901395769135  0.5522334080390152  1.0000
  S   S6        1.0  0.614432103497208  0.1899935705651359  0.44776918244332353  1.0000
  S   S7        1.0  0.1144390714826358  0.3100095698047767  0.44776795883431925  1.0000
  S   S8        1.0  0.3855629038791832  0.8100086030758504  0.5522301882365852  1.0000
  S   S9        1.0  0.6613032921290767  0.6544752345537432  0.6925443529780254  1.0000
  S   S10       1.0  0.838703528291127  0.1544819512210296  0.30745595219934063  1.0000
  S   S11       1.0  0.3387015529293009  0.34552201056864357  0.3074554314290268  1.0000
  S   S12       1.0  0.1613004224325252  0.8455235080990205  0.6925458805744213  1.0000
  S   S13       1.0  0.6630785465593121  0.3538208144693087  0.7027355749483419  1.0000
  S   S14       1.0  0.8369229078525395  0.8538223119996857  0.29726673439851936  1.0000
  S   S15       1.0  0.3369245098296147  0.6461788949123743  0.2972675149589961  1.0000
  S   S16       1.0  0.16307925420166214  0.1461757545424689  0.7027360301761262  1.0000
  S   S17       1.0  0.6209884713702891  0.4992351128882575  0.4460777633383657  1.0000
  S   S18       1.0  0.8790138773762877  0.9992325033198028  0.553920915175503  1.0000
  S   S19       1.0  0.37901369068391233  0.5007645964934255  0.5539218363037293  1.0000
  S   S20       1.0  0.12098917901263923  0.000764741802584  0.4460790097992842  1.0000
  N   N1        1.0  0.5816708338305006  0.7102981004633904  0.18748193089355422  1.0000
  N   N2        1.0  0.9183270432424422  0.2102974243527811  0.8125151209568243  1.0000
  N   N3        1.0  0.41832685655007407  0.2897081802764276  0.8125184157844529  1.0000
  N   N4        1.0  0.0816715414728506  0.7896998207696058  0.18748317735447978  1.0000
  N   N5        1.0  0.7744133822095307  0.5760764677823857  0.2580414717655586  1.0000
  N   N6        1.0  0.7255853891981374  0.0760766130915442  0.7419574878837876  1.0000
  N   N7        1.0  0.2255852025057692  0.42392488443883275  0.7419584090120138  1.0000
  N   N8        1.0  0.2744140898518808  0.9239214534506104  0.2580419269933429  1.0000
