data_image0
_chemical_formula_structural       Cu4H40C40I4N16
_chemical_formula_sum              "Cu4 H40 C40 I4 N16"
_cell_length_a       3.948548995799314
_cell_length_b       16.52082429929869
_cell_length_c       17.63267342648947
_cell_angle_alpha    89.27120594116904
_cell_angle_beta     83.89011259053942
_cell_angle_gamma    83.13664091731943

_space_group_name_H-M_alt    "P 1"
_space_group_IT_number       1

loop_
  _space_group_symop_operation_xyz
  'x, y, z'

loop_
  _atom_site_type_symbol
  _atom_site_label
  _atom_site_symmetry_multiplicity
  _atom_site_fract_x
  _atom_site_fract_y
  _atom_site_fract_z
  _atom_site_occupancy
  Cu  Cu1       1.0  0.43977743811598213  0.974975940230074  0.7867381450103038  1.0000
  Cu  Cu2       1.0  0.20152641788492084  0.0250834700324063  0.21314852070714346  1.0000
  Cu  Cu3       1.0  0.16395956391634312  0.5251384762842832  0.2866367962654834  1.0000
  Cu  Cu4       1.0  0.9765608555345932  0.4748764283924984  0.7131750148779901  1.0000
  H   H1        1.0  0.0560332738075715  0.6922252479706402  0.7546189633806079  1.0000
  H   H2        1.0  0.5027902106710159  0.3079006158376103  0.24589687684628098  1.0000
  H   H3        1.0  0.497596740088142  0.807880023560358  0.2546263635806625  1.0000
  H   H4        1.0  0.5597858381301538  0.1919477137902703  0.7458312927010695  1.0000
  H   H5        1.0  0.10683491405059434  0.6684360979168105  0.8940012499858767  1.0000
  H   H6        1.0  0.6693754510844059  0.3313001896001921  0.1067752452426376  1.0000
  H   H7        1.0  0.5250436390765932  0.8314777386291254  0.3940142767609629  1.0000
  H   H8        1.0  0.7499943767630912  0.1686469058480071  0.606717034711252  1.0000
  H   H9        1.0  0.2408311937636824  0.871294386524184  0.9999453729128119  1.0000
  H   H10       1.0  0.11146014584925018  0.1283888600893164  0.9996879791561001  1.0000
  H   H11       1.0  0.8616452593265792  0.6286054277139286  0.49985842763267385  1.0000
  H   H12       1.0  0.9890247383619555  0.3716320048913461  0.49966228544796815  1.0000
  H   H13       1.0  0.3214098661290664  0.9561640997877137  0.9398911813556408  1.0000
  H   H14       1.0  0.21796289311296846  0.04350268585573502  0.0598574432574921  1.0000
  H   H15       1.0  0.02687244269922245  0.5437948520094835  0.4397064510834098  1.0000
  H   H16       1.0  0.010820096852718748  0.4564541642413857  0.5599095367289593  1.0000
  H   H17       1.0  0.6202651705390495  0.9163108719592046  0.004972732055641404  1.0000
  H   H18       1.0  0.5406734989696461  0.0834302928822623  0.9953188524727707  1.0000
  H   H19       1.0  0.2861409865542799  0.5835883326133526  0.5047846438130037  1.0000
  H   H20       1.0  0.3734263133026304  0.4165600888205249  0.49534420550624964  1.0000
  H   H21       1.0  0.880898579759524  0.7161716917383032  0.6430717839199359  1.0000
  H   H22       1.0  0.242030671327484  0.2839633170533133  0.3571848237457971  1.0000
  H   H23       1.0  0.34693984457017996  0.7839341894582503  0.1429467653563421  1.0000
  H   H24       1.0  0.27652147975599234  0.2159770720737555  0.8571555889064867  1.0000
  H   H25       1.0  0.7382172096872067  0.7695991232046496  0.515197298418343  1.0000
  H   H26       1.0  0.02570121402948199  0.2306303837483767  0.4847536846895507  1.0000
  H   H27       1.0  0.2604570345126478  0.7302689884244771  0.014980340569259506  1.0000
  H   H28       1.0  0.008451999597326903  0.2694179161823698  0.9847990600073118  1.0000
  H   H29       1.0  0.4366827503141837  0.044595816200342114  0.5517619085677339  1.0000
  H   H30       1.0  0.034442435268765496  0.9557751331620281  0.44796281180163783  1.0000
  H   H31       1.0  0.2314585874660722  0.4553909075090985  0.0518777818512675  1.0000
  H   H32       1.0  0.7403741682435623  0.5441070007749218  0.9481158040200057  1.0000
  H   H33       1.0  0.3574093822299036  0.0577859305369515  0.6540276165507135  1.0000
  H   H34       1.0  0.06681707282761815  0.9424600373861267  0.34571684880630466  1.0000
  H   H35       1.0  0.16439057663227893  0.4423891798297603  0.15413636142802994  1.0000
  H   H36       1.0  0.7602025827262294  0.5575726839435262  0.8458774637594715  1.0000
  H   H37       1.0  0.047816131248140395  0.0216010603679422  0.6013003848469651  1.0000
  H   H38       1.0  0.6706392253341203  0.9789521789961172  0.3981502613816374  1.0000
  H   H39       1.0  0.8192623606468391  0.4784832098306994  0.10118068494637102  1.0000
  H   H40       1.0  0.4002436621306561  0.5210110404599817  0.898099989973218  1.0000
  C   C1        1.0  0.6195647278586243  0.8433570720170991  0.9055421567068364  1.0000
  C   C2        1.0  0.368829034886126  0.1563773865032303  0.0946136481943327  1.0000
  C   C3        1.0  0.21208041745848075  0.6566585786769394  0.4054538316251168  1.0000
  C   C4        1.0  0.27447364353638887  0.3435319096804008  0.5945930034444515  1.0000
  C   C5        1.0  0.7357940551019982  0.808438477211034  0.7773020199299339  1.0000
  C   C6        1.0  0.3215904772237011  0.19160569141251227  0.22286950320362559  1.0000
  C   C7        1.0  0.292811172117695  0.6917314188690611  0.2772524750613599  1.0000
  C   C8        1.0  0.2627923660367631  0.3083023854400082  0.7228647080724286  1.0000
  C   C9        1.0  0.9278403134075432  0.7362424915569079  0.7970036102038874  1.0000
  C   C10       1.0  0.46119390325996107  0.2637413201764431  0.20343104434493137  1.0000
  C   C11       1.0  0.4132939018231383  0.7638396126829079  0.2969751270126224  1.0000
  C   C12       1.0  0.47416791895377514  0.23613139607373776  0.703371221980646  1.0000
  C   C13       1.0  0.9560555002756318  0.7229438567510584  0.8742349110648178  1.0000
  C   C14       1.0  0.5536780231121412  0.2768149883915711  0.1263315951737241  1.0000
  C   C15       1.0  0.42851437758871236  0.7770327753473012  0.37421028302242115  1.0000
  C   C16       1.0  0.5795745510812366  0.2230766274908973  0.6262731953331837  1.0000
  C   C17       1.0  0.4408373676654378  0.9006900210448237  0.9655199335693893  1.0000
  C   C18       1.0  0.30694133670062473  0.09900419954871613  0.0344355445091438  1.0000
  C   C19       1.0  0.09094683191491998  0.5992475924578571  0.465367813701846  1.0000
  C   C20       1.0  0.15522300338523112  0.4009642341939994  0.534428740154972  1.0000
  C   C21       1.0  0.4779474105131175  0.9338600950319744  0.6165248212050826  1.0000
  C   C22       1.0  0.028537099343161402  0.0664517167713186  0.3831801712580542  1.0000
  C   C23       1.0  0.16167611005371185  0.5662366411812203  0.11645851849306149  1.0000
  C   C24       1.0  0.845872842048593  0.4335441519214811  0.8832195243886005  1.0000
  C   C25       1.0  0.6827571649826826  0.8319471811084044  0.6981693767152705  1.0000
  C   C26       1.0  0.21338350291242153  0.1682146529677411  0.3018719168978237  1.0000
  C   C27       1.0  0.2636823098613662  0.6682355179483963  0.1981016953825474  1.0000
  C   C28       1.0  0.13167934490431338  0.3317220781659813  0.801875332990093  1.0000
  C   C29       1.0  0.7657682282339169  0.7787880024873601  0.6364130451257635  1.0000
  C   C30       1.0  0.18215852518020634  0.2214079728600069  0.36366804714178597  1.0000
  C   C31       1.0  0.2942048729367953  0.7213361686759188  0.1363160891556774  1.0000
  C   C32       1.0  0.15420247464780365  0.2785330259326174  0.8636550908965503  1.0000
  C   C33       1.0  0.6874728021827043  0.8085866259415084  0.5654010526149448  1.0000
  C   C34       1.0  0.06283239500580617  0.1917014089050397  0.43449033918421515  1.0000
  C   C35       1.0  0.24705265167240495  0.69141195411693  0.0652642047677929  1.0000
  C   C36       1.0  0.0060324224233100935  0.3083072627644654  0.9345143285211819  1.0000
  C   C37       1.0  0.3245473592284827  0.0197818183443488  0.6054088004076446  1.0000
  C   C38       1.0  0.949500277778789  0.9805921793458054  0.3942271120160043  1.0000
  C   C39       1.0  0.09403628899911347  0.4803048905165213  0.10542484358279577  1.0000
  C   C40       1.0  0.6807496649310706  0.5193807947592148  0.8943021708686985  1.0000
  I   I1        1.0  0.8827350100795501  0.0645001773217473  0.8257462759659615  1.0000
  I   I2        1.0  0.7709536585156369  0.9354007198957819  0.174446656068227  1.0000
  I   I3        1.0  0.6964311491450131  0.435654814081559  0.3256884071363543  1.0000
  I   I4        1.0  0.4565270733835334  0.5645942021693031  0.6744164378241138  1.0000
  N   N1        1.0  0.8019613351901501  0.7753196151307122  0.9284175975690089  1.0000
  N   N2        1.0  0.5065462202496535  0.22429778760257346  0.0719851352237129  1.0000
  N   N3        1.0  0.32677895067436685  0.7246375076698115  0.4283660989627265  1.0000
  N   N4        1.0  0.4800376759057773  0.2756218728955346  0.5719434871694984  1.0000
  N   N5        1.0  0.5845048243405558  0.8624286299869581  0.8317106228010402  1.0000
  N   N6        1.0  0.27857178954177186  0.1375149438195962  0.1683206914269988  1.0000
  N   N7        1.0  0.19559278718033127  0.6377083441530331  0.33162735410913763  1.0000
  N   N8        1.0  0.16572470245598941  0.362409594002969  0.6683195425238253  1.0000
  N   N9        1.0  0.5435351318259126  0.8852349991620869  0.5550469448405266  1.0000
  N   N10       1.0  0.9845567954862631  0.11513351153805472  0.4446311983045064  1.0000
  N   N11       1.0  0.17976627590697086  0.6147568745752139  0.054920596001714686  1.0000
  N   N12       1.0  0.8512132267629231  0.3848812567870326  0.9446942766381595  1.0000
  N   N13       1.0  0.5400568758868829  0.9100355843758123  0.6880867460876557  1.0000
  N   N14       1.0  0.13854952048218655  0.0901433203359403  0.3118082189548375  1.0000
  N   N15       1.0  0.19915276202521442  0.5901355310353935  0.1880316393974226  1.0000
  N   N16       1.0  0.9788635017603725  0.4098117007645072  0.8118086098635473  1.0000
