data_image0
_chemical_formula_structural       Zn6H24C100O24F24
_chemical_formula_sum              "Zn6 H24 C100 O24 F24"
_cell_length_a       29.52802030399122
_cell_length_b       29.52828321496673
_cell_length_c       29.528258614389536
_cell_angle_alpha    61.94981907186766
_cell_angle_beta     74.64048431479112
_cell_angle_gamma    105.3596083548462

_space_group_name_H-M_alt    "P 1"
_space_group_IT_number       1

loop_
  _space_group_symop_operation_xyz
  'x, y, z'

loop_
  _atom_site_type_symbol
  _atom_site_label
  _atom_site_symmetry_multiplicity
  _atom_site_fract_x
  _atom_site_fract_y
  _atom_site_fract_z
  _atom_site_occupancy
  Zn  Zn1       1.0  0.536136061116693  1.129920967403601e-06  0.46386389960949265  1.0000
  Zn  Zn2       1.0  0.5361368104349751  0.5361370344588677  0.9999998821979046  1.0000
  Zn  Zn3       1.0  0.463862972030384  0.9999997352461346  0.5361363507119992  1.0000
  Zn  Zn4       1.0  0.46386419765585163  0.4638648192171856  3.961484723272364e-07  1.0000
  Zn  Zn5       1.0  0.9999998871763579  0.457906645228128  0.5420932190121732  1.0000
  Zn  Zn6       1.0  0.9999994931652836  0.5420927690317043  0.45790702415738577  1.0000
  H   H1        1.0  0.41509054193527817  0.5936812583207995  0.9021443026909848  1.0000
  H   H2        1.0  0.5041747473583912  0.09785538646509906  0.3172326895584304  1.0000
  H   H3        1.0  0.5849151388817688  0.6827685958999011  0.8214056551517432  1.0000
  H   H4        1.0  0.4958255326994916  0.17859224898106155  0.40631975681485233  1.0000
  H   H5        1.0  0.504174411083703  0.4063197559265602  0.17859240533402956  1.0000
  H   H6        1.0  0.584910003866021  0.9021443076188049  0.5936809160459832  1.0000
  H   H7        1.0  0.4958250841889864  0.31723298819537143  0.09785517094800154  1.0000
  H   H8        1.0  0.41508501744871745  0.8214061013796577  0.6827685897307563  1.0000
  H   H9        1.0  0.18790677967758282  0.759202262308811  0.42932182907325267  1.0000
  H   H10       1.0  0.8114860718849215  0.570690051782158  0.6172304632491644  1.0000
  H   H11       1.0  0.8120800104721299  0.3827703274239839  0.4287161139365664  1.0000
  H   H12       1.0  0.18851335790031953  0.5712857821891787  0.24079719021764845  1.0000
  H   H13       1.0  0.8114863410302392  0.24079696064406866  0.5712857923967221  1.0000
  H   H14       1.0  0.8120805283990862  0.4293076648159441  0.759203811182033  1.0000
  H   H15       1.0  0.1885241451363981  0.6172275649644589  0.5706801640401197  1.0000
  H   H16       1.0  0.18791929307565164  0.4287157552091685  0.382770905067531  1.0000
  H   H17       1.0  0.1182256180453507  0.6890163813241513  0.42950747851884336  1.0000
  H   H18       1.0  0.881486338207374  0.5705040340996206  0.5477350751742377  1.0000
  H   H19       1.0  0.8817627520506547  0.4522651219787831  0.4292203199101652  1.0000
  H   H20       1.0  0.11851427653594729  0.5707812844696604  0.3109832851665431  1.0000
  H   H21       1.0  0.8814854684468967  0.310983480807529  0.5707810591052791  1.0000
  H   H22       1.0  0.8817636187124762  0.42949659685238817  0.6890162595329486  1.0000
  H   H23       1.0  0.11852383276153229  0.5477327103492227  0.5704926327024468  1.0000
  H   H24       1.0  0.1182369927478319  0.4292202443450037  0.4522655201023652  1.0000
  C   C1        1.0  0.4276164047044019  0.9276151483602886  0.49999783780637597  1.0000
  C   C2        1.0  0.5723833060384322  0.49999878608220166  0.9276145788162322  1.0000
  C   C3        1.0  0.5723877632938966  0.07238521081836778  0.49999790626318236  1.0000
  C   C4        1.0  0.4276129621865578  0.49999954193757634  0.0723842112834278  1.0000
  C   C5        1.0  0.11431443789707169  0.6143140786236428  0.5000004454407404  1.0000
  C   C6        1.0  0.8856858557658498  0.49999998205924356  0.6143153841165512  1.0000
  C   C7        1.0  0.8856849902384525  0.38568506572045175  0.5000008496745708  1.0000
  C   C8        1.0  0.1143147573359684  0.5000005225755189  0.3856852955023554  1.0000
  C   C9        1.0  0.19268100843596866  0.6926803518314201  0.5000013628394698  1.0000
  C   C10       1.0  0.8073177570643677  0.49999901441722006  0.6926825454155292  1.0000
  C   C11       1.0  0.807318024710618  0.3073178272044217  0.5000001527900864  1.0000
  C   C12       1.0  0.1926820660597244  0.5000003270671057  0.307318213715277  1.0000
  C   C13       1.0  0.23225533263047987  0.7322546224722968  0.5000013418242162  1.0000
  C   C14       1.0  0.7677426690468251  0.4999980569780716  0.7322574575646144  1.0000
  C   C15       1.0  0.7677433055274677  0.2677429756902825  0.5000008905481365  1.0000
  C   C16       1.0  0.23225675908862795  0.5000007036329847  0.26774401830899575  1.0000
  C   C17       1.0  0.266293098628914  0.7662920263016627  0.5000020295525829  1.0000
  C   C18       1.0  0.7337049255440107  0.49999901405933395  0.7662946377851154  1.0000
  C   C19       1.0  0.7337051445407851  0.2337053757736314  0.5000017542845612  1.0000
  C   C20       1.0  0.2662945025915846  0.5000005140177988  0.23370647657190355  1.0000
  C   C21       1.0  0.29466279619369834  0.8391289060620011  0.5187464136528989  1.0000
  C   C22       1.0  0.6421232540655097  0.4812540165818504  0.8134098973661991  1.0000
  C   C23       1.0  0.7053358422632172  0.18659041617618746  0.45553494425706015  1.0000
  C   C24       1.0  0.3578765693573089  0.5444662811610285  0.16087001032536835  1.0000
  C   C25       1.0  0.6421222690476683  0.1608695547307732  0.5444669169052075  1.0000
  C   C26       1.0  0.705336473471341  0.5187470822180769  0.8391291333468588  1.0000
  C   C27       1.0  0.3578751838459411  0.8134076466007085  0.48125689409158673  1.0000
  C   C28       1.0  0.29466374434298354  0.4555341859281936  0.18659033743718825  1.0000
  C   C29       1.0  0.3334281833477561  0.8779390548415403  0.5188515692291489  1.0000
  C   C30       1.0  0.603208586858166  0.4811482795152529  0.8522814145414942  1.0000
  C   C31       1.0  0.6665704551083848  0.14771967056879726  0.45549016687342464  1.0000
  C   C32       1.0  0.3967908415753384  0.5445108408774926  0.12205992657891343  1.0000
  C   C33       1.0  0.6032079712096278  0.12206027716011653  0.5445104587102206  1.0000
  C   C34       1.0  0.6665715070247132  0.5188536497149698  0.8779372509546874  1.0000
  C   C35       1.0  0.3967902716621409  0.8522798335938686  0.481150659840054  1.0000
  C   C36       1.0  0.3334295007676999  0.45549129461792137  0.1477184888793915  1.0000
  C   C37       1.0  0.3857973590855721  0.8857982465990231  0.5000010175199991  1.0000
  C   C38       1.0  0.6142019290340387  0.5000015879722922  0.8857978764884679  1.0000
  C   C39       1.0  0.6142008840842905  0.11420184055459257  0.5000004855288012  1.0000
  C   C40       1.0  0.385798684067943  0.5000016017407916  0.11420052234210235  1.0000
  C   C41       1.0  0.305651758931262  0.8056504731531575  0.5000018783302879  1.0000
  C   C42       1.0  0.6943474762194198  0.5000000315286852  0.8056518912450632  1.0000
  C   C43       1.0  0.6943464842382951  0.19434731195321586  0.5000010477617067  1.0000
  C   C44       1.0  0.30565274189349617  0.5000002749129138  0.19434830887806953  1.0000
  C   C45       1.0  0.9273614929036568  0.5000000849391738  0.57263868886578  1.0000
  C   C46       1.0  0.9273610499084056  0.4273616818079304  0.4999996309449487  1.0000
  C   C47       1.0  0.0726383302204923  0.5000007907753313  0.427360670245001  1.0000
  C   C48       1.0  0.0726379832381667  0.5726387982222149  0.4999994461611336  1.0000
  C   C49       1.0  0.4999981037578464  0.9149394306320244  0.5850607709606881  1.0000
  C   C50       1.0  0.49999856328710013  0.4149385568803225  0.0850598832243677  1.0000
  C   C51       1.0  0.5000017193654713  0.08505990839544343  0.41493761871613083  1.0000
  C   C52       1.0  0.5000020498140287  0.5850611785334718  0.9149394654440002  1.0000
  C   C53       1.0  0.45190111811952244  0.6315187578756536  0.8663236759600678  1.0000
  C   C54       1.0  0.5021579475222567  0.13367646762474555  0.31822299842110613  1.0000
  C   C55       1.0  0.5481029831708213  0.6817780262001631  0.820379722003807  1.0000
  C   C56       1.0  0.4978427279521185  0.17961908443057686  0.3684812236310718  1.0000
  C   C57       1.0  0.50215758649113  0.368481510868328  0.17961905612950357  1.0000
  C   C58       1.0  0.5480986390373487  0.8663237023682981  0.6315183398866537  1.0000
  C   C59       1.0  0.49784190835357833  0.3182231300516278  0.13367638924742664  1.0000
  C   C60       1.0  0.4518971718267366  0.8203793817926481  0.6817781207511044  1.0000
  C   C61       1.0  0.5000032353503555  0.6341737821849731  0.8658267158166097  1.0000
  C   C62       1.0  0.5000001399819992  0.1341722832644904  0.3658280787053982  1.0000
  C   C63       1.0  0.49999974768341104  0.36582829042808374  0.13417192111067786  1.0000
  C   C64       1.0  0.49999652323291593  0.8658270132223573  0.6341735373208623  1.0000
  C   C65       1.0  0.5486354279923091  0.7274346487435608  0.7733369110250051  1.0000
  C   C66       1.0  0.4992283489629301  0.22666193329911974  0.3219723345416128  1.0000
  C   C67       1.0  0.45136748940197435  0.6780282055356961  0.8211994709274181  1.0000
  C   C68       1.0  0.5007719325933024  0.17880008569694888  0.2725661689840777  1.0000
  C   C69       1.0  0.49922752794138586  0.27256626354768787  0.17879983866099294  1.0000
  C   C70       1.0  0.45136433110060636  0.7733370909154472  0.7274346939522047  1.0000
  C   C71       1.0  0.5007719658330246  0.321972480757367  0.22666149971033184  1.0000
  C   C72       1.0  0.5486326636592053  0.8211999219891195  0.678027767216733  1.0000
  C   C73       1.0  0.5000008664918525  0.7266437772313025  0.7733559858150157  1.0000
  C   C74       1.0  0.5000005360444605  0.2266440448332503  0.27335612400138126  1.0000
  C   C75       1.0  0.5000001415982496  0.2733565401086864  0.22664366159082758  1.0000
  C   C76       1.0  0.4999992870795538  0.7733560634151855  0.7266435966259833  1.0000
  C   C77       1.0  0.596609173640104  0.7760675453176373  0.7244107437267077  1.0000
  C   C78       1.0  0.49952144670643867  0.2755881866712003  0.32102033114188805  1.0000
  C   C79       1.0  0.40339216437502756  0.6789786461699733  0.8205416109332402  1.0000
  C   C80       1.0  0.5004788354255468  0.1794583435820556  0.2239335128621462  1.0000
  C   C81       1.0  0.49952098839185055  0.22393405172723382  0.17945786779822018  1.0000
  C   C82       1.0  0.40339098024766434  0.7244111563781671  0.7760673417128671  1.0000
  C   C83       1.0  0.500478899795482  0.3210203788118378  0.2755879326036845  1.0000
  C   C84       1.0  0.5966075938908303  0.8205417507990302  0.6789784927848574  1.0000
  C   C85       1.0  0.17257212855433576  0.7128587253327295  0.4601337289775601  1.0000
  C   C86       1.0  0.8270142565435846  0.5398741507980701  0.6327069816231726  1.0000
  C   C87       1.0  0.827419005751608  0.36729330873082233  0.4597205997605442  1.0000
  C   C88       1.0  0.17298596250068243  0.5402808871212201  0.28714014291902856  1.0000
  C   C89       1.0  0.8270141415552671  0.2871398385979375  0.5402805454707149  1.0000
  C   C90       1.0  0.8274195141346966  0.4601241980846211  0.7128605652027102  1.0000
  C   C91       1.0  0.17299200045478358  0.632704474511797  0.5398687097675748  1.0000
  C   C92       1.0  0.17258030805827224  0.45972041262397306  0.3672939464958844  1.0000
  C   C93       1.0  0.1338861341402193  0.6739142063012054  0.46021446317290327  1.0000
  C   C94       1.0  0.8658775752461169  0.5397928333263594  0.5941020838288011  1.0000
  C   C95       1.0  0.8661057901389879  0.4058980375596517  0.45997920470625087  1.0000
  C   C96       1.0  0.134123433771741  0.5400224154431682  0.3260853953347294  1.0000
  C   C97       1.0  0.8658766958522648  0.3260853936709367  0.5400222449266892  1.0000
  C   C98       1.0  0.8661066678304152  0.46020735846212785  0.6739149072283864  1.0000
  C   C99       1.0  0.1341286561846502  0.5941006276047245  0.5397860903922194  1.0000
  C   C100      1.0  0.13389354935528527  0.45997916880197914  0.4058979343424624  1.0000
  O   O1        1.0  0.4754522939473417  0.9446188391771099  0.4673360320634574  1.0000
  O   O2        1.0  0.5880473880518197  0.5326661780261119  0.9427896151327103  1.0000
  O   O3        1.0  0.5245447642773442  0.05721082505438349  0.530834716690876  1.0000
  O   O4        1.0  0.4119532250718478  0.46916680031325336  0.055380325635866375  1.0000
  O   O5        1.0  0.5880474687938603  0.055381004648687344  0.4691662662552573  1.0000
  O   O6        1.0  0.5245470114581892  0.4673365901129428  0.9446179098583868  1.0000
  O   O7        1.0  0.4119519593212857  0.9427895057780231  0.5326663295814242  1.0000
  O   O8        1.0  0.4754551815770681  0.5308364511434717  0.05721005331844972  1.0000
  O   O9        1.0  0.5326984168038892  0.9346793955510786  0.534320300788572  1.0000
  O   O10       1.0  0.5310032109697147  0.46568458360282955  0.06702023773296158  1.0000
  O   O11       1.0  0.46729265629971195  0.9329808033263232  0.598026104675654  1.0000
  O   O12       1.0  0.46899747094293787  0.40197744405862307  0.06531939349118701  1.0000
  O   O13       1.0  0.5310027900977516  0.0653200897609807  0.4019771714562168  1.0000
  O   O14       1.0  0.46730053131379623  0.5343199169708014  0.9346800288489233  1.0000
  O   O15       1.0  0.46899511835476904  0.06701882227507379  0.46568462414700923  1.0000
  O   O16       1.0  0.532707912752649  0.5980268553014836  0.9329793266944931  1.0000
  O   O17       1.0  0.9436603000602874  0.4624973946222539  0.5937545810402085  1.0000
  O   O18       1.0  0.9437487403196201  0.40624620667222183  0.5374141702526529  1.0000
  O   O19       1.0  0.05634031217127951  0.46258653369926606  0.4811618396388724  1.0000
  O   O20       1.0  0.05625187191176911  0.5188373375652799  0.537502092691291  1.0000
  O   O21       1.0  0.943747593458326  0.5375006616284921  0.5188396017670199  1.0000
  O   O22       1.0  0.056339560240466796  0.593752793474266  0.4624993435810013  1.0000
  O   O23       1.0  0.0562514405583769  0.5374133262545157  0.406246534318953  1.0000
  O   O24       1.0  0.9436586837989082  0.4811604160442754  0.46258770673885846  1.0000
  F   F1        1.0  0.6430831469868891  0.7774627055078226  0.7235459519338008  1.0000
  F   F2        1.0  0.4989917819830438  0.2764522556697457  0.36662946332056373  1.0000
  F   F3        1.0  0.3569193754808353  0.6333696531708454  0.8656202092743682  1.0000
  F   F4        1.0  0.5010092896130729  0.13438024498531584  0.22253906170963225  1.0000
  F   F5        1.0  0.49899050349078783  0.22253953330862686  0.13437965942102892  1.0000
  F   F6        1.0  0.3569170072514183  0.723546356434525  0.7774625759138303  1.0000
  F   F7        1.0  0.5010089902212798  0.3666295084038608  0.27645142019877506  1.0000
  F   F8        1.0  0.6430803824344835  0.8656203835516151  0.6333694520356659  1.0000
  F   F9        1.0  0.2452560361719094  0.8335520289176158  0.5371191196824938  1.0000
  F   F10       1.0  0.6293271845193971  0.4628808084622234  0.7823764880607911  1.0000
  F   F11       1.0  0.7547429975693519  0.21762343284694918  0.41170622955717556  1.0000
  F   F12       1.0  0.37067263919911403  0.5882950479337695  0.16644812770329762  1.0000
  F   F13       1.0  0.6293254418810221  0.1664457503739243  0.5882969247069452  1.0000
  F   F14       1.0  0.7547436369384145  0.5371200560811927  0.8335516855445277  1.0000
  F   F15       1.0  0.37067201071693745  0.7823743584252297  0.4628839167307888  1.0000
  F   F16       1.0  0.2452569755687861  0.4117058505521882  0.21762254118250013  1.0000
  F   F17       1.0  0.3188076934173906  0.908527031074918  0.5366954112455602  1.0000
  F   F18       1.0  0.5547758598796975  0.4633020471341354  0.8555076792753482  1.0000
  F   F19       1.0  0.6811909453565475  0.144494895198008  0.41028323076201906  1.0000
  F   F20       1.0  0.4452235688717606  0.5897187405929641  0.09147264475696218  1.0000
  F   F21       1.0  0.5547748585867751  0.09147244106474511  0.5897175560285391  1.0000
  F   F22       1.0  0.6811928189412768  0.536700629464029  0.9085234814512261  1.0000
  F   F23       1.0  0.4452225939898256  0.8555052243413995  0.4633058323371417  1.0000
  F   F24       1.0  0.3188097684884923  0.4102842063693046  0.1444934779637635  1.0000
