data_image0
_chemical_formula_structural       Cu6H24C24N36
_chemical_formula_sum              "Cu6 H24 C24 N36"
_cell_length_a       12.061786139987493
_cell_length_b       12.35454833718636
_cell_length_c       12.536036591833062
_cell_angle_alpha    56.472731761958116
_cell_angle_beta     62.154151225475566
_cell_angle_gamma    62.7822401115931

_space_group_name_H-M_alt    "P 1"
_space_group_IT_number       1

loop_
  _space_group_symop_operation_xyz
  'x, y, z'

loop_
  _atom_site_type_symbol
  _atom_site_label
  _atom_site_symmetry_multiplicity
  _atom_site_fract_x
  _atom_site_fract_y
  _atom_site_fract_z
  _atom_site_occupancy
  Cu  Cu1       1.0  0.5000444322193546  0.4999781790598589  0.49998292318968407  1.0000
  Cu  Cu2       1.0  0.4999846825039214  2.449721789328877e-05  8.80563821681367e-06  1.0000
  Cu  Cu3       1.0  0.9999937413659908  0.5000217247805805  0.9999906067897015  1.0000
  Cu  Cu4       1.0  0.5000035980582994  0.5000058777526633  0.9999647562828357  1.0000
  Cu  Cu5       1.0  0.3633808717469975  0.3806737906937554  0.8777692890610922  1.0000
  Cu  Cu6       1.0  0.6366075451104438  0.6193300657627672  0.12222576258934476  1.0000
  H   H1        1.0  0.17303205221210768  0.6621524887004212  0.4861110881517874  1.0000
  H   H2        1.0  0.6677944619075049  0.9759178778871698  0.15303421834907732  1.0000
  H   H3        1.0  0.9589515060474554  0.6760578881738437  0.7114549113085218  1.0000
  H   H4        1.0  0.648390259859312  0.20124781047574183  0.17346801128311282  1.0000
  H   H5        1.0  0.6607442671098127  0.2141540753303631  0.4776630763404127  1.0000
  H   H6        1.0  0.2263940859298901  0.6520144990859434  0.162403136015314  1.0000
  H   H7        1.0  0.6605206988688653  0.9737187259168464  0.717583449524639  1.0000
  H   H8        1.0  0.9913192014230674  0.6623324805668885  0.15519515126541708  1.0000
  H   H9        1.0  0.6775094734134799  0.6484429236058344  0.4629882608695297  1.0000
  H   H10       1.0  0.9744287337313652  0.1860444326445151  0.17348935075383323  1.0000
  H   H11       1.0  0.6577925939141168  0.6770830296488554  0.6806647652025218  1.0000
  H   H12       1.0  0.1935087601103051  0.9656480403241685  0.15377790585608858  1.0000
  H   H13       1.0  0.8064834108122483  0.03435048345772901  0.8462305821692123  1.0000
  H   H14       1.0  0.3225324819233111  0.35151873725217087  0.5370180178085419  1.0000
  H   H15       1.0  0.025555903585860944  0.8139539063514005  0.8265264972468243  1.0000
  H   H16       1.0  0.3421928397212144  0.32295939349730673  0.3193155878950408  1.0000
  H   H17       1.0  0.33943325320817763  0.026247135545446526  0.28243204991955645  1.0000
  H   H18       1.0  0.7735929660962313  0.34798214896549257  0.8376228483891878  1.0000
  H   H19       1.0  0.33925231477908824  0.7858049849455853  0.522334187333598  1.0000
  H   H20       1.0  0.008668340400831333  0.3377147444140149  0.8447715986429286  1.0000
  H   H21       1.0  0.3321946822988621  0.024072213323641733  0.8470011434291749  1.0000
  H   H22       1.0  0.04107772176882216  0.32393398248229477  0.2885258223152647  1.0000
  H   H23       1.0  0.35158492220890747  0.7987305080518823  0.8265834722527997  1.0000
  H   H24       1.0  0.8269417003471918  0.33785292965641384  0.5138817098857301  1.0000
  C   C1        1.0  0.16682265413279398  0.6166726187090249  0.5908107440579328  1.0000
  C   C2        1.0  0.6156958503367277  0.08133635709267395  0.11047649395898428  1.0000
  C   C3        1.0  0.06149086637381632  0.624626856639665  0.7007566953970397  1.0000
  C   C4        1.0  0.6055774532950907  0.19139559561458708  0.12115116349973223  1.0000
  C   C5        1.0  0.6146414449656563  0.19618737976763606  0.5816455147930027  1.0000
  C   C6        1.0  0.20708146383073978  0.6117579085398361  0.11672757300201657  1.0000
  C   C7        1.0  0.61453172653502  0.07871260282058047  0.6989106809130519  1.0000
  C   C8        1.0  0.09192419141098206  0.6168451140294308  0.11284252001943426  1.0000
  C   C9        1.0  0.6213007727092476  0.6110402273354579  0.5671931302242541  1.0000
  C   C10       1.0  0.07707547731850181  0.1798436038190587  0.12255792590787708  1.0000
  C   C11       1.0  0.6105713086356844  0.6255539071370037  0.6738583968831406  1.0000
  C   C12       1.0  0.18444926201263462  0.0720350824672238  0.11196361483222718  1.0000
  C   C13       1.0  0.8155467238371306  0.9279649256340647  0.8880348784976418  1.0000
  C   C14       1.0  0.37869335162764645  0.38894985601644533  0.4328100885355183  1.0000
  C   C15       1.0  0.9229175021710602  0.82018047941866  0.8774323750320859  1.0000
  C   C16       1.0  0.3894224525233484  0.374451360633536  0.32616051151518377  1.0000
  C   C17       1.0  0.3854473667095276  0.9212699838791991  0.3011181785119136  1.0000
  C   C18       1.0  0.7929202439011293  0.38824023261123847  0.883283952496029  1.0000
  C   C19       1.0  0.38536542651642247  0.8038080954325579  0.4183480638185203  1.0000
  C   C20       1.0  0.9080739104884403  0.38315973484553484  0.8871589635809087  1.0000
  C   C21       1.0  0.3842863454769728  0.9186646509890011  0.8895351285024162  1.0000
  C   C22       1.0  0.938524115047713  0.37537167920586256  0.2992378789098923  1.0000
  C   C23       1.0  0.39440570356303106  0.808608142940052  0.8788744644527354  1.0000
  C   C24       1.0  0.8332109418067264  0.3833091205726263  0.40917485670415493  1.0000
  N   N1        1.0  0.2740826716974354  0.5369693995689034  0.6340560254375589  1.0000
  N   N2        1.0  0.5426357984690853  0.1265066995377353  0.031052011938108175  1.0000
  N   N3        1.0  0.10809430864412672  0.5491801115037376  0.8079900608265476  1.0000
  N   N4        1.0  0.5268827514302714  0.2998846694407148  0.04760958685052689  1.0000
  N   N5        1.0  0.5406765335224366  0.29958374251607706  0.6176183250832067  1.0000
  N   N6        1.0  0.3049831913216111  0.5415614744409111  0.047082266639691325  1.0000
  N   N7        1.0  0.540383246408652  0.11620839416987386  0.8006663692153281  1.0000
  N   N8        1.0  0.12422982729967924  0.5497039420585279  0.041227863932014955  1.0000
  N   N9        1.0  0.5415813075593549  0.5350536798864525  0.6147161962954113  1.0000
  N   N10       1.0  0.12068497474495386  0.2911439007685673  0.05173804348081033  1.0000
  N   N11       1.0  0.5248995241194409  0.558304732050857  0.7825373717572788  1.0000
  N   N12       1.0  0.2901658386872512  0.12099640935499421  0.03478870932358552  1.0000
  N   N13       1.0  0.7098358626461381  0.8789955049793362  0.9652064608341318  1.0000
  N   N14       1.0  0.45843299922811576  0.46495411846238693  0.3852542108360525  1.0000
  N   N15       1.0  0.8792775550674959  0.7088833507056124  0.9482693289893546  1.0000
  N   N16       1.0  0.4751019108734268  0.44169641621726186  0.21748906142433105  1.0000
  N   N17       1.0  0.4596064981844918  0.8837618982477622  0.19935567732719045  1.0000
  N   N18       1.0  0.6950268788356625  0.4584495655952168  0.9529095293339296  1.0000
  N   N19       1.0  0.4593477642391194  0.7004272898096174  0.3823540507903544  1.0000
  N   N20       1.0  0.8757592967967015  0.4503046349077734  0.9587735965687898  1.0000
  N   N21       1.0  0.4573624943630393  0.873464551856287  0.9689648583909828  1.0000
  N   N22       1.0  0.8919199777472003  0.4508348918031259  0.19200261250981754  1.0000
  N   N23       1.0  0.47311659646131005  0.7001410907612919  0.9523955024371203  1.0000
  N   N24       1.0  0.7259530129088887  0.4630268929653381  0.36591027365872014  1.0000
  N   N25       1.0  0.23636678457727833  0.4978979332227879  0.76475939154205  1.0000
  N   N26       1.0  0.49016508692455585  0.25833193735932997  0.994287615551222  1.0000
  N   N27       1.0  0.4962971103732913  0.24966832620668816  0.7501448053496913  1.0000
  N   N28       1.0  0.25311925113699374  0.5050920534473277  0.0023449124446060896  1.0000
  N   N29       1.0  0.48468267961697376  0.5046080236409693  0.7447509397703767  1.0000
  N   N30       1.0  0.24904831714825096  0.2524062910798364  0.0005417778529094003  1.0000
  N   N31       1.0  0.7509270624971409  0.747595650246602  0.999472480331775  1.0000
  N   N32       1.0  0.5153362888338578  0.4954047691875159  0.25523064721499367  1.0000
  N   N33       1.0  0.5037303434437562  0.7503138181540477  0.24983939551029988  1.0000
  N   N34       1.0  0.7468748746223427  0.4949315546923285  0.997645744496566  1.0000
  N   N35       1.0  0.5098480849676577  0.7416552649332999  0.00572770807828968  1.0000
  N   N36       1.0  0.7636574256706368  0.5021129006489173  0.2352142425252168  1.0000
