data_image0
_chemical_formula_structural       CdH24C38N18
_chemical_formula_sum              "Cd1 H24 C38 N18"
_cell_length_a       7.959630055157535
_cell_length_b       9.425560583442332
_cell_length_c       12.790384609306773
_cell_angle_alpha    87.92389031555592
_cell_angle_beta     85.08184567951935
_cell_angle_gamma    70.97961062413633

_space_group_name_H-M_alt    "P 1"
_space_group_IT_number       1

loop_
  _space_group_symop_operation_xyz
  'x, y, z'

loop_
  _atom_site_type_symbol
  _atom_site_label
  _atom_site_symmetry_multiplicity
  _atom_site_fract_x
  _atom_site_fract_y
  _atom_site_fract_z
  _atom_site_occupancy
  Cd  Cd1       1.0  0.9999980091304292  0.4999996610122112  0.500001505619217  1.0000
  H   H1        1.0  0.1944745592423657  0.5103042244400557  0.9674366537997869  1.0000
  H   H2        1.0  0.8055389012112428  0.48969431392042395  0.032559079996985915  1.0000
  H   H3        1.0  0.33619234666740294  0.504617676559384  0.1331960747670919  1.0000
  H   H4        1.0  0.6638142869951337  0.4953853028059215  0.8668006363894991  1.0000
  H   H5        1.0  0.4214830906681967  0.26475408412709106  0.23980746526178365  1.0000
  H   H6        1.0  0.5785145359978046  0.7352521748194933  0.760194247373235  1.0000
  H   H7        1.0  0.37388540891309663  0.03642965030302041  0.1673612802856539  1.0000
  H   H8        1.0  0.6261095808439731  0.9635731781005108  0.8326476490102979  1.0000
  H   H9        1.0  0.9385524226109255  0.9740195725326404  0.7367330405391643  1.0000
  H   H10       1.0  0.0614456591008619  0.025982176304971506  0.2632710896702761  1.0000
  H   H11       1.0  0.8854173149489738  0.8308744486522742  0.5964750834680359  1.0000
  H   H12       1.0  0.11457656319133484  0.16912500118699822  0.4035316141062922  1.0000
  H   H13       1.0  0.283810213902761  0.44237036893807885  0.678833644518619  1.0000
  H   H14       1.0  0.7161800293977122  0.5576290680571675  0.3211685129694786  1.0000
  H   H15       1.0  0.3559890766886936  0.5720525102228253  0.8266569557796332  1.0000
  H   H16       1.0  0.6440087947816124  0.42794700697184157  0.1733417541727817  1.0000
  H   H17       1.0  0.3850001221668151  0.9820713987878521  0.701236579743757  1.0000
  H   H18       1.0  0.6149937904107857  0.017931445776106607  0.2987661382995626  1.0000
  H   H19       1.0  0.7002929725672331  0.8476866014410265  0.45185690087316743  1.0000
  H   H20       1.0  0.2997022412461874  0.15231626103211945  0.5481441986051935  1.0000
  H   H21       1.0  0.1611458622147026  0.5821424003429457  0.2896696007247002  1.0000
  H   H22       1.0  0.8388483830065283  0.4178593049879994  0.7103370362343356  1.0000
  H   H23       1.0  0.9068791085431797  0.2591117995994879  0.8740745264978288  1.0000
  H   H24       1.0  0.09312063982766715  0.7408854434104911  0.12593353464810522  1.0000
  C   C1        1.0  0.23882052368363557  0.40595611891246364  0.012455153744667801  1.0000
  C   C2        1.0  0.7611916579397898  0.5940424049457962  0.987541415635306  1.0000
  C   C3        1.0  0.31568189605904706  0.40330122411094765  0.10679594902152453  1.0000
  C   C4        1.0  0.6843221127262139  0.596701716029024  0.8932047822467483  1.0000
  C   C5        1.0  0.36479369292376873  0.2696725495686465  0.16464818836463024  1.0000
  C   C6        1.0  0.6352069912596647  0.7303292350873393  0.8353527047148859  1.0000
  C   C7        1.0  0.33908889780657586  0.14343973699447332  0.125249254146361  1.0000
  C   C8        1.0  0.6609137649315927  0.8565631784223912  0.8747546616503856  1.0000
  C   C9        1.0  0.2645355676216639  0.15647784003590462  0.02807941503681381  1.0000
  C   C10       1.0  0.7354697855530077  0.8435183455986817  0.9719237418197297  1.0000
  C   C11       1.0  0.2400306654061239  0.023387698935522408  0.9850715685302945  1.0000
  C   C12       1.0  0.7599724747834743  0.976610709779337  0.01493398185911591  1.0000
  C   C13       1.0  0.19559126134785743  0.8587217065371677  0.8829330966750035  1.0000
  C   C14       1.0  0.8044132697000989  0.1412767337147116  0.11706770322241064  1.0000
  C   C15       1.0  0.15457245500556369  0.7846540674371882  0.7948811693592006  1.0000
  C   C16       1.0  0.8454275726068871  0.21533982854555944  0.20511990957312073  1.0000
  C   C17       1.0  0.021503919678018218  0.8571931199727916  0.7281091380922718  1.0000
  C   C18       1.0  0.9784908598375708  0.14280747678779454  0.27189437094666163  1.0000
  C   C19       1.0  0.989771619158361  0.7754781919684678  0.6481872799448214  1.0000
  C   C20       1.0  0.010222303793220476  0.22452126468472508  0.3518178516659916  1.0000
  C   C21       1.0  0.21008590872596494  0.5600937104728915  0.6950299565093943  1.0000
  C   C22       1.0  0.7899103168332288  0.43990353672787574  0.3049696496415137  1.0000
  C   C23       1.0  0.25036264707667033  0.6323312273396983  0.7772034159761461  1.0000
  C   C24       1.0  0.7496377924279827  0.36766493094864233  0.22279603637736056  1.0000
  C   C25       1.0  0.15158554988959586  0.10971525103439461  0.7994635694304649  1.0000
  C   C26       1.0  0.848415489343104  0.8902853977955378  0.20054045958301717  1.0000
  C   C27       1.0  0.2638623926511556  0.07837577499105211  0.707582946161047  1.0000
  C   C28       1.0  0.7361350221156827  0.9216214730840874  0.29241895633369813  1.0000
  C   C29       1.0  0.21558951957625533  0.1733831126483665  0.6214828724413197  1.0000
  C   C30       1.0  0.7844027470902333  0.8266174619216927  0.3785207418004859  1.0000
  C   C31       1.0  0.04079238924752097  0.6791237458514134  0.28689255894214943  1.0000
  C   C32       1.0  0.9592032572060489  0.3208746031057927  0.7131117410923908  1.0000
  C   C33       1.0  0.9964734172260422  0.23337323941758112  0.8031989215873736  1.0000
  C   C34       1.0  0.0035280442728264426  0.7666262838071775  0.19680589441479412  1.0000
  C   C35       1.0  0.5673672646960525  0.6709030189435056  0.5555115406759868  1.0000
  C   C36       1.0  0.43262835229327823  0.32911227297449847  0.44447990853932146  1.0000
  C   C37       1.0  0.35023853387429676  0.8347281115554427  0.461798889918093  1.0000
  C   C38       1.0  0.6497667261856606  0.16527382903692006  0.5381736580137756  1.0000
  N   N1        1.0  0.21384632231733042  0.2854304279767845  0.9728029580717675  1.0000
  N   N2        1.0  0.7861678930460843  0.714565845545522  0.027197481629414703  1.0000
  N   N3        1.0  0.2710723556081118  0.8938146546149784  0.03728697765303221  1.0000
  N   N4        1.0  0.7289317859532857  0.10618152673826844  0.9627146658414318  1.0000
  N   N5        1.0  0.2431771142462295  0.7916393412623678  0.9740473850575315  1.0000
  N   N6        1.0  0.7568249487638993  0.20835908361291197  0.025951954079246806  1.0000
  N   N7        1.0  0.19008865903805366  0.006833909353474602  0.8862690914975317  1.0000
  N   N8        1.0  0.8099110461792093  0.9931701060710768  0.11373492549517296  1.0000
  N   N9        1.0  0.08110893258034922  0.6298147580846064  0.6315674721304988  1.0000
  N   N10       1.0  0.9188845681050565  0.3701858241737528  0.3684368724916354  1.0000
  N   N11       1.0  0.06662703072350235  0.2928213847425455  0.623806098394745  1.0000
  N   N12       1.0  0.933369505073692  0.707174719818241  0.3761982096536443  1.0000
  N   N13       1.0  0.7045365445706794  0.5779957799904026  0.5723390723558595  1.0000
  N   N14       1.0  0.2954533763346063  0.4220137764466544  0.4276660231926215  1.0000
  N   N15       1.0  0.41546896490368795  0.7736055140029454  0.5493373651698334  1.0000
  N   N16       1.0  0.5845234964804434  0.22639966947795648  0.4506411250265431  1.0000
  N   N17       1.0  0.28240672631871877  0.8991536585960705  0.3876329073391887  1.0000
  N   N18       1.0  0.7176051934444132  0.10083483693395583  0.6123372871290657  1.0000
