data_image0
_chemical_formula_structural       Zn4H26C40S2N10O14
_chemical_formula_sum              "Zn4 H26 C40 S2 N10 O14"
_cell_length_a       7.792458869411056
_cell_length_b       10.528655673275882
_cell_length_c       14.48680626718954
_cell_angle_alpha    69.22310469551124
_cell_angle_beta     80.03944730058636
_cell_angle_gamma    89.03276069223926

_space_group_name_H-M_alt    "P 1"
_space_group_IT_number       1

loop_
  _space_group_symop_operation_xyz
  'x, y, z'

loop_
  _atom_site_type_symbol
  _atom_site_label
  _atom_site_symmetry_multiplicity
  _atom_site_fract_x
  _atom_site_fract_y
  _atom_site_fract_z
  _atom_site_occupancy
  Zn  Zn1       1.0  0.17079888840625304  0.038193170685495714  0.12744526751083635  1.0000
  Zn  Zn2       1.0  0.8292005714171681  0.9618076807748823  0.8725546400174905  1.0000
  Zn  Zn3       1.0  0.4853341778255923  0.8759135762620361  0.1030761451240352  1.0000
  Zn  Zn4       1.0  0.51466645625991  0.12408524014010419  0.8969241701195472  1.0000
  H   H1        1.0  0.7700206105673787  0.7281226164787427  0.32668174420733453  1.0000
  H   H2        1.0  0.2299787323902365  0.2718761943221111  0.6733200763688599  1.0000
  H   H3        1.0  0.6104450562893078  0.5138958616486847  0.44242403807970015  1.0000
  H   H4        1.0  0.38955304810995983  0.48610396717841564  0.5575776407283399  1.0000
  H   H5        1.0  0.24635753944187397  0.5169877891598773  0.31506492874180486  1.0000
  H   H6        1.0  0.7536404654809986  0.4830110424219001  0.684932872552416  1.0000
  H   H7        1.0  0.0857449757391677  0.2986138272335666  0.434382412312786  1.0000
  H   H8        1.0  0.9142530233203489  0.7013850076459891  0.5656146984046088  1.0000
  H   H9        1.0  0.41271917856354184  0.2846656981057976  0.4439272252856057  1.0000
  H   H10       1.0  0.5872776112544074  0.715334138311121  0.5560731965477501  1.0000
  H   H11       1.0  0.3085648562827288  0.20595950097153087  0.316764785677293  1.0000
  H   H12       1.0  0.6914334234152405  0.7940433888448483  0.6832340235589527  1.0000
  H   H13       1.0  0.8766699237631598  0.0589237970064147  0.4241615297084067  1.0000
  H   H14       1.0  0.1233281630460468  0.9410760417140197  0.5758380773691697  1.0000
  H   H15       1.0  0.7699613328340718  0.979588419964159  0.299629745329547  1.0000
  H   H16       1.0  0.23003694100054162  0.020414473149990897  0.7003683733298729  1.0000
  H   H17       1.0  0.4921589877054232  0.39383103918537904  0.10240291906857378  1.0000
  H   H18       1.0  0.5078389822379776  0.6061667588755312  0.8975986010568704  1.0000
  H   H19       1.0  0.3665761735887258  0.6147363555152977  0.10099442922390987  1.0000
  H   H20       1.0  0.633423414827206  0.3852665300090409  0.8990049464101943  1.0000
  H   H21       1.0  0.985082650367879  0.5493463061279087  0.1270152395248374  1.0000
  H   H22       1.0  0.014921769552280794  0.45065046992969116  0.8729859256529124  1.0000
  H   H23       1.0  0.838798721089219  0.7636961804757121  0.12582220801090213  1.0000
  H   H24       1.0  0.16120551180552664  0.23629754118816493  0.8741804455849974  1.0000
  H   H25       1.0  0.24659852955395684  0.9458271275595747  0.9901205327871239  1.0000
  H   H26       1.0  0.7534010004290722  0.054174737635001684  0.009879799370906973  1.0000
  C   C1        1.0  0.11539647698047868  0.7609091150622546  0.2397643266443765  1.0000
  C   C2        1.0  0.8846027840908094  0.23908868859994206  0.7602356881484623  1.0000
  C   C3        1.0  0.017640869760462898  0.6341539472468227  0.3131959395528198  1.0000
  C   C4        1.0  0.9823572229120928  0.3658458881758265  0.6868043581015755  1.0000
  C   C5        1.0  0.8390285495979911  0.6343228136023811  0.3497516747568739  1.0000
  C   C6        1.0  0.16097085179252696  0.36567701752823467  0.650249189295387  1.0000
  C   C7        1.0  0.7494333335205496  0.5139712364806995  0.4147625126256713  1.0000
  C   C8        1.0  0.25056737072456775  0.4860285936556466  0.5852382272476289  1.0000
  C   C9        1.0  0.1070155740132677  0.5137109987234183  0.3435601054628705  1.0000
  C   C10       1.0  0.8929825888189029  0.48628985043343675  0.6564406168212429  1.0000
  C   C11       1.0  0.018728372554058098  0.39314693805162193  0.409125704338976  1.0000
  C   C12       1.0  0.9812721679184051  0.6068508778074247  0.5908714239676128  1.0000
  C   C13       1.0  0.8402041527164529  0.394614787345816  0.4437990754077461  1.0000
  C   C14       1.0  0.15979400425236173  0.6053860651088171  0.5562009562995414  1.0000
  C   C15       1.0  0.6503409931279691  0.1771999912583553  0.43922259596813257  1.0000
  C   C16       1.0  0.3496531851174253  0.8227998504448735  0.5607773836463252  1.0000
  C   C17       1.0  0.4903439571446384  0.2196431040058612  0.4105609541597843  1.0000
  C   C18       1.0  0.5096540653683022  0.780355717682582  0.5894389188649071  1.0000
  C   C19       1.0  0.4327564295931979  0.17586255854433827  0.3407973599500025  1.0000
  C   C20       1.0  0.5672417156489047  0.8241383005058508  0.6592012906036403  1.0000
  C   C21       1.0  0.7529070172942198  0.09141633744734182  0.4001822170660816  1.0000
  C   C22       1.0  0.24709243666583797  0.9085845173108068  0.5998169998854195  1.0000
  C   C23       1.0  0.6932708949483198  0.04713735271403861  0.3308706939646697  1.0000
  C   C24       1.0  0.30672744318254536  0.9528665574321028  0.6691271587476421  1.0000
  C   C25       1.0  0.5339734039973366  0.08999531563674168  0.3006701717535236  1.0000
  C   C26       1.0  0.4660262369881352  0.9100085935151299  0.6993275567798279  1.0000
  C   C27       1.0  0.4678198114502621  0.043471194816980606  0.2264407135367748  1.0000
  C   C28       1.0  0.5321797009426985  0.9565306802709301  0.7735575468907995  1.0000
  C   C29       1.0  0.8293410234725158  0.33636031731524696  0.09800237135642222  1.0000
  C   C30       1.0  0.17065968077260144  0.6636395128211064  0.9019983685168709  1.0000
  C   C31       1.0  0.7508971647470942  0.4566378537696068  0.1108581172052325  1.0000
  C   C32       1.0  0.2491087626431536  0.5433619657941264  0.8891435071058638  1.0000
  C   C33       1.0  0.5728801032164269  0.4737922062935739  0.10734235585746892  1.0000
  C   C34       1.0  0.4271243692732725  0.5262055933915663  0.8926571622195212  1.0000
  C   C35       1.0  0.5022397902602478  0.5952204858991196  0.1073755124875291  1.0000
  C   C36       1.0  0.4977620180873501  0.40477629544479043  0.8926252104713227  1.0000
  C   C37       1.0  0.8476209077452879  0.5600175769341789  0.12144724201415615  1.0000
  C   C38       1.0  0.1523824139357473  0.4399822446180792  0.8785546306548611  1.0000
  C   C39       1.0  0.7671895873267118  0.6791103453434959  0.12058920319105941  1.0000
  C   C40       1.0  0.2328109883259017  0.32088745072888974  0.8794120685764568  1.0000
  S   S1        1.0  0.7250062894876094  0.2396527746203745  0.5252965793540341  1.0000
  S   S2        1.0  0.2750096456451416  0.7603409512862314  0.47470219432392474  1.0000
  N   N1        1.0  0.9948656508833055  0.1772617043259928  0.09650408578991689  1.0000
  N   N2        1.0  0.005136362079774396  0.8227381215183129  0.9034972204812348  1.0000
  N   N3        1.0  0.8617106044217309  0.1648084257456617  0.052507243309719294  1.0000
  N   N4        1.0  0.1382926412363332  0.8351903853701756  0.9474935141527681  1.0000
  N   N5        1.0  0.755611061345391  0.26376661419095626  0.05278374537138571  1.0000
  N   N6        1.0  0.2443908697313617  0.7362322045146996  0.9472157551164172  1.0000
  N   N7        1.0  0.9795011402716368  0.2845136463345809  0.1253186078225923  1.0000
  N   N8        1.0  0.020498261118881082  0.7154861847960347  0.8746822562296616  1.0000
  N   N9        1.0  0.5985389825064189  0.6979304852408319  0.1113106018829129  1.0000
  N   N10       1.0  0.4014629135908621  0.3020672999439498  0.8886926174361065  1.0000
  O   O1        1.0  0.3195594517466915  0.9973921693751111  0.016656842129258147  1.0000
  O   O2        1.0  0.6804400723729814  0.0026096991172437  0.9833427994519537  1.0000
  O   O3        1.0  0.029908206924744683  0.8696484315135604  0.2137589635438674  1.0000
  O   O4        1.0  0.9700898916111668  0.13035140061131759  0.786242024687354  1.0000
  O   O5        1.0  0.2742049757639933  0.7512390140575178  0.20692986670467658  1.0000
  O   O6        1.0  0.7257932455010804  0.24876285542909934  0.793069899055503  1.0000
  O   O7        1.0  0.5527125821802202  0.9553928663057578  0.19869430982824804  1.0000
  O   O8        1.0  0.4472871172381544  0.044612063175876016  0.8013024621811623  1.0000
  O   O9        1.0  0.32973473771646405  0.09779766714538603  0.1966522736926137  1.0000
  O   O10       1.0  0.6702635419815053  0.9022052226709931  0.8033465355436319  1.0000
  O   O11       1.0  0.8494115006512644  0.14694102008584764  0.5740631865961278  1.0000
  O   O12       1.0  0.1505818832462182  0.8530669621652791  0.42593409904358026  1.0000
  O   O13       1.0  0.5737080576476999  0.2743121979854308  0.5840137382229003  1.0000
  O   O14       1.0  0.4262796180513888  0.7256876420935684  0.41598824344001156  1.0000
