data_image0
_chemical_formula_structural       Co3H24C40S2N6O12
_chemical_formula_sum              "Co3 H24 C40 S2 N6 O12"
_cell_length_a       9.053709774262394
_cell_length_b       11.74906150682916
_cell_length_c       11.438575615802197
_cell_angle_alpha    115.23470362827169
_cell_angle_beta     99.17531714879864
_cell_angle_gamma    105.24742102055554

_space_group_name_H-M_alt    "P 1"
_space_group_IT_number       1

loop_
  _space_group_symop_operation_xyz
  'x, y, z'

loop_
  _atom_site_type_symbol
  _atom_site_label
  _atom_site_symmetry_multiplicity
  _atom_site_fract_x
  _atom_site_fract_y
  _atom_site_fract_z
  _atom_site_occupancy
  Co  Co1       1.0  0.49999396376588834  6.169808273016813e-07  0.4999996598411443  1.0000
  Co  Co2       1.0  0.8786583985231429  0.9995596832943219  0.6120364280474389  1.0000
  Co  Co3       1.0  0.121335965282185  0.0004431524922807998  0.3879657747200866  1.0000
  H   H1        1.0  0.0029725408359980074  0.29496136208793894  0.0024556963764865215  1.0000
  H   H2        1.0  0.9970310117548563  0.7050395948986646  0.9975363014496921  1.0000
  H   H3        1.0  0.02309386598832929  0.458834324969068  0.2399967245923448  1.0000
  H   H4        1.0  0.9769231055141745  0.541171699304691  0.7600018125694205  1.0000
  H   H5        1.0  0.645460366395035  0.5598277277826823  0.07736390059224607  1.0000
  H   H6        1.0  0.35454520385557237  0.4401750706515983  0.9226457809908766  1.0000
  H   H7        1.0  0.6199877405254597  0.3885488699446426  0.8395257915567099  1.0000
  H   H8        1.0  0.38000998877974723  0.6114538963262034  0.1604837874604001  1.0000
  H   H9        1.0  0.6900622229601866  0.25408784738063156  0.45622762281607265  1.0000
  H   H10       1.0  0.3099301602286745  0.7459079004387377  0.5437711625269159  1.0000
  H   H11       1.0  0.8813322315566905  0.4329800151283293  0.43478716905094217  1.0000
  H   H12       1.0  0.11866332733253424  0.5670076772660834  0.5652057756601677  1.0000
  H   H13       1.0  0.48849367550143785  0.5320495746081874  0.2911574714216413  1.0000
  H   H14       1.0  0.5115139174160318  0.4679503425563637  0.708838053799994  1.0000
  H   H15       1.0  0.29478781725865844  0.34816589335142106  0.31021038884353647  1.0000
  H   H16       1.0  0.7052139396795807  0.6518360406416405  0.6897844489753026  1.0000
  H   H17       1.0  0.3971316203491498  0.920390837912052  0.15586857431160442  1.0000
  H   H18       1.0  0.6028598452828432  0.07960804143644398  0.8441227579954357  1.0000
  H   H19       1.0  0.44033791683635565  0.8587491160506456  0.9312985755996904  1.0000
  H   H20       1.0  0.5596620955665159  0.14124367746601507  0.06869457742130437  1.0000
  H   H21       1.0  0.7072015582195448  0.8692913722481349  0.9022634126408348  1.0000
  H   H22       1.0  0.29280179110230614  0.1307064599094971  0.09773502935981777  1.0000
  H   H23       1.0  0.9412455608817966  0.9310345062313343  0.0964221349567679  1.0000
  H   H24       1.0  0.058755056925441806  0.0689723746065809  0.9035843955922617  1.0000
  C   C1        1.0  0.7843400346784436  0.22140520975342065  0.7685570261784987  1.0000
  C   C2        1.0  0.21565435408104608  0.7785925771748123  0.2314420442607385  1.0000
  C   C3        1.0  0.8092865984611706  0.3320410602644727  0.908369771633609  1.0000
  C   C4        1.0  0.19071224502087597  0.6679618080198819  0.09163124698158483  1.0000
  C   C5        1.0  0.9245409096230046  0.352568607079128  0.02034400191304525  1.0000
  C   C6        1.0  0.07546642286366285  0.6474384015699002  0.9796537929432175  1.0000
  C   C7        1.0  0.9356466904507741  0.44310751306019824  0.15182246597549923  1.0000
  C   C8        1.0  0.06436244071078086  0.5568984691670735  0.8481768385532861  1.0000
  C   C9        1.0  0.8320356851164306  0.5143506641057982  0.16977163598069467  1.0000
  C   C10       1.0  0.16797435816187797  0.48565227553989126  0.8302272921867128  1.0000
  C   C11       1.0  0.7211335333208025  0.49966722943635483  0.05913551007027703  1.0000
  C   C12       1.0  0.2788679947898202  0.5003366384691573  0.940868034318278  1.0000
  C   C13       1.0  0.7093103990339672  0.40717886376557993  0.9282260330991292  1.0000
  C   C14       1.0  0.29068709237677126  0.5928259846636122  0.07177920349217695  1.0000
  C   C15       1.0  0.3663679565574327  0.17686491697747184  0.3880060935037051  1.0000
  C   C16       1.0  0.6336331291808008  0.8231379280235273  0.6119978127674698  1.0000
  C   C17       1.0  0.4805886803810395  0.2887066827493783  0.38108538931983554  1.0000
  C   C18       1.0  0.5194094864609013  0.7112971854904584  0.6189168683503822  1.0000
  C   C19       1.0  0.6460125180580504  0.3135622000431367  0.41825028231462374  1.0000
  C   C20       1.0  0.3539867951683746  0.6864366027551225  0.5817507218218194  1.0000
  C   C21       1.0  0.7533648245361916  0.4148180053868201  0.40723104535825166  1.0000
  C   C22       1.0  0.24663610119234394  0.5851717257821321  0.5927634711674513  1.0000
  C   C23       1.0  0.694294226711939  0.4910968834703836  0.3599610184410337  1.0000
  C   C24       1.0  0.3057082634237602  0.508893844136807  0.6400358849295882  1.0000
  C   C25       1.0  0.5301390829403801  0.4688635365502307  0.324741675567175  1.0000
  C   C26       1.0  0.46986470694048416  0.5311353481610864  0.6752537947517679  1.0000
  C   C27       1.0  0.4232689304873105  0.367387337295213  0.33573800420968775  1.0000
  C   C28       1.0  0.5767323846830051  0.6326135639102758  0.6642580654247892  1.0000
  C   C29       1.0  0.6430607836962352  0.9500467933732111  0.2512814968055395  1.0000
  C   C30       1.0  0.3569295653410904  0.0499520234940221  0.7487149161712807  1.0000
  C   C31       1.0  0.5130564635263967  0.919049214220841  0.1428812195936259  1.0000
  C   C32       1.0  0.48693792402418273  0.08094859247351849  0.8571161109795398  1.0000
  C   C33       1.0  0.5392514320167408  0.8866663060298309  0.018479919113765706  1.0000
  C   C34       1.0  0.4607433985106724  0.11333251368597526  0.9815179195098267  1.0000
  C   C35       1.0  0.6923083175779252  0.891988967911409  0.0014436816961733237  1.0000
  C   C36       1.0  0.3076889882645019  0.1080078254271655  0.9985544275449172  1.0000
  C   C37       1.0  0.822850278740951  0.9260306578182307  0.10785391404035467  1.0000
  C   C38       1.0  0.17714812357763068  0.07397116779549859  0.8921492063235235  1.0000
  C   C39       1.0  0.794784133082281  0.9523667116589464  0.2324762719522012  1.0000
  C   C40       1.0  0.20520752114031646  0.04764017336486861  0.7675265373702372  1.0000
  S   S1        1.0  0.829420210250724  0.6153309617229252  0.3370364204981227  1.0000
  S   S2        1.0  0.17058493593264498  0.38466587366212923  0.6629609213759408  1.0000
  N   N1        1.0  0.6573010225578598  0.9775185487878132  0.382438616984892  1.0000
  N   N2        1.0  0.34268752901348876  0.02248127473504979  0.6175580261854705  1.0000
  N   N3        1.0  0.807387170662125  0.9935938240197615  0.43840591823342834  1.0000
  N   N4        1.0  0.1926022680718162  0.006408005779874802  0.5615934809038592  1.0000
  N   N5        1.0  0.8937138188354155  0.9808143966180226  0.35247400717546634  1.0000
  N   N6        1.0  0.1062767407243896  0.019187426481458696  0.6475264008232884  1.0000
  O   O1        1.0  0.6685976194077767  0.19359730857580354  0.6709831962093418  1.0000
  O   O2        1.0  0.3313931756286692  0.8064024718975701  0.32901807448307346  1.0000
  O   O3        1.0  0.883614191811489  0.15939322099970346  0.7635146693294103  1.0000
  O   O4        1.0  0.11637863495866443  0.8406035299580523  0.23648549399703706  1.0000
  O   O5        1.0  0.21563494656836474  0.1569700647735672  0.3601694664205723  1.0000
  O   O6        1.0  0.7843580639567379  0.8430347709239924  0.6398352144569939  1.0000
  O   O7        1.0  0.41861961481068016  0.0992504134479617  0.4178179480956743  1.0000
  O   O8        1.0  0.5813751907625787  0.900753455126207  0.5821830228561993  1.0000
  O   O9        1.0  0.7521062326576883  0.7077061202320605  0.3330923550272827  1.0000
  O   O10       1.0  0.2479255523111803  0.29229765571692207  0.6669305992236687  1.0000
  O   O11       1.0  0.9880708437714103  0.6645134590932428  0.43176716898291545  1.0000
  O   O12       1.0  0.011949185300700493  0.33546607033947845  0.5682373635981861  1.0000
