data_image0
_chemical_formula_structural       Al4H30C88Br5N12Cl9O28
_chemical_formula_sum              "Al4 H30 C88 Br5 N12 Cl9 O28"
_cell_length_a       6.604442104407749
_cell_length_b       28.213218917617127
_cell_length_c       31.796673379754402
_cell_angle_alpha    78.11625850847432
_cell_angle_beta     90.0515554238532
_cell_angle_gamma    89.73560784111586

_space_group_name_H-M_alt    "P 1"
_space_group_IT_number       1

loop_
  _space_group_symop_operation_xyz
  'x, y, z'

loop_
  _atom_site_type_symbol
  _atom_site_label
  _atom_site_symmetry_multiplicity
  _atom_site_fract_x
  _atom_site_fract_y
  _atom_site_fract_z
  _atom_site_occupancy
  Al  Al1       1.0  0.1060141117672373  0.49942092988681  0.4994710612253784  1.0000
  Al  Al2       1.0  0.6056437674115855  0.5020906401424767  0.4978148949844652  1.0000
  Al  Al3       1.0  0.6974490073670978  0.0002915846586261984  0.9995450442264371  1.0000
  Al  Al4       1.0  0.19885373601056236  0.9995193283096739  0.0012099328111644973  1.0000
  H   H1        1.0  0.1541274414707416  0.5764710246809484  0.3725941157525127  1.0000
  H   H2        1.0  0.5901278065919229  0.6335259630000466  0.40938792318587497  1.0000
  H   H3        1.0  0.24361916154751384  0.8354500840535124  0.18339283470105266  1.0000
  H   H4        1.0  0.2575565378377719  0.9003498979652632  0.11617122623211877  1.0000
  H   H5        1.0  0.6177921091095013  0.8860923076953922  0.09828744661236045  1.0000
  H   H6        1.0  0.6056597909909557  0.8186831345320016  0.1636045343982033  1.0000
  H   H7        1.0  0.29110005210135637  0.7764547371217816  0.6704990605626193  1.0000
  H   H8        1.0  0.5049551533657564  0.7248059198121549  0.8282110096703974  1.0000
  H   H9        1.0  0.713933948125394  0.9533010362180078  0.8813581422485867  1.0000
  H   H10       1.0  0.7102712101312108  0.9013037168096502  0.8261628034105613  1.0000
  H   H11       1.0  0.5723980753188656  0.6224502071576055  0.560577357587853  1.0000
  H   H12       1.0  0.1308011515554881  0.5538570014585319  0.6115145294256834  1.0000
  H   H13       1.0  0.7996114379274104  0.1659613612767643  0.2747739726857219  1.0000
  H   H14       1.0  0.7838123483837193  0.2216392672680597  0.3281520805992173  1.0000
  H   H15       1.0  0.060493298090484905  0.3366045959848306  0.378936794415722  1.0000
  H   H16       1.0  0.0594929429018407  0.391333590538238  0.4316944308399329  1.0000
  H   H17       1.0  0.6664328493008184  0.43595519795946547  0.3946735731011515  1.0000
  H   H18       1.0  0.6659606507721353  0.3831596812359734  0.34042383792905884  1.0000
  H   H19       1.0  0.14758395330048302  0.058658174772837385  0.10828701743685092  1.0000
  H   H20       1.0  0.7430429211649426  0.11154117449344617  0.06934029836597941  1.0000
  H   H21       1.0  0.7268759326674542  0.16669664872862455  0.12165588836919031  1.0000
  H   H22       1.0  0.635302777547963  0.36158364466624676  0.697230696809207  1.0000
  H   H23       1.0  0.1266576595302951  0.2925920386425743  0.6502199530653243  1.0000
  H   H24       1.0  0.7263452907174254  0.15667652235504903  0.8111612677591964  1.0000
  H   H25       1.0  0.7459370025871978  0.09200745443615689  0.8781781003174274  1.0000
  H   H26       1.0  0.13440497993476438  0.12512684089446677  0.9091453860657664  1.0000
  H   H27       1.0  0.34892936674749814  0.5585935003522805  0.5098077636226251  1.0000
  H   H28       1.0  0.8491675652017748  0.4407687715846932  0.5266841247624612  1.0000
  H   H29       1.0  0.4485854693764609  0.9417990976288377  0.9892540282207491  1.0000
  H   H30       1.0  0.9476730513915258  0.0633403501229282  0.9975474950752029  1.0000
  C   C1        1.0  0.365448449847399  0.448023363685337  0.44866171768531865  1.0000
  C   C2        1.0  0.35335885654608024  0.43819855852456147  0.5643342840822642  1.0000
  C   C3        1.0  0.84825182943532  0.5550772314485214  0.5493512951907462  1.0000
  C   C4        1.0  0.8661446148306097  0.56221250557617  0.4342120297749331  1.0000
  C   C5        1.0  0.034015492599635926  0.6035436560050795  0.36623365318061474  1.0000
  C   C6        1.0  0.03806611437732241  0.6400975307992596  0.329421677884369  1.0000
  C   C7        1.0  0.8872562580080228  0.6763769299283026  0.32151691180107633  1.0000
  C   C8        1.0  0.7276114001665375  0.6735843006795932  0.351177116014469  1.0000
  C   C9        1.0  0.7160765309237432  0.6359139842779697  0.3870273062213769  1.0000
  C   C10       1.0  0.871610882010991  0.6013726839792992  0.3947229410332512  1.0000
  C   C11       1.0  0.9150257182689215  0.7842510074217299  0.21581538749651236  1.0000
  C   C12       1.0  0.8973042291716739  0.715913276497723  0.2829701535534568  1.0000
  C   C13       1.0  0.10806584190451221  0.846467856796238  0.16424619371746726  1.0000
  C   C14       1.0  0.1154750787073979  0.8825563000108119  0.1271746936021002  1.0000
  C   C15       1.0  0.9382702454287538  0.8967975593144287  0.10350792381697  1.0000
  C   C16       1.0  0.7538475740247321  0.8742439215296968  0.11699292157145182  1.0000
  C   C17       1.0  0.7469456219906264  0.8372116012773387  0.15325660793430265  1.0000
  C   C18       1.0  0.9239467722939096  0.8232320798321736  0.1772781063512525  1.0000
  C   C19       1.0  0.737309112793845  0.6637931760040414  0.7101838497363815  1.0000
  C   C20       1.0  0.006178552106924013  0.7128591767736123  0.665755123884864  1.0000
  C   C21       1.0  0.029981790152959303  0.7402092495591787  0.7004492487208723  1.0000
  C   C22       1.0  0.8923302688286369  0.7340953217325676  0.7352664956857708  1.0000
  C   C23       1.0  0.735534101228808  0.6989067153066485  0.7392086441447319  1.0000
  C   C24       1.0  0.18715875830205422  0.7728192183982754  0.6975438124246834  1.0000
  C   C25       1.0  0.21366705717250054  0.8013477524903789  0.7286235649968018  1.0000
  C   C26       1.0  0.07500822965995721  0.798750734186541  0.7624254309951654  1.0000
  C   C27       1.0  0.9145228396717828  0.7644846547558756  0.7656928105296856  1.0000
  C   C28       1.0  0.7725521332679649  0.7592023029547049  0.7996891239501808  1.0000
  C   C29       1.0  0.6136588350406741  0.7270669760691248  0.802131923427396  1.0000
  C   C30       1.0  0.592697951110459  0.6971050401390714  0.772093464687792  1.0000
  C   C31       1.0  0.08585389592242622  0.8311957529267386  0.7938186217862649  1.0000
  C   C32       1.0  0.790975951208715  0.7875130861660863  0.8337397270774858  1.0000
  C   C33       1.0  0.079547046424409  0.8431532320190415  0.8926350238509427  1.0000
  C   C34       1.0  0.0856307465744877  0.8731412809831908  0.9228851682566059  1.0000
  C   C35       1.0  0.9543780859432757  0.9132987113026445  0.9182066045859116  1.0000
  C   C36       1.0  0.8177823540578899  0.9227599179184904  0.8837878750224563  1.0000
  C   C37       1.0  0.8153213785482479  0.8939741769968776  0.8532106688930057  1.0000
  C   C38       1.0  0.9466329410909823  0.8545154192701431  0.8576007984459579  1.0000
  C   C39       1.0  0.7041639100263595  0.6487882882257379  0.613354784405317  1.0000
  C   C40       1.0  0.6961254492929002  0.6188402579206663  0.5836306986411088  1.0000
  C   C41       1.0  0.8516351608619532  0.5853425338109302  0.5827716589483813  1.0000
  C   C42       1.0  0.010224513267537795  0.5800433211811793  0.6125502474373545  1.0000
  C   C43       1.0  0.010136283447082003  0.6080895669555417  0.6438455520550191  1.0000
  C   C44       1.0  0.8598915869784066  0.6433507686546703  0.6440708691118147  1.0000
  C   C45       1.0  0.2786490108804074  0.2120415634288264  0.1661943783528841  1.0000
  C   C46       1.0  0.5546609846574029  0.16451927136083094  0.210206678209893  1.0000
  C   C47       1.0  0.543275984639301  0.198949898068804  0.23943265640498618  1.0000
  C   C48       1.0  0.3877923602215105  0.23447474694505388  0.2351013846550813  1.0000
  C   C49       1.0  0.24471725813553039  0.23957278831635154  0.20098433319632386  1.0000
  C   C50       1.0  0.6842977810591079  0.19413101801925586  0.2724795195961107  1.0000
  C   C51       1.0  0.6748041521053382  0.2245201123752238  0.3019875535051568  1.0000
  C   C52       1.0  0.5225147305669681  0.25921542019570143  0.2989477651530876  1.0000
  C   C53       1.0  0.3750700401044967  0.26477985371200663  0.26582229927343093  1.0000
  C   C54       1.0  0.21702256654463534  0.299899509528636  0.2630122125897855  1.0000
  C   C55       1.0  0.0681546989607043  0.3019142381859081  0.2312928924047952  1.0000
  C   C56       1.0  0.08124458967364491  0.2714229930211403  0.2003628574537828  1.0000
  C   C57       1.0  0.519571542848695  0.28975981254081506  0.3315046250750555  1.0000
  C   C58       1.0  0.2192444116036469  0.333845422916795  0.2934960239224509  1.0000
  C   C59       1.0  0.19224897861558077  0.35866542196887946  0.38231631990919374  1.0000
  C   C60       1.0  0.191657971435518  0.3890127326087764  0.4117199342478343  1.0000
  C   C61       1.0  0.36314935653540203  0.4166297104933676  0.4163441125889236  1.0000
  C   C62       1.0  0.5341739251948071  0.4143575704113828  0.3907175696476202  1.0000
  C   C63       1.0  0.5340540606411182  0.3849130502589303  0.3606138930100755  1.0000
  C   C64       1.0  0.363560536928027  0.35694079622494707  0.3569314022106909  1.0000
  C   C65       1.0  0.26960772932667965  0.11121461888539841  0.1418809201955824  1.0000
  C   C66       1.0  0.27465026214849786  0.08207820163424627  0.11151278840763722  1.0000
  C   C67       1.0  0.4449625966295727  0.08244348824603519  0.0853030699482176  1.0000
  C   C68       1.0  0.610063226256905  0.11213197375995068  0.0894436568392578  1.0000
  C   C69       1.0  0.6013708019673417  0.14267537799877766  0.11863641988216501  1.0000
  C   C70       1.0  0.4315960661269003  0.1424655847208811  0.1447531101645367  1.0000
  C   C71       1.0  0.5073882835755938  0.3986912165947912  0.6368230059032102  1.0000
  C   C72       1.0  0.5200150465695971  0.36123791967629876  0.6728319991766296  1.0000
  C   C73       1.0  0.3833992028132798  0.3226768913179541  0.6775231486131119  1.0000
  C   C74       1.0  0.23303588211219053  0.3224788134124594  0.6464797639294417  1.0000
  C   C75       1.0  0.22363930939918933  0.3600649134174531  0.6104924188052863  1.0000
  C   C76       1.0  0.36145097770867096  0.3990384743327056  0.6043494271979384  1.0000
  C   C77       1.0  0.41666332307408277  0.21438872895152628  0.7825869791162106  1.0000
  C   C78       1.0  0.400457332361519  0.2819121161219371  0.7145765816957735  1.0000
  C   C79       1.0  0.597889145435076  0.14943070632252634  0.8329469237220337  1.0000
  C   C80       1.0  0.6085744651241427  0.11342999184844159  0.8699758143970016  1.0000
  C   C81       1.0  0.4401604090347461  0.1042421065633405  0.8971231169787187  1.0000
  C   C82       1.0  0.26363330778157495  0.13205759285824564  0.8875495891020222  1.0000
  C   C83       1.0  0.25602946565811646  0.16902973779894379  0.8510451654177232  1.0000
  C   C84       1.0  0.42177218741906586  0.1774979616458053  0.8227188452689447  1.0000
  C   C85       1.0  0.4486315856478241  0.06535581985021818  0.9369204133704443  1.0000
  C   C86       1.0  0.44505713316640794  0.0512501128489689  0.0527095154996928  1.0000
  C   C87       1.0  0.9430183002975879  0.9355239275037163  0.06375049610495861  1.0000
  C   C88       1.0  0.9543786415519903  0.946987540834989  0.9489707669381672  1.0000
  Br  Br1       1.0  0.24782392821956023  0.7881514194091819  0.8985589122858144  1.0000
  Br  Br2       1.0  0.2192630796980595  0.5991607507171394  0.6854390561969055  1.0000
  Br  Br3       1.0  0.843625059655217  0.34431476488877877  0.2265902781778095  1.0000
  Br  Br4       1.0  0.5246247451452674  0.7225474256209169  0.3436253531741685  1.0000
  Br  Br5       1.0  0.6922459810992976  0.45064247104415495  0.6347435691731818  1.0000
  N   N1        1.0  0.7488840572442682  0.7178531313929994  0.2534095567463552  1.0000
  N   N2        1.0  0.7582159177602747  0.752880007782437  0.21890266983849932  1.0000
  N   N3        1.0  0.06286098716010001  0.7821497044739231  0.24566570328328652  1.0000
  N   N4        1.0  0.05384915502862241  0.746948505762205  0.28016769551031473  1.0000
  N   N5        1.0  0.86753743742036  0.6745755894829485  0.674293025699761  1.0000
  N   N6        1.0  0.9372912071652949  0.8241004052496378  0.8264672002551307  1.0000
  N   N7        1.0  0.42192826400998473  0.1738347693268594  0.1750111114097095  1.0000
  N   N8        1.0  0.36624596529809145  0.3251610196754767  0.3266596108616113  1.0000
  N   N9        1.0  0.2522004309026329  0.2482139024051193  0.7203990993946121  1.0000
  N   N10       1.0  0.2602275035346651  0.213566234606418  0.7551158123395965  1.0000
  N   N11       1.0  0.5791658628999202  0.24357223260816596  0.7735462148564523  1.0000
  N   N12       1.0  0.5711566278835251  0.27814222380634845  0.7385643793497749  1.0000
  Cl  Cl1       1.0  0.42187962989298466  0.8384461098452076  0.7215469422173371  1.0000
  Cl  Cl2       1.0  0.38473003698869235  0.6600160720293857  0.7784421322020874  1.0000
  Cl  Cl3       1.0  0.2449690927053609  0.8583165414581941  0.9665975397591707  1.0000
  Cl  Cl4       1.0  0.5215472965045508  0.6927206325354689  0.612044474766904  1.0000
  Cl  Cl5       1.0  0.2288583424950801  0.6395723146129341  0.2923899540214236  1.0000
  Cl  Cl6       1.0  0.8911318335643018  0.2744763265524313  0.1633635984387141  1.0000
  Cl  Cl7       1.0  0.06378643269560061  0.1086534119059479  0.1755105722384727  1.0000
  Cl  Cl8       1.0  0.04160288447864251  0.3551492887547666  0.5723514420625619  1.0000
  Cl  Cl9       1.0  0.04502081366076989  0.20629465581724551  0.8424150424708472  1.0000
  O   O1        1.0  0.5180141764423283  0.4480538570644866  0.5438752677438004  1.0000
  O   O2        1.0  0.20088300831308462  0.4528928599997144  0.4683472321237899  1.0000
  O   O3        1.0  0.03228533703429551  0.5407420651171647  0.44631747301426833  1.0000
  O   O4        1.0  0.18165022303310246  0.45741006376920973  0.5539190545338428  1.0000
  O   O5        1.0  0.0179143812159026  0.5460828748892936  0.5336622347824616  1.0000
  O   O6        1.0  0.5332596095289972  0.4675696749530544  0.454927478472122  1.0000
  O   O7        1.0  0.3529288781235564  0.5308267296788927  0.496229976833078  1.0000
  O   O8        1.0  0.6750407170066454  0.5412646084763324  0.5392266143066422  1.0000
  O   O9        1.0  0.696963130275492  0.5536867653514861  0.4532877737478387  1.0000
  O   O10       1.0  0.8545201732925419  0.47057313551750457  0.5050223095990916  1.0000
  O   O11       1.0  0.6365026799906418  0.6266535070215936  0.716109804641917  1.0000
  O   O12       1.0  0.10103269593080462  0.7220782216357763  0.6319276873275256  1.0000
  O   O13       1.0  0.21245706904631592  0.8630978530536237  0.792649255343271  1.0000
  O   O14       1.0  0.6868953057154245  0.780189198547653  0.8663565592880573  1.0000
  O   O15       1.0  0.19352260592951612  0.22103467978725894  0.1312087532070976  1.0000
  O   O16       1.0  0.6724007703920593  0.12993857432638828  0.2158532471320385  1.0000
  O   O17       1.0  0.643515470495487  0.2849448717424181  0.3609734734037247  1.0000
  O   O18       1.0  0.10395885689157322  0.3685096657341873  0.2907475077032871  1.0000
  O   O19       1.0  0.2746490232755576  0.03467326064775019  0.04398835184485961  1.0000
  O   O20       1.0  0.6223337301251564  0.047651122633609995  0.9486519695130369  1.0000
  O   O21       1.0  0.7819390058621706  0.9576579169898237  0.9622306609586317  1.0000
  O   O22       1.0  0.6131890827882174  0.043851734184308086  0.0355269179903743  1.0000
  O   O23       1.0  0.7726933142316882  0.9529261625987145  0.049153624628452526  1.0000
  O   O24       1.0  0.28176820295608  0.05344106547887858  0.9561422158755448  1.0000
  O   O25       1.0  0.44888073937939044  0.9704286323187572  0.00174323065635216  1.0000
  O   O26       1.0  0.11497689621418057  0.9477998595469331  0.04697147322580261  1.0000
  O   O27       1.0  0.12394506060945079  0.9627766266032791  0.958650083504601  1.0000
  O   O28       1.0  0.9481020061662946  0.02912684299712249  0.9972832357358287  1.0000
