data_image0
_chemical_formula_structural       Zn2H28C47N2O13
_chemical_formula_sum              "Zn2 H28 C47 N2 O13"
_cell_length_a       12.517209468150096
_cell_length_b       13.414086951941053
_cell_length_c       16.005315998876277
_cell_angle_alpha    90.13042852071014
_cell_angle_beta     73.0928302771688
_cell_angle_gamma    78.10091858922146

_space_group_name_H-M_alt    "P 1"
_space_group_IT_number       1

loop_
  _space_group_symop_operation_xyz
  'x, y, z'

loop_
  _atom_site_type_symbol
  _atom_site_label
  _atom_site_symmetry_multiplicity
  _atom_site_fract_x
  _atom_site_fract_y
  _atom_site_fract_z
  _atom_site_occupancy
  Zn  Zn1       1.0  0.6148316370060415  0.5094233548412958  0.4814914646693038  1.0000
  Zn  Zn2       1.0  0.3811810855293131  0.490981977638043  0.5262597797780372  1.0000
  H   H1        1.0  0.5730762209206262  0.3477180601439328  0.06468809757582508  1.0000
  H   H2        1.0  0.7257732799076065  0.663624383480709  0.3803335565841976  1.0000
  H   H3        1.0  0.1065350310667625  0.6919094410303186  0.3711696600119722  1.0000
  H   H4        1.0  0.912124419788796  0.7206173046611041  0.35253534450184515  1.0000
  H   H5        1.0  0.8196615596540295  0.43726945148932134  0.5353301549255177  1.0000
  H   H6        1.0  0.2750805235940703  0.3369434518116138  0.6185594738035646  1.0000
  H   H7        1.0  0.9413933280480079  0.35650367390056914  0.5882086117014395  1.0000
  H   H8        1.0  0.34862698703413014  0.4260082207280504  0.9715510310265286  1.0000
  H   H9        1.0  0.3698145947728619  0.4226825982189696  0.11152659898287706  1.0000
  H   H10       1.0  0.6073239997154685  0.6057986345515545  0.8982063498186861  1.0000
  H   H11       1.0  0.46017386263476817  0.6657099732691234  0.9314492000353805  1.0000
  H   H12       1.0  0.6673033289902006  0.4133808765221688  0.889189486228794  1.0000
  H   H13       1.0  0.1650735199569056  0.0728881085082094  0.4070611994020438  1.0000
  H   H14       1.0  0.6834659397781736  0.8963087145591615  0.4911458254225849  1.0000
  H   H15       1.0  0.9048733285753839  0.03788060647541159  0.5090473528478652  1.0000
  H   H16       1.0  0.5637654266529921  0.33786015517614504  0.9209833369620595  1.0000
  H   H17       1.0  0.16421520377532767  0.2144242538840047  0.6871022583916753  1.0000
  H   H18       1.0  0.24994217041494685  0.5989939243938593  0.4372039158816462  1.0000
  H   H19       1.0  0.31117142508937673  0.5606331759562478  0.9785028642905543  1.0000
  H   H20       1.0  0.2826714618078511  0.6564667139459672  0.11510346901270202  1.0000
  H   H21       1.0  0.6436733142371409  0.6364259296775782  0.11369818379000654  1.0000
  H   H22       1.0  0.6757397269100591  0.423579835326258  0.03258894055853997  1.0000
  H   H23       1.0  0.4629455224017675  0.6741363412997073  0.07631754115236328  1.0000
  H   H24       1.0  0.24802125641907935  0.8023691951061096  0.45586794162225897  1.0000
  H   H25       1.0  0.28488483191015485  0.15239699690324218  0.4025701490524581  1.0000
  H   H26       1.0  0.5587452416760924  0.8243419746978161  0.5080057502864717  1.0000
  H   H27       1.0  0.7690842309122273  0.18937245183990833  0.4943474255504867  1.0000
  H   H28       1.0  0.41526460558444717  0.25432351423724237  0.4227515054210187  1.0000
  C   C1        1.0  0.5742279933980255  0.3047541345149227  0.48277760190432406  1.0000
  C   C2        1.0  0.40621384559374  0.8036953857657849  0.48509303912322804  1.0000
  C   C3        1.0  0.7101936943558158  0.1428062265020031  0.4865490137470232  1.0000
  C   C4        1.0  0.4862205727607502  0.49468000963165093  0.6672534513156592  1.0000
  C   C5        1.0  0.7376422720401621  0.036067700234184506  0.4909101343472598  1.0000
  C   C6        1.0  0.6593524044979232  0.9782185991954436  0.48528488114484236  1.0000
  C   C7        1.0  0.5546313583956747  0.02351925425614349  0.47150925343971267  1.0000
  C   C8        1.0  0.5298673075680327  0.1309030185294233  0.46174415170517585  1.0000
  C   C9        1.0  0.4710323646315685  0.9641886319361673  0.4670520971478068  1.0000
  C   C10       1.0  0.3713132136542114  0.010337165384967798  0.44315281258710815  1.0000
  C   C11       1.0  0.3567608181452826  0.11599307925784069  0.4250947779337934  1.0000
  C   C12       1.0  0.5903909934445366  0.4165731695516684  0.03110298288255105  1.0000
  C   C13       1.0  0.43056112485495385  0.17387708346209518  0.43588881939793095  1.0000
  C   C14       1.0  0.4854196832554791  0.8616760818263315  0.4876979180175665  1.0000
  C   C15       1.0  0.3102661680981099  0.847198748600306  0.45907052125673425  1.0000
  C   C16       1.0  0.4293189593478316  0.6943512887850999  0.5066886693796916  1.0000
  C   C17       1.0  0.6070489471459053  0.19034149618161683  0.4743266714222683  1.0000
  C   C18       1.0  0.8953477884143339  0.6565342657660337  0.3922579944683945  1.0000
  C   C19       1.0  0.20634853501602632  0.3727397586156513  0.5920397098887376  1.0000
  C   C20       1.0  0.10529784061397857  0.3360336486787289  0.6084778279316863  1.0000
  C   C21       1.0  0.02008869675211858  0.3848378760943588  0.573590357436437  1.0000
  C   C22       1.0  0.037273710220027595  0.467182046727487  0.521334279522577  1.0000
  C   C23       1.0  0.5014036331581548  0.5100727276341601  0.084330138817009  1.0000
  C   C24       1.0  0.1438406169656048  0.498055400969271  0.5054807386150769  1.0000
  C   C25       1.0  0.953512468427746  0.5220248591171311  0.4821146724322246  1.0000
  C   C26       1.0  0.9789444351596469  0.603939970887943  0.428853950297885  1.0000
  C   C27       1.0  0.08775417694705102  0.6300804028052269  0.41328855646208496  1.0000
  C   C28       1.0  0.5113299566822959  0.5045800759148875  0.33875897086894463  1.0000
  C   C29       1.0  0.1673225566390784  0.5787519092540022  0.44971035449707114  1.0000
  C   C30       1.0  0.8462518060062151  0.49782507317419805  0.4943086228515695  1.0000
  C   C31       1.0  0.7930235794232415  0.6263535553232557  0.4074472248507489  1.0000
  C   C32       1.0  0.5845766800638046  0.41014556123504775  0.9361049297104385  1.0000
  C   C33       1.0  0.37528166603838287  0.49496501538184384  0.9872666020879559  1.0000
  C   C34       1.0  0.527676626015392  0.6087217977441666  0.03787656985539911  1.0000
  C   C35       1.0  0.380815974945591  0.495640211742966  0.082917035647931  1.0000
  C   C36       1.0  0.5110677512962596  0.5097662981701633  0.24852111753902048  1.0000
  C   C37       1.0  0.4925623342675748  0.4999618258980618  0.9226083091604662  1.0000
  C   C38       1.0  0.18957710843367442  0.9885082584288438  0.4098364589630917  1.0000
  C   C39       1.0  0.8483214927480632  0.9853933648741419  0.5032885756029869  1.0000
  C   C40       1.0  0.09105242924890428  0.2468688146065077  0.6616517950438378  1.0000
  C   C41       1.0  0.28451412796917447  0.5775228133801207  0.13854033592578216  1.0000
  C   C42       1.0  0.640579023856553  0.6275889082438014  0.04515008190368523  1.0000
  C   C43       1.0  0.523370993568072  0.6015259382395685  0.9430095204290366  1.0000
  C   C44       1.0  0.5068069694242822  0.5125625457334592  0.17368320838017576  1.0000
  C   C45       1.0  0.48780487742327217  0.495844578149665  0.8331420192613165  1.0000
  C   C46       1.0  0.48404000033895755  0.49442290026654234  0.758145341837796  1.0000
  C   C47       1.0  0.29235960696756536  0.9486934016200621  0.43764724518460696  1.0000
  N   N1        1.0  0.7696167605480039  0.5474630604278587  0.45765542448759783  1.0000
  N   N2        1.0  0.22499056040447832  0.4509982561227802  0.5428867296750395  1.0000
  O   O1        1.0  0.6519894469070663  0.35430870111768087  0.4524845270136949  1.0000
  O   O2        1.0  0.8786150908452723  0.893027139530574  0.5071117508250962  1.0000
  O   O3        1.0  0.006581286742182595  0.20939012368452128  0.677185360474972  1.0000
  O   O4        1.0  0.21018295032280315  0.5624822258682373  0.20279346554544014  1.0000
  O   O5        1.0  0.7225494803018933  0.6335738534493914  0.9831395970677691  1.0000
  O   O6        1.0  0.46980715664497547  0.3427169070284676  0.5235249048679406  1.0000
  O   O7        1.0  0.5851862610734672  0.48140915013609487  0.6116821756978863  1.0000
  O   O8        1.0  0.39038541243517944  0.5083955140298785  0.6512416928841915  1.0000
  O   O9        1.0  0.5256267667755166  0.6585690213632701  0.5183604769254941  1.0000
  O   O10       1.0  0.352081181200873  0.644360823446256  0.5096129203839864  1.0000
  O   O11       1.0  0.5897249566634456  0.5364905503468549  0.3595687886411127  1.0000
  O   O12       1.0  0.4314297646069959  0.46842760946738343  0.38926310189778224  1.0000
  O   O13       1.0  0.13111408548532918  0.9344307208633466  0.390351563001296  1.0000
