data_image0
_chemical_formula_structural       Cd8H64C116N8O36F24
_chemical_formula_sum              "Cd8 H64 C116 N8 O36 F24"
_cell_length_a       7.596831439009122
_cell_length_b       15.928597235426494
_cell_length_c       27.895545862757864
_cell_angle_alpha    100.01597236985266
_cell_angle_beta     89.99997845118855
_cell_angle_gamma    89.99982968107605

_space_group_name_H-M_alt    "P 1"
_space_group_IT_number       1

loop_
  _space_group_symop_operation_xyz
  'x, y, z'

loop_
  _atom_site_type_symbol
  _atom_site_label
  _atom_site_symmetry_multiplicity
  _atom_site_fract_x
  _atom_site_fract_y
  _atom_site_fract_z
  _atom_site_occupancy
  Cd  Cd1       1.0  0.4780501911594542  0.7839040479152218  0.9188133525384925  1.0000
  Cd  Cd2       1.0  0.9541326613184538  0.8491939313477062  0.9526489900337933  1.0000
  Cd  Cd3       1.0  0.9780461743915154  0.21609469441293777  0.5811863754167915  1.0000
  Cd  Cd4       1.0  0.45413192029260324  0.15080548524100115  0.5473511652684379  1.0000
  Cd  Cd5       1.0  0.5219484576209154  0.2160954645649156  0.0811865147856068  1.0000
  Cd  Cd6       1.0  0.045869936474709  0.1508062186463803  0.047350939968076496  1.0000
  Cd  Cd7       1.0  0.0219472090385153  0.7839041771696029  0.41881235345474715  1.0000
  Cd  Cd8       1.0  0.5458654121484231  0.8491946602441657  0.45264733036749755  1.0000
  H   H1        1.0  0.28338092467672743  0.7991606321870179  0.7685981939296836  1.0000
  H   H2        1.0  0.784164747681075  0.8026237378825413  0.6947514178499858  1.0000
  H   H3        1.0  0.6348749194063287  0.7726877638595653  0.7685159397345699  1.0000
  H   H4        1.0  0.9658228617879345  0.9636407093717806  0.7144636231234355  1.0000
  H   H5        1.0  0.7931221425766352  0.05808219285167131  0.6713105153764545  1.0000
  H   H6        1.0  0.06475174673798989  0.798296004614947  0.5771895235138942  1.0000
  H   H7        1.0  0.3316662909735513  0.7171130198294762  0.008873841812459192  1.0000
  H   H8        1.0  0.21993588151195104  0.5885500838857282  0.037327025993690165  1.0000
  H   H9        1.0  0.3464990507930565  0.4457562633115515  0.8946837421390085  1.0000
  H   H10       1.0  0.4504998925724237  0.5823595692910786  0.8724907564347433  1.0000
  H   H11       1.0  0.2200823264318856  0.477328188336898  0.06242945656620688  1.0000
  H   H12       1.0  0.1117520317295586  0.345352301587333  0.08740680082168238  1.0000
  H   H13       1.0  0.07680833637987662  0.22052446770203457  0.9447077166470734  1.0000
  H   H14       1.0  0.17594797398960077  0.34864597512672174  0.9126797398683948  1.0000
  H   H15       1.0  0.05864252342484381  0.9416216987958278  0.04914283255079969  1.0000
  H   H16       1.0  0.217934055985701  0.9102478552194312  0.014177856827295375  1.0000
  H   H17       1.0  0.7833807526218591  0.2008384011671609  0.7314019420821792  1.0000
  H   H18       1.0  0.28416205581302006  0.19737975918089026  0.8052498738942403  1.0000
  H   H19       1.0  0.1348760872904222  0.22731722942835828  0.7314851567085725  1.0000
  H   H20       1.0  0.465825152946323  0.03636251829163939  0.7855379810525278  1.0000
  H   H21       1.0  0.2931358209258547  0.9419174680153333  0.8286911152032843  1.0000
  H   H22       1.0  0.5647460493310774  0.2017052725167261  0.9228126490453761  1.0000
  H   H23       1.0  0.8316718416323567  0.28288807998939086  0.4911272873125369  1.0000
  H   H24       1.0  0.7199380326802681  0.4114486288719447  0.46267280503435865  1.0000
  H   H25       1.0  0.8465020998515412  0.5542445874674372  0.605316207277312  1.0000
  H   H26       1.0  0.9505011344285067  0.4176404936075785  0.6275105382435484  1.0000
  H   H27       1.0  0.7200824985055688  0.5226749845659739  0.43757009598949276  1.0000
  H   H28       1.0  0.6117514110006396  0.6546497553509526  0.4125919367209718  1.0000
  H   H29       1.0  0.5768047769105635  0.779476146059068  0.5552918800285127  1.0000
  H   H30       1.0  0.675946490164108  0.6513544898662857  0.5873194730239176  1.0000
  H   H31       1.0  0.5586429511379195  0.0583785280660933  0.450856806226966  1.0000
  H   H32       1.0  0.7179355571686726  0.08975149803672622  0.4858220373877771  1.0000
  H   H33       1.0  0.7166098260594893  0.20084334404543822  0.23140247073498435  1.0000
  H   H34       1.0  0.21582995208554223  0.19737514159648128  0.3052498211629526  1.0000
  H   H35       1.0  0.36512504573040866  0.22730601209579496  0.23148372207655393  1.0000
  H   H36       1.0  0.034167888948523704  0.03636326573246859  0.2855366829495836  1.0000
  H   H37       1.0  0.2068738735164146  0.9419211379625028  0.3286875764677077  1.0000
  H   H38       1.0  0.9352482183799325  0.2017035112488443  0.42281141958499546  1.0000
  H   H39       1.0  0.6683205107585054  0.28288776656505377  0.9911257922780407  1.0000
  H   H40       1.0  0.7800561855790776  0.4114487910824209  0.9626727786529727  1.0000
  H   H41       1.0  0.6534982816492843  0.5542432480413593  0.10531576659360548  1.0000
  H   H42       1.0  0.5495000725475379  0.41763930905582203  0.1275101239858714  1.0000
  H   H43       1.0  0.7799044753026861  0.5226719582843201  0.9375693976627204  1.0000
  H   H44       1.0  0.8882374026858885  0.6546465688699428  0.9125915694587049  1.0000
  H   H45       1.0  0.923198210436752  0.7794731299651331  0.055291245457901476  1.0000
  H   H46       1.0  0.8240572564907822  0.6513509850245355  0.08731915955847569  1.0000
  H   H47       1.0  0.941362707055056  0.05837526361185039  0.9508567840593684  1.0000
  H   H48       1.0  0.7820685418222056  0.0897478299000056  0.985820917243359  1.0000
  H   H49       1.0  0.21661921249344124  0.7991623829611497  0.26859697482334605  1.0000
  H   H50       1.0  0.7158379093013137  0.8026210294602548  0.1947504773778874  1.0000
  H   H51       1.0  0.865123877823912  0.772683559212794  0.2685151945635552  1.0000
  H   H52       1.0  0.5341892918931207  0.9636369953049452  0.21446224486121676  1.0000
  H   H53       1.0  0.7068852056024467  0.058082685349660296  0.17130989057120158  1.0000
  H   H54       1.0  0.4352578647917369  0.7982974298003568  0.07718824885272817  1.0000
  H   H55       1.0  0.1683202254563909  0.717111433623863  0.5088729386040497  1.0000
  H   H56       1.0  0.280056667078199  0.5885528006746411  0.5373286846916656  1.0000
  H   H57       1.0  0.15348601822476127  0.4457536590124391  0.39468640342479216  1.0000
  H   H58       1.0  0.049488299990869705  0.5823564744529081  0.3724908713268889  1.0000
  H   H59       1.0  0.2799135175952472  0.4773251699458569  0.562431268379818  1.0000
  H   H60       1.0  0.3882498704558018  0.34534975938364454  0.5874086477860985  1.0000
  H   H61       1.0  0.42319650454408736  0.22052400506421319  0.4447084085651767  1.0000
  H   H62       1.0  0.32405347494974274  0.3486463010312803  0.4126815954315218  1.0000
  H   H63       1.0  0.4413662283376497  0.9416248038664891  0.5491416442071753  1.0000
  H   H64       1.0  0.28206704061586413  0.9102512042813444  0.5141788605104907  1.0000
  C   C1        1.0  0.7644776348332272  0.7554644833777926  0.852904582131515  1.0000
  C   C2        1.0  0.8724107689180444  0.7718335994361567  0.8102512352770573  1.0000
  C   C3        1.0  0.05625731893884731  0.7798713402479079  0.8096101062439941  1.0000
  C   C4        1.0  0.14057797922171744  0.7954609180628084  0.7673257109278637  1.0000
  C   C5        1.0  0.04620705477205431  0.8045476120031194  0.7257104407072247  1.0000
  C   C6        1.0  0.862298637929115  0.7961085694685578  0.7266207671698978  1.0000
  C   C7        1.0  0.7774935686026154  0.7795753578164977  0.7681699904976111  1.0000
  C   C8        1.0  0.16861995339208846  0.7709752589377672  0.8526647749509735  1.0000
  C   C9        1.0  0.1371357486108664  0.8163807410355091  0.6779308090914424  1.0000
  C   C10       1.0  0.3205054738586314  0.8610831811069559  0.6865454524154159  1.0000
  C   C11       1.0  0.1663298055231479  0.7246046881888261  0.648734585032315  1.0000
  C   C12       1.0  0.0267935365373049  0.8722826748769849  0.6495690958058091  1.0000
  C   C13       1.0  0.949940002318236  0.9470124222371582  0.6751685999080834  1.0000
  C   C14       1.0  0.8511741716589752  0.00017490524734140026  0.6509339138467993  1.0000
  C   C15       1.0  0.8265411332306413  0.9800532844628049  0.6004869343967839  1.0000
  C   C16       1.0  0.9051162456290172  0.9063190114056  0.5745106191766851  1.0000
  C   C17       1.0  0.005429457446147999  0.85385309599598  0.5992622550269004  1.0000
  C   C18       1.0  0.7203958916375441  0.0392879638633588  0.5755838073657172  1.0000
  C   C19       1.0  0.878673761383425  0.8797206231598623  0.5206690287562594  1.0000
  C   C20       1.0  0.33162502849960873  0.6554124077768718  0.9849090060985546  1.0000
  C   C21       1.0  0.2711270040060682  0.5825497700196535  0.000488240337908481  1.0000
  C   C22       1.0  0.2732801352745041  0.5040499985880941  0.9686080402562707  1.0000
  C   C23       1.0  0.3384454926626291  0.5041564900689862  0.921444234858697  1.0000
  C   C24       1.0  0.39717501226763124  0.5800417550363973  0.9085723182394929  1.0000
  C   C25       1.0  0.20971307800855502  0.4257029841243991  0.9847886787793384  1.0000
  C   C26       1.0  0.1883337525199238  0.4228876837072519  0.034461597868208585  1.0000
  C   C27       1.0  0.1296555634070202  0.34877076469504686  0.04908791317820518  1.0000
  C   C28       1.0  0.11098422722920279  0.2791340887012979  0.9693622862573077  1.0000
  C   C29       1.0  0.16703238053998604  0.35127906489968563  0.9518753589011408  1.0000
  C   C30       1.0  0.2644695928015608  0.24453649519645632  0.6470971810860959  1.0000
  C   C31       1.0  0.3724119869891425  0.22816402517212  0.6897483941639634  1.0000
  C   C32       1.0  0.5562610297264569  0.22012420736178478  0.6903900700014417  1.0000
  C   C33       1.0  0.6405751496417623  0.20453769607906483  0.732676191650519  1.0000
  C   C34       1.0  0.5462068593796727  0.19545496664670742  0.7742915033284418  1.0000
  C   C35       1.0  0.36229594766402323  0.20389672604529344  0.7733814099386507  1.0000
  C   C36       1.0  0.2774974118333732  0.22042304678522834  0.7318300843314418  1.0000
  C   C37       1.0  0.6686249820943857  0.2290226714085364  0.6473356234560724  1.0000
  C   C38       1.0  0.6371342474006882  0.18361979191040223  0.8220716409879074  1.0000
  C   C39       1.0  0.8205016312263285  0.13891516396017778  0.8134560458519074  1.0000
  C   C40       1.0  0.6663382217669993  0.2753964342780862  0.8512664859392416  1.0000
  C   C41       1.0  0.5267936638274693  0.12771865764935336  0.8504327278062433  1.0000
  C   C42       1.0  0.44993950446333736  0.052990191564134585  0.8248329456257935  1.0000
  C   C43       1.0  0.35118219511522136  0.9998253033053003  0.849066688885969  1.0000
  C   C44       1.0  0.32654469186992685  0.019946961904786103  0.899514033187458  1.0000
  C   C45       1.0  0.4051153592075636  0.09368111682336179  0.9254899698505455  1.0000
  C   C46       1.0  0.5054267697992217  0.14614890360822128  0.9007389195090809  1.0000
  C   C47       1.0  0.22039616165169207  0.9607124383213161  0.9244164700071167  1.0000
  C   C48       1.0  0.3786726368757202  0.12027890693042309  0.9793315043117656  1.0000
  C   C49       1.0  0.8316281934417518  0.34458910379746027  0.5150913683671589  1.0000
  C   C50       1.0  0.7711317012893487  0.4174520518305441  0.4995111738902338  1.0000
  C   C51       1.0  0.773283647506574  0.49595223400520894  0.5313913359381459  1.0000
  C   C52       1.0  0.8384502591744579  0.4958443715738312  0.5785553580121601  1.0000
  C   C53       1.0  0.8971749712615421  0.4199602998250711  0.591429178023624  1.0000
  C   C54       1.0  0.7097161213965109  0.5742980703556952  0.515211305394267  1.0000
  C   C55       1.0  0.6883374956716749  0.5771155342163822  0.465537245571042  1.0000
  C   C56       1.0  0.6296601784622383  0.6512312644492652  0.4509104612228469  1.0000
  C   C57       1.0  0.6109837000567923  0.720867750324942  0.5306377856819963  1.0000
  C   C58       1.0  0.6670309653242441  0.6487220497590158  0.5481235603432282  1.0000
  C   C59       1.0  0.2355183812856794  0.24452993461024158  0.1470965767249979  1.0000
  C   C60       1.0  0.12758787987023368  0.22816336410463828  0.18974873992559785  1.0000
  C   C61       1.0  0.9437334318220535  0.22012498465366553  0.19038944768974625  1.0000
  C   C62       1.0  0.8594154041971649  0.20454114561702139  0.23267476570165255  1.0000
  C   C63       1.0  0.9537810632955157  0.19545381529194833  0.2742903318363403  1.0000
  C   C64       1.0  0.13769474549108202  0.2038928600790086  0.273380722556304  1.0000
  C   C65       1.0  0.22249849849355738  0.2204216091138206  0.231831060480836  1.0000
  C   C66       1.0  0.8313707973606627  0.2290236160313626  0.14733502969585996  1.0000
  C   C67       1.0  0.8628615838221164  0.18362132602600667  0.3220707433125227  1.0000
  C   C68       1.0  0.6794918585730444  0.13891952008682304  0.3134550868918708  1.0000
  C   C69       1.0  0.8336635778932119  0.27539801526430807  0.3512666714587738  1.0000
  C   C70       1.0  0.9732011632152932  0.12772066609205976  0.3504322233633913  1.0000
  C   C71       1.0  0.05005206475674131  0.05299155173789669  0.3248313475731166  1.0000
  C   C72       1.0  0.14882316077031993  0.9998290630827497  0.34906424067546726  1.0000
  C   C73       1.0  0.1734588318792731  0.019949408831543305  0.3995110947686058  1.0000
  C   C74       1.0  0.09488766849859334  0.09368241249308079  0.4254890775899156  1.0000
  C   C75       1.0  0.9945665586510799  0.1461483312932117  0.4007385175156628  1.0000
  C   C76       1.0  0.27960802248792765  0.9607147260434203  0.4244131460242144  1.0000
  C   C77       1.0  0.12132620373343173  0.1202795257079785  0.4793305426542958  1.0000
  C   C78       1.0  0.6683696712621057  0.34458837861177466  0.015090627990936384  1.0000
  C   C79       1.0  0.7288663794216819  0.41744974020798503  0.9995109098035612  1.0000
  C   C80       1.0  0.7267171971723914  0.49594823547461425  0.03139062593649559  1.0000
  C   C81       1.0  0.6615518397817439  0.4958423837670337  0.078555211195642  1.0000
  C   C82       1.0  0.602822320170148  0.41995903360670883  0.09142803303297597  1.0000
  C   C83       1.0  0.7902789890890675  0.5742939760366637  0.015210220649201673  1.0000
  C   C84       1.0  0.8116556818916864  0.5771124606555914  0.9655365391770729  1.0000
  C   C85       1.0  0.8703351873403519  0.6512300194401207  0.9509110037284926  1.0000
  C   C86       1.0  0.8890183705705609  0.7208641464857024  0.03063673852643937  1.0000
  C   C87       1.0  0.8329702172620517  0.6487185316422172  0.04812324461268249  1.0000
  C   C88       1.0  0.7355237906150408  0.7554662071284708  0.3529037168133441  1.0000
  C   C89       1.0  0.627586661797338  0.7718335747573446  0.31025128512531797  1.0000
  C   C90       1.0  0.4437415680834889  0.7798708402407686  0.3096086413909376  1.0000
  C   C91       1.0  0.3594221827982977  0.7954624539189439  0.2673237383520188  1.0000
  C   C92       1.0  0.4537970547497352  0.8045458208632964  0.22570848935153978  1.0000
  C   C93       1.0  0.6377053337801968  0.7961066137906414  0.22661955063805544  1.0000
  C   C94       1.0  0.7225051859735672  0.77957264284705  0.2681701241058221  1.0000
  C   C95       1.0  0.33137761571148155  0.7709736512277983  0.3526632132928568  1.0000
  C   C96       1.0  0.3628788810966483  0.8163809955927378  0.17792835169089463  1.0000
  C   C97       1.0  0.17950623193623727  0.8610798858948739  0.18654338272310866  1.0000
  C   C98       1.0  0.33368675377506213  0.7246043520880222  0.14873314814641247  1.0000
  C   C99       1.0  0.47321288297621317  0.87228276850378  0.1495676861433282  1.0000
  C   C100      1.0  0.5500736240355552  0.9470099606785284  0.17516770155804548  1.0000
  C   C101      1.0  0.6488348824005357  0.00017421141753720012  0.15093389561909734  1.0000
  C   C102      1.0  0.6734684366309979  0.9800525528209858  0.10048655131811295  1.0000
  C   C103      1.0  0.5948898712578341  0.9063203093307522  0.07451044409918951  1.0000
  C   C104      1.0  0.4945784606623461  0.8538537964514603  0.0992612612055481  1.0000
  C   C105      1.0  0.7796077524822708  0.0392870718984852  0.0755826801330102  1.0000
  C   C106      1.0  0.6213325935901679  0.8797225169672701  0.02066819245467139  1.0000
  C   C107      1.0  0.1683665063212771  0.6554110484589302  0.4849092788190248  1.0000
  C   C108      1.0  0.22886431481146732  0.5825481026812794  0.5004901904790842  1.0000
  C   C109      1.0  0.22671500126875802  0.5040485580215446  0.468610091109113  1.0000
  C   C110      1.0  0.16154049157684372  0.5041545101645539  0.4214465981845805  1.0000
  C   C111      1.0  0.10281577948772018  0.580039219430205  0.40857284085139156  1.0000
  C   C112      1.0  0.29028121103850424  0.4257033591889297  0.4847901843314303  1.0000
  C   C113      1.0  0.31166510211848214  0.4228852578074295  0.5344641814757125  1.0000
  C   C114      1.0  0.37034505200723805  0.3487688866710741  0.549089827370338  1.0000
  C   C115      1.0  0.38901889773384823  0.2791330394424562  0.4693629241814533  1.0000
  C   C116      1.0  0.3329716324641154  0.3512793786534801  0.4518775707901454  1.0000
  N   N1        1.0  0.3945420820394503  0.6544680285416928  0.9397924090506249  1.0000
  N   N2        1.0  0.093328820371454  0.2774677259877407  0.0171654074779681  1.0000
  N   N3        1.0  0.8945438647241986  0.3455340279829572  0.5602083706979784  1.0000
  N   N4        1.0  0.5933329466898271  0.7225337219940969  0.4828336306587885  1.0000
  N   N5        1.0  0.6054513013796664  0.3455340340099298  0.060207708987235285  1.0000
  N   N6        1.0  0.9066685120738927  0.7225311433354377  0.9828326042097614  1.0000
  N   N7        1.0  0.1054455696875181  0.6544654878886718  0.439792572402247  1.0000
  N   N8        1.0  0.40667360011971704  0.27746579273657807  0.5171669538476067  1.0000
  O   O1        1.0  0.7405977170212594  0.819892803208674  0.8882719304534347  1.0000
  O   O2        1.0  0.6874273103893385  0.6856256187888758  0.8504243023651481  1.0000
  O   O3        1.0  0.09722180117021399  0.7514706671827369  0.8905087675562412  1.0000
  O   O4        1.0  0.3332609247340129  0.7841831050767213  0.8484602743671559  1.0000
  O   O5        1.0  0.7996353469025267  0.0945621363689924  0.555976839814754  1.0000
  O   O6        1.0  0.5523126691211714  0.0349278943446834  0.578124805078879  1.0000
  O   O7        1.0  0.766571647182616  0.9205463522971796  0.4998749256140228  1.0000
  O   O8        1.0  0.967857209693321  0.8157867984954663  0.5000838518555355  1.0000
  O   O9        1.0  0.11228348169078833  0.8904504282434047  0.0290266343330998  1.0000
  O   O10       1.0  0.24059670696397006  0.1801113906091913  0.6117276420809645  1.0000
  O   O11       1.0  0.18743857301146957  0.3143773814236397  0.649575875505043  1.0000
  O   O12       1.0  0.5972280744669548  0.24852736610383633  0.609490573217947  1.0000
  O   O13       1.0  0.833263397829839  0.21581586189186197  0.6515423591114313  1.0000
  O   O14       1.0  0.29962672243432564  0.905436235268567  0.9440232293896569  1.0000
  O   O15       1.0  0.052314231562441194  0.9650733888954974  0.9218734261320591  1.0000
  O   O16       1.0  0.2665714155642931  0.07945101823511179  0.0001254853909457963  1.0000
  O   O17       1.0  0.46784775961928915  0.1842126044304422  0.999918451510311  1.0000
  O   O18       1.0  0.6122822460330964  0.10954972099428059  0.4709737079980271  1.0000
  O   O19       1.0  0.25940356444260704  0.18010416484299444  0.11172947911549608  1.0000
  O   O20       1.0  0.31256080768865513  0.31437261979353076  0.1495757981953929  1.0000
  O   O21       1.0  0.9027728986014482  0.24852693274967658  0.1094909117335447  1.0000
  O   O22       1.0  0.6667324586938433  0.21581577665970283  0.1515416818292508  1.0000
  O   O23       1.0  0.2003790979395817  0.9054373648172886  0.44401944159081796  1.0000
  O   O24       1.0  0.4476912450101693  0.9650728841396372  0.4218723188678836  1.0000
  O   O25       1.0  0.23342831793879526  0.07945251928045853  0.5001238032566775  1.0000
  O   O26       1.0  0.0321414390829773  0.18421398901844555  0.499916140825114  1.0000
  O   O27       1.0  0.8877204324508342  0.1095465341652542  0.9709729822772386  1.0000
  O   O28       1.0  0.7593966764489436  0.8198932129843115  0.3882698579367769  1.0000
  O   O29       1.0  0.8125679737922127  0.6856240447295008  0.3504245384445284  1.0000
  O   O30       1.0  0.4027732069988376  0.7514695929221488  0.390507967617772  1.0000
  O   O31       1.0  0.1667352509559166  0.7841817414222375  0.3484583959528037  1.0000
  O   O32       1.0  0.7003719263414966  0.09456455450176551  0.0559774804742901  1.0000
  O   O33       1.0  0.947690998905621  0.034928024848312596  0.0781230433095033  1.0000
  O   O34       1.0  0.7334311822252814  0.9205504045363354  0.9998738527841695  1.0000
  O   O35       1.0  0.5321574708532922  0.8157862761689499  8.314609294046486e-05  1.0000
  O   O36       1.0  0.3877256171024043  0.8904542473279661  0.5290244465229037  1.0000
  F   F1        1.0  0.2383020655935013  0.67128418509391  0.6763678597870848  1.0000
  F   F2        1.0  0.009847583631739099  0.6888316397004317  0.6315884423901039  1.0000
  F   F3        1.0  0.2749988313613728  0.7215689261362925  0.6091935873346159  1.0000
  F   F4        1.0  0.3833368826293935  0.8856864082466345  0.6456856845633537  1.0000
  F   F5        1.0  0.30927291350734976  0.9322304618771894  0.7214151318962863  1.0000
  F   F6        1.0  0.4473822052706282  0.8099062571914216  0.7013142467272498  1.0000
  F   F7        1.0  0.7383036031667202  0.3287181029746903  0.82363260107045  1.0000
  F   F8        1.0  0.5098610185096462  0.31117291466196667  0.8684165676507974  1.0000
  F   F9        1.0  0.7750163903917837  0.27842947878574625  0.8908054123516536  1.0000
  F   F10       1.0  0.8833226089416899  0.11430993409395279  0.8543166854799863  1.0000
  F   F11       1.0  0.8092629808653272  0.06776790669121621  0.778588520775912  1.0000
  F   F12       1.0  0.947384643670148  0.1900887147269117  0.7986879816835142  1.0000
  F   F13       1.0  0.7616939504887413  0.3287217081981312  0.3236344272783427  1.0000
  F   F14       1.0  0.990145799780649  0.3111717102952766  0.3684157455124789  1.0000
  F   F15       1.0  0.7249853377022788  0.27842931019264233  0.39080579604312504  1.0000
  F   F16       1.0  0.6166630824897369  0.11431310197610858  0.35431346557727744  1.0000
  F   F17       1.0  0.6907270515985999  0.067772877959726  0.2785858286805905  1.0000
  F   F18       1.0  0.5526098618128402  0.1900945370966554  0.2986878975041448  1.0000
  F   F19       1.0  0.26171742336531173  0.6712814049759501  0.17636583188419758  1.0000
  F   F20       1.0  0.49017053870460364  0.6888329853728692  0.1315878709600256  1.0000
  F   F21       1.0  0.225017799531642  0.7215674768311119  0.10919205270492678  1.0000
  F   F22       1.0  0.1166747235182513  0.8856838429915752  0.14568333492312746  1.0000
  F   F23       1.0  0.190735667923434  0.9322290545931508  0.22141073724343832  1.0000
  F   F24       1.0  0.0526298011942217  0.8099031464105763  0.20131077490764673  1.0000
