data_image0
_chemical_formula_structural       Zn4P4H36C16N16O12
_chemical_formula_sum              "Zn4 P4 H36 C16 N16 O12"
_cell_length_a       8.961073865004268
_cell_length_b       9.642836532792328
_cell_length_c       10.726028659696343
_cell_angle_alpha    106.32588907546689
_cell_angle_beta     89.99988785947575
_cell_angle_gamma    90.00003282458903

_space_group_name_H-M_alt    "P 1"
_space_group_IT_number       1

loop_
  _space_group_symop_operation_xyz
  'x, y, z'

loop_
  _atom_site_type_symbol
  _atom_site_label
  _atom_site_symmetry_multiplicity
  _atom_site_fract_x
  _atom_site_fract_y
  _atom_site_fract_z
  _atom_site_occupancy
  Zn  Zn1       1.0  0.03884509162829631  0.21463580019050701  0.6520294134224471  1.0000
  Zn  Zn2       1.0  0.5388458129992842  0.28536294731900813  0.34796963985994717  1.0000
  Zn  Zn3       1.0  0.9611536132144564  0.785363753603697  0.34797044402511557  1.0000
  Zn  Zn4       1.0  0.461154007781154  0.7146376870394208  0.6520304993589292  1.0000
  P   P1        1.0  0.3107680092832865  0.39429253330062136  0.5711943722932061  1.0000
  P   P2        1.0  0.8107673132571661  0.1057083606132352  0.42880666187777894  1.0000
  P   P3        1.0  0.6892318114971517  0.6057081010578074  0.4288057669256702  1.0000
  P   P4        1.0  0.1892313915844994  0.894292263661526  0.5711944070646594  1.0000
  H   H1        1.0  0.0341431016902121  0.2643011142242528  0.17857504565692042  1.0000
  H   H2        1.0  0.5341426801518737  0.2356987238389792  0.8214233673206407  1.0000
  H   H3        1.0  0.9658567190913202  0.7356995302178148  0.8214241638393032  1.0000
  H   H4        1.0  0.46585714062856454  0.7643019105194426  0.17857677189823565  1.0000
  H   H5        1.0  0.8391983733517351  0.2866676547863917  0.2077920327225513  1.0000
  H   H6        1.0  0.3391973219181779  0.2133321792996554  0.792206814008061  1.0000
  H   H7        1.0  0.16080256336638854  0.7133318990078336  0.7922078247231993  1.0000
  H   H8        1.0  0.6608036147999456  0.786667374494577  0.2077930434376896  1.0000
  H   H9        1.0  0.9545740689917324  0.4407666750337069  0.2361084345943496  1.0000
  H   H10       1.0  0.4545729883508329  0.05923422175879978  0.7638923657717456  1.0000
  H   H11       1.0  0.04542575178871291  0.5592339593247218  0.7638917046245268  1.0000
  H   H12       1.0  0.545426832428511  0.9407653219517723  0.23610842139756727  1.0000
  H   H13       1.0  0.776895057017491  0.42213411107823606  0.6825838176566847  1.0000
  H   H14       1.0  0.2768961525822107  0.07786680232487701  0.3174154121394324  1.0000
  H   H15       1.0  0.2231058797017269  0.5778665333638457  0.3174153918386294  1.0000
  H   H16       1.0  0.7231047841359128  0.9221338320335591  0.6825847270785416  1.0000
  H   H17       1.0  0.735230289592245  0.5709460200717943  0.8225124787688145  1.0000
  H   H18       1.0  0.23522858414452943  0.9290543455683037  0.17748762043654412  1.0000
  H   H19       1.0  0.2647706471258786  0.4290546142866418  0.1774876604491595  1.0000
  H   H20       1.0  0.7647723525735871  0.07094520822592898  0.8225122370092066  1.0000
  H   H21       1.0  0.6161508155726736  0.42079103283607827  0.7792412295086137  1.0000
  H   H22       1.0  0.116152139003816  0.07920988743297389  0.2207573319085867  1.0000
  H   H23       1.0  0.3838501211476384  0.5792096216896496  0.2207570502640479  1.0000
  H   H24       1.0  0.8838499136530801  0.9207896764449116  0.7792415958136019  1.0000
  H   H25       1.0  0.6134477174204918  0.4177900536343344  0.0812038239770985  1.0000
  H   H26       1.0  0.11344740314527968  0.0822086852848827  0.9187960377370886  1.0000
  H   H27       1.0  0.38655210335994644  0.5822095001598839  0.9187960334695547  1.0000
  H   H28       1.0  0.8865524176340569  0.9177897778614794  0.08120446766000111  1.0000
  H   H29       1.0  0.7337825788438509  0.5474766082759216  0.15524111288925718  1.0000
  H   H30       1.0  0.23378155254498267  0.9525226767709966  0.8447587068970677  1.0000
  H   H31       1.0  0.266218357875367  0.45252295560194966  0.8447578148338408  1.0000
  H   H32       1.0  0.7662182682343611  0.0474768669395758  0.1552420802722452  1.0000
  H   H33       1.0  0.21342152618612434  0.45061986011736366  0.4934948870048145  1.0000
  H   H34       1.0  0.71342172860831  0.04938103184786511  0.5065063054349395  1.0000
  H   H35       1.0  0.7865760627178631  0.5493818447216012  0.5065064637107496  1.0000
  H   H36       1.0  0.2865769762344427  0.9506185219463461  0.4934935520126231  1.0000
  C   C1        1.0  0.9376553790445359  0.3311581608140983  0.1719954897787588  1.0000
  C   C2        1.0  0.4376530999581263  0.16884274572336716  0.828004408372692  1.0000
  C   C3        1.0  0.062345557673594995  0.6688424735443377  0.8280046494392153  1.0000
  C   C4        1.0  0.562346720822312  0.8311568080708511  0.17199544907396103  1.0000
  C   C5        1.0  0.9180317753194914  0.3328018117542014  0.03583545961262758  1.0000
  C   C6        1.0  0.4180302913347305  0.16719802390989708  0.9641632589480836  1.0000
  C   C7        1.0  0.0819691613997193  0.6671977521236769  0.9641634681104704  1.0000
  C   C8        1.0  0.5819695294457077  0.8328015298843211  0.035836598498576684  1.0000
  C   C9        1.0  0.8255776141692409  0.3860943228623839  0.8639908254761861  1.0000
  C   C10       1.0  0.325578042274131  0.11390550086737508  0.1360089731210081  1.0000
  C   C11       1.0  0.1744233225477743  0.6139041402839923  0.13600967991999374  1.0000
  C   C12       1.0  0.6744228944439854  0.8860940529268502  0.8639908843247426  1.0000
  C   C13       1.0  0.7337818132556535  0.4529928996832523  0.7821457342290258  1.0000
  C   C14       1.0  0.2337820075688342  0.047006932292624995  0.2178532838907046  1.0000
  C   C15       1.0  0.2662180075269731  0.5470066742782578  0.2178522637723219  1.0000
  C   C16       1.0  0.7662189291492895  0.9529937020658109  0.7821468553272624  1.0000
  N   N1        1.0  0.9427901440534258  0.2994640015188851  0.8279505511787022  1.0000
  N   N2        1.0  0.44278942537730603  0.20053582455717128  0.1720490568509661  1.0000
  N   N3        1.0  0.0572096767270196  0.7005366328395368  0.1720495880401742  1.0000
  N   N4        1.0  0.5572103954031391  0.7994648098012503  0.8279510823679102  1.0000
  N   N5        1.0  0.0022219321035095003  0.2670996588418362  0.9355412183344499  1.0000
  N   N6        1.0  0.5022210549319439  0.23290124906296938  0.06445845803698089  1.0000
  N   N7        1.0  0.9977790046146142  0.7329009755165998  0.0644589208835242  1.0000
  N   N8        1.0  0.49777876584958847  0.7670983148148949  0.9355404696870266  1.0000
  N   N9        1.0  0.806839758283232  0.4081731340488091  0.9943701112490828  1.0000
  N   N10       1.0  0.30683936297477726  0.09182668930585439  0.0056297178134770065  1.0000
  N   N11       1.0  0.1931600624994019  0.5918275204769116  0.005628168524488314  1.0000
  N   N12       1.0  0.6931615737422449  0.9081728544047254  0.9943710693549263  1.0000
  N   N13       1.0  0.691466308912169  0.49070634984829536  0.06616447552379157  1.0000
  N   N14       1.0  0.19146591402173396  0.009293471196869497  0.9338355411171831  1.0000
  N   N15       1.0  0.30853351186936345  0.5092932140295686  0.9338344522002088  1.0000
  N   N16       1.0  0.8085339067576031  0.9907049919494925  0.06616496427990631  1.0000
  O   O1        1.0  0.21231985847641252  0.34154158859158207  0.6666378497010754  1.0000
  O   O2        1.0  0.7123205353331131  0.15845822278738805  0.3333630627572076  1.0000
  O   O3        1.0  0.7876788463652461  0.6584579551189761  0.33336293746913975  1.0000
  O   O4        1.0  0.28767928544732513  0.8415413310068302  0.6666367946894454  1.0000
  O   O5        1.0  0.3975065646625636  0.2681030510328455  0.4806506229732221  1.0000
  O   O6        1.0  0.8975046184076376  0.23189784461729343  0.5193502701760409  1.0000
  O   O7        1.0  0.6024932561178744  0.7318975833255763  0.5193495162456613  1.0000
  O   O8        1.0  0.1024929704963498  0.7681027796574611  0.48065079876730715  1.0000
  O   O9        1.0  0.4116531880350252  0.517238836403081  0.6475419144983617  1.0000
  O   O10       1.0  0.9116529055369398  0.9827604522043811  0.35245761609875353  1.0000
  O   O11       1.0  0.588346632745413  0.48276071739113746  0.3524579429482912  1.0000
  O   O12       1.0  0.08834691524240411  0.017239091506184  0.6475431710705593  1.0000
