data_image0
_chemical_formula_structural       CdH26C28N10O6
_chemical_formula_sum              "Cd1 H26 C28 N10 O6"
_cell_length_a       7.355591733415369
_cell_length_b       7.805585484815098
_cell_length_c       12.360887614393658
_cell_angle_alpha    87.19594783633177
_cell_angle_beta     84.02759648564627
_cell_angle_gamma    78.93560964369183

_space_group_name_H-M_alt    "P 1"
_space_group_IT_number       1

loop_
  _space_group_symop_operation_xyz
  'x, y, z'

loop_
  _atom_site_type_symbol
  _atom_site_label
  _atom_site_symmetry_multiplicity
  _atom_site_fract_x
  _atom_site_fract_y
  _atom_site_fract_z
  _atom_site_occupancy
  Cd  Cd1       1.0  1.0427844046052874e-06  0.5000007374812512  1.5782856620178272e-07  1.0000
  H   H1        1.0  0.4110910232410064  0.38201241064521685  0.8873007270346417  1.0000
  H   H2        1.0  0.5889080610122691  0.6179873712477431  0.11269729157663727  1.0000
  H   H3        1.0  0.0738459357129955  0.5433452457818505  0.5637235539608125  1.0000
  H   H4        1.0  0.9261504317514238  0.4566544983671434  0.43627625747559745  1.0000
  H   H5        1.0  0.13299543161657826  0.7474676439061266  0.38299826703031664  1.0000
  H   H6        1.0  0.867005827490317  0.25253480903182884  0.6170035701839536  1.0000
  H   H7        1.0  0.937078718179194  0.632370104415351  0.7494284581569983  1.0000
  H   H8        1.0  0.06291901160880542  0.3676296617102181  0.2505712655242859  1.0000
  H   H9        1.0  0.5635700482179261  0.2710981905588525  0.7079197655442682  1.0000
  H   H10       1.0  0.4364279584314162  0.7289002635730737  0.2920783654090968  1.0000
  H   H11       1.0  0.6971448005226865  0.16274402279172756  0.17703699477777227  1.0000
  H   H12       1.0  0.30285730881396944  0.8372545096882363  0.822964107539917  1.0000
  H   H13       1.0  0.9638685159130986  0.9584576473661812  0.08737501521093796  1.0000
  H   H14       1.0  0.0361333047747721  0.04154218779366659  0.9126252538623658  1.0000
  H   H15       1.0  0.8644736846192275  0.9371965924021878  0.48604803481615716  1.0000
  H   H16       1.0  0.1355278552781556  0.06280455164671388  0.5139530183276333  1.0000
  H   H17       1.0  0.41654881610764966  0.25543441846424025  0.2696542908363354  1.0000
  H   H18       1.0  0.5834532814415638  0.744564104701972  0.7303443855090562  1.0000
  H   H19       1.0  0.4811788965290377  0.04740105583306329  0.8788770917656162  1.0000
  H   H20       1.0  0.5188226315808961  0.9526000789020869  0.1211215354058766  1.0000
  H   H21       1.0  0.6555184292930178  0.09893836007815078  0.9552448474794059  1.0000
  H   H22       1.0  0.3444803741697698  0.9010627307038631  0.04475395520235278  1.0000
  H   H23       1.0  0.8175152752740261  0.31506692267519293  0.8579244651910468  1.0000
  H   H24       1.0  0.18248626462335696  0.6849342213737086  0.1420765879527437  1.0000
  H   H25       1.0  0.7075862111547694  0.5103064775666438  0.8875537809888666  1.0000
  H   H26       1.0  0.2924139624898885  0.48969464140110824  0.11244655125262429  1.0000
  C   C1        1.0  0.6844620428347241  0.8253530781606384  0.9250666161276013  1.0000
  C   C2        1.0  0.3155397739240016  0.17464675389462056  0.07493284428827705  1.0000
  C   C3        1.0  0.4105915475909256  0.32075248923853644  0.5164683197159475  1.0000
  C   C4        1.0  0.5894064629875616  0.6792459679979713  0.4835306198948499  1.0000
  C   C5        1.0  0.32952812442224655  0.3942429170482312  0.6207996295399878  1.0000
  C   C6        1.0  0.6704696014366008  0.6057568459727491  0.3791992854838566  1.0000
  C   C7        1.0  0.33975891970506206  0.4124550034550579  0.8138501711570993  1.0000
  C   C8        1.0  0.6602388061537853  0.5875447595659152  0.1861487438667452  1.0000
  C   C9        1.0  0.15345831831930218  0.5029014023037419  0.6330409522493595  1.0000
  C   C10       1.0  0.8465380452159723  0.49709833874067033  0.36695805052961805  1.0000
  C   C11       1.0  0.5986512911976051  0.17443967901631643  0.397999035068949  1.0000
  C   C12       1.0  0.4013480895627596  0.8255588064059294  0.6020014341015807  1.0000
  C   C13       1.0  0.032732869661877786  0.8405253061108695  0.3400717732069935  1.0000
  C   C14       1.0  0.9672700364882304  0.1594758630191819  0.6599300008390966  1.0000
  C   C15       1.0  0.0766897236337769  0.5538705200020643  0.736525068777851  1.0000
  C   C16       1.0  0.9233093724069479  0.446129271204647  0.2634753758057327  1.0000
  C   C17       1.0  0.5650211305802415  0.004404949374105596  0.9470305829505105  1.0000
  C   C18       1.0  0.4349776728825391  0.9955961414079082  0.05296821973124819  1.0000
  C   C19       1.0  0.7574908070746391  0.0640256731528268  0.34000071108481916  1.0000
  C   C20       1.0  0.24251101754238386  0.9359741651116024  0.6600003666459242  1.0000
  C   C21       1.0  0.42532552947052693  0.352469010692154  0.7137811671983624  1.0000
  C   C22       1.0  0.5746724771788154  0.6475294434397652  0.2862169637549953  1.0000
  C   C23       1.0  0.7881702584854937  0.0710983081941876  0.2261639666192251  1.0000
  C   C24       1.0  0.21183185085116923  0.928900224285776  0.7738371356984712  1.0000
  C   C25       1.0  0.939632006691703  0.9588700095192377  0.17572721934249094  1.0000
  C   C26       1.0  0.060369813996175  0.04112982564060989  0.8242730497308128  1.0000
  C   C27       1.0  0.8847054761706876  0.9471086102535576  0.3976959782213426  1.0000
  C   C28       1.0  0.11529714525978113  0.052893864660966  0.6023057712377946  1.0000
  N   N1        1.0  0.44584840248211327  0.25817874710408256  0.3508660417325017  1.0000
  N   N2        1.0  0.5541509704199471  0.7418197321089934  0.6491328101231627  1.0000
  N   N3        1.0  0.1659106416345821  0.5069769637656661  0.826245207648327  1.0000
  N   N4        1.0  0.8340870881534173  0.4930228023598956  0.17375451603295022  1.0000
  N   N5        1.0  0.5793795650464661  0.21120840174334174  0.5036080248708003  1.0000
  N   N6        1.0  0.4206195270651066  0.7887913863587882  0.4963916110553439  1.0000
  N   N7        1.0  0.32408302375747416  0.35187311335343446  0.4245367535011651  1.0000
  N   N8        1.0  0.6759149868210201  0.6481253438830732  0.5754621861096323  1.0000
  N   N9        1.0  0.0601227571986769  0.8442713801990536  0.2306914447782517  1.0000
  N   N10       1.0  0.9398790713474912  0.15572846116996428  0.7693104416099245  1.0000
  O   O1        1.0  0.6348958580297079  0.7274389201309502  0.8575742184027387  1.0000
  O   O2        1.0  0.36510488112508455  0.2725595841632753  0.14242535435522535  1.0000
  O   O3        1.0  0.7640301891695458  0.3948202490463756  0.9198365732622447  1.0000
  O   O4        1.0  0.23597134679868503  0.6051808918979373  0.0801636712241134  1.0000
  O   O5        1.0  0.8243338780782283  0.7801939811576797  0.9791052620689694  1.0000
  O   O6        1.0  0.1756649332428566  0.21980711583350399  0.020895157927654395  1.0000
