data_image0
_chemical_formula_structural       CuMo6H20C16N6O22
_chemical_formula_sum              "Cu1 Mo6 H20 C16 N6 O22"
_cell_length_a       7.657661395964971
_cell_length_b       9.948213570416048
_cell_length_c       10.411330412074076
_cell_angle_alpha    105.46908997815724
_cell_angle_beta     92.80365389538332
_cell_angle_gamma    98.5002683845844

_space_group_name_H-M_alt    "P 1"
_space_group_IT_number       1

loop_
  _space_group_symop_operation_xyz
  'x, y, z'

loop_
  _atom_site_type_symbol
  _atom_site_label
  _atom_site_symmetry_multiplicity
  _atom_site_fract_x
  _atom_site_fract_y
  _atom_site_fract_z
  _atom_site_occupancy
  Cu  Cu1       1.0  0.5000009404136349  2.2939678250027288e-07  9.974859977945124e-07  1.0000
  Mo  Mo1       1.0  0.19450272312900554  0.8060245080865658  0.35995183669231784  1.0000
  Mo  Mo2       1.0  0.8054970069142798  0.19397790506873497  0.6400495442926797  1.0000
  Mo  Mo3       1.0  0.5080855355534838  0.9013216945652408  0.6149050564034797  1.0000
  Mo  Mo4       1.0  0.4919167897603386  0.09868071329038491  0.3850944821169833  1.0000
  Mo  Mo5       1.0  0.9898537507909212  0.07753593151833374  0.3582600223057  1.0000
  Mo  Mo6       1.0  0.010149026229313988  0.9224685920518498  0.6417400730514302  1.0000
  H   H1        1.0  0.4230019652220065  0.16691056375064056  0.8173449392596338  1.0000
  H   H2        1.0  0.576998345516678  0.8330823218134357  0.18265401468129747  1.0000
  H   H3        1.0  0.1570681083627719  0.6024824045378949  0.5724098990686102  1.0000
  H   H4        1.0  0.8429257264242196  0.39751684800896214  0.42759144981223335  1.0000
  H   H5        1.0  0.15982390183545186  0.9365250604439056  0.94627699154087  1.0000
  H   H6        1.0  0.8401803321374076  0.06347416932822372  0.0537189086673351  1.0000
  H   H7        1.0  0.20929801335629616  0.8630265243875646  0.06381537045466262  1.0000
  H   H8        1.0  0.7907023096070277  0.13697271491010815  0.9361813722648691  1.0000
  H   H9        1.0  0.34047394283737015  0.25508046056366857  0.2125585285934974  1.0000
  H   H10       1.0  0.6595301680256044  0.744924057204621  0.787444487902313  1.0000
  H   H11       1.0  0.23105711720052113  0.4682675167840459  0.12670055054498167  1.0000
  H   H12       1.0  0.7689410621986853  0.53173384352786  0.873298591475745  1.0000
  H   H13       1.0  0.3253292894579404  0.42375939951165986  0.5091605305909681  1.0000
  H   H14       1.0  0.6746761099884323  0.5762451163948088  0.4908406040798355  1.0000
  H   H15       1.0  0.40869413344935884  0.29580139936398814  0.671104679890945  1.0000
  H   H16       1.0  0.5913136354143376  0.7042020533855294  0.32889433389700434  1.0000
  H   H17       1.0  0.1443607120578534  0.5746439856937116  0.9662014825786541  1.0000
  H   H18       1.0  0.8556240868044398  0.4253436491883562  0.03379468571269941  1.0000
  H   H19       1.0  0.061751511816794405  0.6834846362731783  0.7857287428098516  1.0000
  H   H20       1.0  0.9382352803441235  0.3165061679548559  0.21426926068971142  1.0000
  C   C1        1.0  0.3403120464764484  0.2703590861605605  0.1133945610642471  1.0000
  C   C2        1.0  0.6596918204295791  0.7296443753264797  0.8866062558277578  1.0000
  C   C3        1.0  0.284455197770356  0.3786530846663538  0.06792691048839572  1.0000
  C   C4        1.0  0.7155447006421555  0.6213440365527063  0.9320721571726623  1.0000
  C   C5        1.0  0.3166242292068944  0.3490387974634288  0.9325946876577333  1.0000
  C   C6        1.0  0.6833754524042773  0.6509572651103429  0.06740506217772699  1.0000
  C   C7        1.0  0.287476827764351  0.45043978826443987  0.6107431495219657  1.0000
  C   C8        1.0  0.7125252807481246  0.5495615609458895  0.3892570711729064  1.0000
  C   C9        1.0  0.3326230182960188  0.3812818047926783  0.7029603918314322  1.0000
  C   C10       1.0  0.6673806137049284  0.6187205996250997  0.29703918604950275  1.0000
  C   C11       1.0  0.2790769784000133  0.4217060223113125  0.8330815489953594  1.0000
  C   C12       1.0  0.7209200898368878  0.578290047138161  0.16691812211916363  1.0000
  C   C13       1.0  0.18366807816795472  0.5348716474251916  0.8657589472932584  1.0000
  C   C14       1.0  0.8163239407415049  0.46511914305143887  0.13423921364818633  1.0000
  C   C15       1.0  0.1388794442582579  0.5983822602390703  0.7689290077653085  1.0000
  C   C16       1.0  0.8611117196704826  0.4016106493899728  0.23106967065233167  1.0000
  N   N1        1.0  0.39007728479802484  0.2292617662776594  0.9053611956383918  1.0000
  N   N2        1.0  0.6099191905188376  0.7707374770294494  0.09464311374159004  1.0000
  N   N3        1.0  0.4035116110202779  0.18003872906080431  0.012939006269022012  1.0000
  N   N4        1.0  0.596490307846473  0.8199615591401895  0.9870647783784392  1.0000
  N   N5        1.0  0.1901978189208364  0.5545279058561335  0.6448429307829713  1.0000
  N   N6        1.0  0.8097970967000805  0.44547028539559375  0.3551581790400107  1.0000
  O   O1        1.0  0.4511056171182091  0.8717948946412194  0.40982094639668537  1.0000
  O   O2        1.0  0.5488998004318973  0.1282096196892155  0.5901821094595903  1.0000
  O   O3        1.0  0.2382047324991916  0.9075570129200942  0.5853841086559655  1.0000
  O   O4        1.0  0.7617997848108543  0.09244962450283374  0.41461466171284656  1.0000
  O   O5        1.0  0.2449528461834802  0.04405082126141481  0.3806389610472038  1.0000
  O   O6        1.0  0.7550505509123938  0.9559505260870936  0.6193593778226614  1.0000
  O   O7        1.0  0.9802575012586132  0.8750321153902052  0.40200360926684914  1.0000
  O   O8        1.0  0.019745068012149106  0.12497134874667645  0.5979981288574265  1.0000
  O   O9        1.0  0.16444209269109683  0.643347194718139  0.39365500049663643  1.0000
  O   O10       1.0  0.8355602326227186  0.35665521313748644  0.6063445380238335  1.0000
  O   O11       1.0  0.18869252332557815  0.7697754736024296  0.18640410298188212  1.0000
  O   O12       1.0  0.8113063033048746  0.2302227081237548  0.8135961643297733  1.0000
  O   O13       1.0  0.48073445645461294  0.9761502959691629  0.7831812984813312  1.0000
  O   O14       1.0  0.5192632802900478  0.023848947840164704  0.216818247295457  1.0000
  O   O15       1.0  0.500740867062632  0.7248430136351589  0.6001906372184962  1.0000
  O   O16       1.0  0.49925731233657433  0.27515834667674  0.3998085048022304  1.0000
  O   O17       1.0  0.0723613091086293  0.25339764441076806  0.3772503509726661  1.0000
  O   O18       1.0  0.9276427927024784  0.7466068741455417  0.6227517049304083  1.0000
  O   O19       1.0  0.9443626950575706  0.007355559807457698  0.186969938671659  1.0000
  O   O20       1.0  0.05564379427460156  0.9926478940158677  0.8130319175340192  1.0000
  O   O21       1.0  0.24728909542329092  0.888499456707983  0.9819416442138761  1.0000
  O   O22       1.0  0.7527133982597577  0.11149765921140194  0.018055580982661513  1.0000
