data_image0
_chemical_formula_structural       Cu2H16C20S2Br2N4
_chemical_formula_sum              "Cu2 H16 C20 S2 Br2 N4"
_cell_length_a       7.557090088105333
_cell_length_b       8.669777612368767
_cell_length_c       9.395175113563575
_cell_angle_alpha    71.31860266298047
_cell_angle_beta     72.19907814129229
_cell_angle_gamma    66.4907589648095

_space_group_name_H-M_alt    "P 1"
_space_group_IT_number       1

loop_
  _space_group_symop_operation_xyz
  'x, y, z'

loop_
  _atom_site_type_symbol
  _atom_site_label
  _atom_site_symmetry_multiplicity
  _atom_site_fract_x
  _atom_site_fract_y
  _atom_site_fract_z
  _atom_site_occupancy
  Cu  Cu1       1.0  0.9914295182378081  0.023020428775296902  0.6741824151909626  1.0000
  Cu  Cu2       1.0  0.008569136722314956  0.976979654116107  0.3258179488460229  1.0000
  H   H1        1.0  0.1149807487183594  0.45520027163170335  0.12160628154408928  1.0000
  H   H2        1.0  0.8850188785558826  0.5447972202694374  0.8783956606549665  1.0000
  H   H3        1.0  0.8468263862209182  0.36210455009895526  0.3217248982832642  1.0000
  H   H4        1.0  0.1531746383043995  0.6378929264336364  0.6782777679473141  1.0000
  H   H5        1.0  0.6396907391916498  0.5469715540131688  0.5141183515123515  1.0000
  H   H6        1.0  0.36030743191938097  0.4530298204456783  0.4858817562148445  1.0000
  H   H7        1.0  0.7274004046025481  0.7973997697574191  0.5095768206922598  1.0000
  H   H8        1.0  0.2725958761764176  0.20260292734818816  0.49042017560864076  1.0000
  H   H9        1.0  0.35358820818258613  0.8984426319546301  0.7319499077302963  1.0000
  H   H10       1.0  0.6464165554633183  0.10155226998294611  0.2680493914704343  1.0000
  H   H11       1.0  0.6443426367259022  0.8644377598742635  0.8221202697567095  1.0000
  H   H12       1.0  0.3556597712026459  0.1355597248559519  0.1778799238779101  1.0000
  H   H13       1.0  0.6574064409827325  0.7389818518862514  0.10421520184516446  1.0000
  H   H14       1.0  0.3425931273793664  0.2610195072040469  0.8957856299135615  1.0000
  H   H15       1.0  0.37098941238785693  0.6511120938984334  0.28000785577278015  1.0000
  H   H16       1.0  0.6290082748740743  0.3488905721278428  0.7199919956446406  1.0000
  C   C1        1.0  0.06129088043398673  0.6693356169069486  0.21641288901663105  1.0000
  C   C2        1.0  0.9387096510103419  0.33066316690386083  0.7835873898191749  1.0000
  C   C3        1.0  0.02666047821229263  0.5257503183843467  0.21091419716646703  1.0000
  C   C4        1.0  0.9733377067465766  0.4742510325083274  0.7890891071882109  1.0000
  C   C5        1.0  0.8754076585398777  0.4762436809683522  0.3208609795897814  1.0000
  C   C6        1.0  0.12459427015551935  0.5237550874739085  0.6791400232775473  1.0000
  C   C7        1.0  0.7638528557768537  0.575886629361058  0.4288789238196884  1.0000
  C   C8        1.0  0.23614579918326228  0.4241134535303459  0.5711214402173042  1.0000
  C   C9        1.0  0.8101888095081762  0.7161800632958304  0.4271733292393946  1.0000
  C   C10       1.0  0.1898093569868989  0.28382131901840063  0.5728257129453098  1.0000
  C   C11       1.0  0.20027903976567527  0.7969706384955161  0.9530981426706828  1.0000
  C   C12       1.0  0.7997228796978317  0.20302814565752664  0.04690072911165541  1.0000
  C   C13       1.0  0.36336518471656387  0.8427365047543772  0.8521040604776573  1.0000
  C   C14       1.0  0.6366343836455285  0.15726485433591364  0.14789677128106862  1.0000
  C   C15       1.0  0.5251149961578604  0.8224763869843131  0.9036188475620718  1.0000
  C   C16       1.0  0.4748869233056467  0.1775223971687296  0.09638002422027366  1.0000
  C   C17       1.0  0.5333045378066643  0.7524618435985743  0.06020208802358698  1.0000
  C   C18       1.0  0.4666950305554351  0.2475395154917166  0.9397987437351389  1.0000
  C   C19       1.0  0.378563733574822  0.7035701429024499  0.15744557078050994  1.0000
  C   C20       1.0  0.6214344375362088  0.2964312315563972  0.8425545369466929  1.0000
  S   S1        1.0  0.9883920826886906  0.8339441621023626  0.9000108255491526  1.0000
  S   S2        1.0  0.011607960290597  0.1660559211312744  0.09998813143436538  1.0000
  Br  Br1       1.0  0.7216129889732484  0.0930553135027594  0.5444517346608888  1.0000
  Br  Br2       1.0  0.2783865747729024  0.9069460534429226  0.45554803155534535  1.0000
  N   N1        1.0  0.9590336549781001  0.7635504369407754  0.32270881926332606  1.0000
  N   N2        1.0  0.04096638800118769  0.23644964629286136  0.6772901377201916  1.0000
  N   N3        1.0  0.219175287413293  0.7217530549718276  0.1051912318242572  1.0000
  N   N4        1.0  0.7808252440310426  0.2782457288389821  0.8948090470115488  1.0000
