data_image0
_chemical_formula_structural       Mn2H10C20N4Cl4O10
_chemical_formula_sum              "Mn2 H10 C20 N4 Cl4 O10"
_cell_length_a       8.942829305042611
_cell_length_b       9.411897275679127
_cell_length_c       11.058332382188585
_cell_angle_alpha    61.356663744923566
_cell_angle_beta     67.71757603255661
_cell_angle_gamma    78.33805388747359

_space_group_name_H-M_alt    "P 1"
_space_group_IT_number       1

loop_
  _space_group_symop_operation_xyz
  'x, y, z'

loop_
  _atom_site_type_symbol
  _atom_site_label
  _atom_site_symmetry_multiplicity
  _atom_site_fract_x
  _atom_site_fract_y
  _atom_site_fract_z
  _atom_site_occupancy
  Mn  Mn1       1.0  0.6345901798366569  0.7410278530751454  0.552043085162552  1.0000
  Mn  Mn2       1.0  0.36511437880517406  0.25907261399627396  0.44808327364836487  1.0000
  H   H1        1.0  0.48602883415185255  0.9596344782318551  0.3594525517970907  1.0000
  H   H2        1.0  0.5138233271571977  0.04007783768461338  0.6409962536560698  1.0000
  H   H3        1.0  0.6672807288796462  0.0035488553843663006  0.279685980434067  1.0000
  H   H4        1.0  0.33247591336294846  0.9964435771369078  0.7207698212610083  1.0000
  H   H5        1.0  0.220369935184543  0.7333605167455701  0.7105420614348644  1.0000
  H   H6        1.0  0.7798827770981731  0.26682931795788517  0.28938744539517813  1.0000
  H   H7        1.0  0.9838005377377355  0.5965504432471604  0.7349035578824752  1.0000
  H   H8        1.0  0.016341375141983902  0.4036246008850171  0.2651733147350014  1.0000
  H   H9        1.0  0.051324284254434395  0.40564466595332505  0.6206486720766904  1.0000
  H   H10       1.0  0.948683989975713  0.5945645502809072  0.3794624472049149  1.0000
  C   C1        1.0  0.9534604128905568  0.9018175688190764  0.45264101648797345  1.0000
  C   C2        1.0  0.046633642659990905  0.0979440391999447  0.5473693796313838  1.0000
  C   C3        1.0  0.16924782974707137  0.025477104605258195  0.4503293270649208  1.0000
  C   C4        1.0  0.8308757573526082  0.9742579612710212  0.5496790018663661  1.0000
  C   C5        1.0  0.11783044444131009  0.9394107491918717  0.39969609315191684  1.0000
  C   C6        1.0  0.8823106292308225  0.06028098330775584  0.6003470048610636  1.0000
  C   C7        1.0  0.6184082687717236  0.522596807344037  0.8598016650843404  1.0000
  C   C8        1.0  0.38143593129237974  0.4774518867241323  0.1400946784712218  1.0000
  C   C9        1.0  0.5339624610394367  0.3694297085066011  0.1250247041603315  1.0000
  C   C10       1.0  0.46598711167992946  0.6305960789985365  0.8748672201464485  1.0000
  C   C11       1.0  0.6445648467190424  0.39619922983962397  0.9860912924099804  1.0000
  C   C12       1.0  0.3553557271900587  0.6038498802566252  0.013757475632608955  1.0000
  C   C13       1.0  0.23718707025645355  0.64978775618286  0.6639464666818569  1.0000
  C   C14       1.0  0.7629820462248704  0.3503128225715528  0.33598946017215053  1.0000
  C   C15       1.0  0.10862112246103099  0.5746018525216241  0.6780608742541431  1.0000
  C   C16       1.0  0.8914741933573681  0.42547827089041573  0.3219507988082669  1.0000
  C   C17       1.0  0.14480901719898748  0.46965493784022516  0.6145517626292188  1.0000
  C   C18       1.0  0.855214720812782  0.530425787528223  0.38550749136869206  1.0000
  C   C19       1.0  0.41495401485924077  0.5167615374841218  0.537476634413224  1.0000
  C   C20       1.0  0.5851006245718793  0.48327057628144815  0.46249471894374483  1.0000
  N   N1        1.0  0.3906972743874988  0.6219368900505485  0.5927325969126043  1.0000
  N   N2        1.0  0.6094804369999878  0.3781736489037186  0.4071654517436086  1.0000
  N   N3        1.0  0.2983467678190266  0.43975577873107585  0.5447999123651143  1.0000
  N   N4        1.0  0.7016459753044728  0.5603107911927195  0.45525833373685015  1.0000
  Cl  Cl1       1.0  0.2564393743136931  0.8618250646648349  0.28644808259625865  1.0000
  Cl  Cl2       1.0  0.7434837860116517  0.13793722212244566  0.7134249377582974  1.0000
  Cl  Cl3       1.0  0.8151685887504954  0.2715726383828709  0.9736010472740871  1.0000
  Cl  Cl4       1.0  0.18486853271488002  0.7287171650882908  0.025865278158981795  1.0000
  O   O1        1.0  0.8977104834484635  0.8086184345119136  0.42806161331946396  1.0000
  O   O2        1.0  0.10227157628944641  0.19128044812428868  0.5718778851578179  1.0000
  O   O3        1.0  0.3161670579289862  0.04886511283361728  0.42394432623393635  1.0000
  O   O4        1.0  0.6839423571786368  0.9509741385392159  0.5760426420200417  1.0000
  O   O5        1.0  0.7129896950182371  0.5573398665354715  0.7302433609745123  1.0000
  O   O6        1.0  0.2867945073348039  0.4427719138820904  0.2696084943512105  1.0000
  O   O7        1.0  0.5515420283661143  0.2595794979185513  0.24345705246631155  1.0000
  O   O8        1.0  0.4484014202193051  0.7405009043815695  0.7564424815051537  1.0000
  O   O9        1.0  0.5976605585177381  0.9101141426891882  0.34405439785179237  1.0000
  O   O10       1.0  0.40225109580882906  0.0897395115158162  0.6561554086280094  1.0000
