data_image0
_chemical_formula_structural       Sr2H22C14N2O16
_chemical_formula_sum              "Sr2 H22 C14 N2 O16"
_cell_length_a       7.0668637159201175
_cell_length_b       8.682929183246305
_cell_length_c       10.0025127342984
_cell_angle_alpha    71.33537487283127
_cell_angle_beta     73.64728571571638
_cell_angle_gamma    81.06495776524673

_space_group_name_H-M_alt    "P 1"
_space_group_IT_number       1

loop_
  _space_group_symop_operation_xyz
  'x, y, z'

loop_
  _atom_site_type_symbol
  _atom_site_label
  _atom_site_symmetry_multiplicity
  _atom_site_fract_x
  _atom_site_fract_y
  _atom_site_fract_z
  _atom_site_occupancy
  Sr  Sr1       1.0  0.2714474403235911  0.12341392244529466  0.40137265000836214  1.0000
  Sr  Sr2       1.0  0.7285520595198707  0.8765813561137323  0.5986381167314223  1.0000
  H   H1        1.0  0.3776197244764106  0.9374366616529316  0.9146300172761316  1.0000
  H   H2        1.0  0.6223657019798735  0.0625766871242561  0.08536765452883091  1.0000
  H   H3        1.0  0.03071681478517262  0.6559902649976622  0.2972984983031424  1.0000
  H   H4        1.0  0.9692837845282367  0.34401972349622423  0.702698980988913  1.0000
  H   H5        1.0  0.8841858253560986  0.7246730015044991  0.8904408774456201  1.0000
  H   H6        1.0  0.11579502668964639  0.2753292548566933  0.1095627985949363  1.0000
  H   H7        1.0  0.9191892934358705  0.3926443251920092  0.41959949523904083  1.0000
  H   H8        1.0  0.08080676131545061  0.6073545644157791  0.5804059835406578  1.0000
  H   H9        1.0  0.8703139506163283  0.24255139326720618  0.5562759201647938  1.0000
  H   H10       1.0  0.12968510016959564  0.7574463576364467  0.44372325820294384  1.0000
  H   H11       1.0  0.3433786941346781  0.3895608067659994  0.5435691284637514  1.0000
  H   H12       1.0  0.6566159717980682  0.6104368472699381  0.4564329780041234  1.0000
  H   H13       1.0  0.31512881840061624  0.8342615991684074  0.23321530028037074  1.0000
  H   H14       1.0  0.684871448909881  0.16573861215673702  0.7667849479042488  1.0000
  H   H15       1.0  0.5404144351647063  0.3871942431346583  0.4186195026356998  1.0000
  H   H16       1.0  0.4595756586966644  0.6128045421182411  0.5813822318113466  1.0000
  H   H17       1.0  0.357690984534834  0.3798418533820468  0.06803567154945256  1.0000
  H   H18       1.0  0.6423059950532846  0.6201607473772769  0.9319605935440052  1.0000
  H   H19       1.0  0.4422149972922469  0.792021831587775  0.35937158074519004  1.0000
  H   H20       1.0  0.5577790815949727  0.20796847556835737  0.6406346753814918  1.0000
  H   H21       1.0  0.46018796706753323  0.4311803868191861  0.16602827544709703  1.0000
  H   H22       1.0  0.5398000383326506  0.5688110278914781  0.8339759243560823  1.0000
  C   C1        1.0  0.181246564752918  0.9127880140427324  0.720737159602287  1.0000
  C   C2        1.0  0.8187625767334908  0.08721236837247663  0.27926421576420773  1.0000
  C   C3        1.0  0.13635559855584495  0.8384827599510702  0.8828010307115477  1.0000
  C   C4        1.0  0.8636443689393546  0.16151989136817244  0.11719760536124815  1.0000
  C   C5        1.0  0.2512645477591846  0.862735622920923  0.9667224094489628  1.0000
  C   C6        1.0  0.7487386833983153  0.13725123253723132  0.03327591932807647  1.0000
  C   C7        1.0  0.0574207095637433  0.7058185377483712  0.17914509868135306  1.0000
  C   C8        1.0  0.9425774038003142  0.29418772887175504  0.8208559194901783  1.0000
  C   C9        1.0  0.9335270898296314  0.6750696360393964  0.10480278045238826  1.0000
  C   C10       1.0  0.06648311214242136  0.32493205311882895  0.8951800194534414  1.0000
  C   C11       1.0  0.9746429069227248  0.7446251776573124  0.9541779173707641  1.0000
  C   C12       1.0  0.025354649244242498  0.2553737356129063  0.04582924571161579  1.0000
  C   C13       1.0  0.760405375821847  0.5725481564088714  0.18431512245084736  1.0000
  C   C14       1.0  0.2396129247315457  0.4274499603373557  0.8156879945833282  1.0000
  N   N1        1.0  0.2114200740334056  0.7992830671584346  0.11201274815264371  1.0000
  N   N2        1.0  0.7885776418424867  0.20072684813016659  0.8879893435422233  1.0000
  O   O1        1.0  0.6414575567602014  0.563889419561022  0.11373963793962363  1.0000
  O   O2        1.0  0.3585382832636128  0.4361229282345108  0.8862541692106377  1.0000
  O   O3        1.0  0.7413176205512713  0.49948389602423765  0.3205528110854063  1.0000
  O   O4        1.0  0.2586924756203929  0.5005201910724042  0.6794413458468896  1.0000
  O   O5        1.0  0.04303612534197752  0.9326505761785528  0.6571907838838629  1.0000
  O   O6        1.0  0.9569641673594306  0.06736066628044313  0.34279541427905275  1.0000
  O   O7        1.0  0.35551190647562697  0.9555967412441435  0.653380100702215  1.0000
  O   O8        1.0  0.6444918208512433  0.04439985579718101  0.3466264330685078  1.0000
  O   O9        1.0  0.9808029477617595  0.31119915899613215  0.4927086622121238  1.0000
  O   O10       1.0  0.019197334472963217  0.6888010490939537  0.5072925835985131  1.0000
  O   O11       1.0  0.334476714732844  0.8617076407144285  0.3197749018076196  1.0000
  O   O12       1.0  0.6655283946158831  0.1382890058697441  0.6802253352576033  1.0000
  O   O13       1.0  0.43249795327393065  0.3185954810679733  0.48923368382121885  1.0000
  O   O14       1.0  0.567500142826738  0.6813985651542469  0.5107727129807174  1.0000
  O   O15       1.0  0.36269927532183743  0.35673873081064045  0.17093483074547317  1.0000
  O   O16       1.0  0.6373004876917745  0.6432529281953807  0.8290658838367619  1.0000
