data_image0
_chemical_formula_structural       Ag4H56C48S4N12O12
_chemical_formula_sum              "Ag4 H56 C48 S4 N12 O12"
_cell_length_a       7.759833239154585
_cell_length_b       12.03480697431485
_cell_length_c       14.750555257583242
_cell_angle_alpha    93.84913298140754
_cell_angle_beta     90.07168305525931
_cell_angle_gamma    108.77156346735356

_space_group_name_H-M_alt    "P 1"
_space_group_IT_number       1

loop_
  _space_group_symop_operation_xyz
  'x, y, z'

loop_
  _atom_site_type_symbol
  _atom_site_label
  _atom_site_symmetry_multiplicity
  _atom_site_fract_x
  _atom_site_fract_y
  _atom_site_fract_z
  _atom_site_occupancy
  Ag  Ag1       1.0  0.6487889672337418  0.7134958201643183  0.3342671620358928  1.0000
  Ag  Ag2       1.0  0.934439390856845  0.2858900469317476  0.16570384378714917  1.0000
  Ag  Ag3       1.0  0.3512087065854246  0.2865039328402688  0.6657332347023726  1.0000
  Ag  Ag4       1.0  0.06556335797660759  0.7140992171873962  0.8343008167438768  1.0000
  H   H1        1.0  0.028523722934579734  0.9068272133630657  0.2915425533320288  1.0000
  H   H2        1.0  0.1212191213505562  0.09240299394123504  0.20923404688138453  1.0000
  H   H3        1.0  0.9714612612647358  0.0931600627904601  0.7084464160298153  1.0000
  H   H4        1.0  0.8787689978970832  0.9075905413520289  0.79076199204183  1.0000
  H   H5        1.0  0.49067469848760237  0.9056384861839673  0.29062362351604776  1.0000
  H   H6        1.0  0.5843922837533455  0.09336218004015961  0.2089711436038755  1.0000
  H   H7        1.0  0.5093182947150438  0.09435961864567591  0.7093841535064911  1.0000
  H   H8        1.0  0.415595157324198  0.9066377056659435  0.7910380697057562  1.0000
  H   H9        1.0  0.3266484187989463  0.6296807166135281  0.46836546512399474  1.0000
  H   H10       1.0  0.6967884491637975  0.37092152873813683  0.0313181079007521  1.0000
  H   H11       1.0  0.6733487271377214  0.37031541637722387  0.5316279846289618  1.0000
  H   H12       1.0  0.3032384972144443  0.6290748806067441  0.9686943479500414  1.0000
  H   H13       1.0  0.7789198858478201  0.5234078296670076  0.4169038201277218  1.0000
  H   H14       1.0  0.255193240735018  0.47541276536705374  0.0830156652589693  1.0000
  H   H15       1.0  0.22107468877997863  0.4765883138572916  0.5830903072531086  1.0000
  H   H16       1.0  0.7448344954947218  0.524580074043925  0.916993236273619  1.0000
  H   H17       1.0  0.19098008978236447  0.9860503984794136  0.9633023120329796  1.0000
  H   H18       1.0  0.2043101473342261  0.0133796857603841  0.5369261929442075  1.0000
  H   H19       1.0  0.8090148751327177  0.0139387764839398  0.036696239968492285  1.0000
  H   H20       1.0  0.7957009426582361  0.9866314527491794  0.4630713433875471  1.0000
  H   H21       1.0  0.35604735509134144  0.9140735321446342  0.9728411515615959  1.0000
  H   H22       1.0  0.4413088880275851  0.0851010241310419  0.5279229918100015  1.0000
  H   H23       1.0  0.6439493329546125  0.08591910158871491  0.027153492619234502  1.0000
  H   H24       1.0  0.558693585644299  0.9149083461529198  0.47207378215800583  1.0000
  H   H25       1.0  0.34668444649736324  0.024486255152908098  0.0571632203851919  1.0000
  H   H26       1.0  0.32190280246855013  0.9746527167290894  0.4434809636966931  1.0000
  H   H27       1.0  0.6533169562999248  0.9755054978523674  0.9428313847205985  1.0000
  H   H28       1.0  0.6781023016997666  0.025359332932922  0.5565186466517744  1.0000
  H   H29       1.0  0.33846821525268933  0.84210676533786  0.1551306652329885  1.0000
  H   H30       1.0  0.49609858952239694  0.15686604291700224  0.3452395852155021  1.0000
  H   H31       1.0  0.6615302116999331  0.15788417879212352  0.844868647485775  1.0000
  H   H32       1.0  0.5038973879407962  0.8431406486946713  0.6547543511372139  1.0000
  H   H33       1.0  0.8183573844482056  0.5575230237332249  0.2539045855704032  1.0000
  H   H34       1.0  0.2604065601843715  0.44174473195235453  0.2459599906192054  1.0000
  H   H35       1.0  0.1816342501919054  0.44247496057523256  0.7460950496273426  1.0000
  H   H36       1.0  0.7395933363460045  0.5582646388021145  0.7540367825255815  1.0000
  H   H37       1.0  0.6450409508028015  0.551526424093808  0.18319498375674925  1.0000
  H   H38       1.0  0.09335934747958431  0.4478770546880569  0.3166015518081551  1.0000
  H   H39       1.0  0.3549528931610623  0.44847597927599736  0.8168062119506132  1.0000
  H   H40       1.0  0.9066388684706084  0.5521341063001373  0.683397337309664  1.0000
  H   H41       1.0  0.5392397750206827  0.7000171555131799  0.1274729736662508  1.0000
  H   H42       1.0  0.8393625938859299  0.2997342062783233  0.3725033967542615  1.0000
  H   H43       1.0  0.46075825495094597  0.299978157833479  0.8725245064834153  1.0000
  H   H44       1.0  0.1606355795135672  0.7002717057061433  0.6274972842111737  1.0000
  H   H45       1.0  0.5740665497114321  0.6004791822135971  0.0416193819115804  1.0000
  H   H46       1.0  0.9744299304061242  0.3995229765665655  0.45808594165052335  1.0000
  H   H47       1.0  0.4259405419451029  0.3995187892087559  0.9583795797744159  1.0000
  H   H48       1.0  0.025570855991858838  0.6004855846068509  0.5419155403420746  1.0000
  H   H49       1.0  0.5950875161346545  0.7455290138522698  0.014801400902342705  1.0000
  H   H50       1.0  0.8506222325493696  0.25467144416479937  0.4852970083330135  1.0000
  H   H51       1.0  0.4049148365788752  0.2544672087647797  0.9851981565569475  1.0000
  H   H52       1.0  0.14938540620976692  0.7453353560229701  0.5147043946862908  1.0000
  H   H53       1.0  0.8928984448882816  0.8525988675814415  0.9867361979811591  1.0000
  H   H54       1.0  0.040661891327225426  0.14711424849652133  0.5132886036369939  1.0000
  H   H55       1.0  0.10710342660394193  0.1473938155260726  0.013261840101606002  1.0000
  H   H56       1.0  0.9593462353469492  0.8528986905450677  0.48671172670728413  1.0000
  C   C1        1.0  0.9282643552574188  0.9476214802131153  0.2725469254382418  1.0000
  C   C2        1.0  0.9801461912178482  0.051577195856431494  0.22792071430593103  1.0000
  C   C3        1.0  0.07172075314966969  0.05237118582664381  0.7274497503913651  1.0000
  C   C4        1.0  0.019838881332269586  0.9484128205238775  0.7720751613197334  1.0000
  C   C5        1.0  0.6316448007426984  0.9475646716331237  0.2717290712222963  1.0000
  C   C6        1.0  0.6835298457141616  0.051467777607236094  0.2280611395184309  1.0000
  C   C7        1.0  0.368344712924454  0.0524316338407829  0.7282759097296463  1.0000
  C   C8        1.0  0.3164553627090286  0.9485276487853792  0.7719437994771922  1.0000
  C   C9        1.0  0.4043801589197998  0.5717576727265765  0.4827049931241447  1.0000
  C   C10       1.0  0.8325636275407645  0.4285624184129446  0.0171318394202586  1.0000
  C   C11       1.0  0.5956165533178249  0.4282375905401565  0.517289094358425  1.0000
  C   C12       1.0  0.16746375253652004  0.5714348606559555  0.9828799787009215  1.0000
  C   C13       1.0  0.6541211453615432  0.512698818354032  0.4542412306902364  1.0000
  C   C14       1.0  0.14123316605272868  0.4866303856815222  0.0457129286544173  1.0000
  C   C15       1.0  0.34587946261267183  0.48729908380334297  0.545752979780012  1.0000
  C   C16       1.0  0.858796351634375  0.5133660131298186  0.9542988495685023  1.0000
  C   C17       1.0  0.26352784922847433  0.9507460123772732  0.011621736041405496  1.0000
  C   C18       1.0  0.3123846758220026  0.048509447945981804  0.488829296621347  1.0000
  C   C19       1.0  0.7364701206945056  0.049244021776551995  0.9883755006025794  1.0000
  C   C20       1.0  0.687621259887436  0.9515016915046106  0.5111682380639522  1.0000
  C   C21       1.0  0.07367402501627417  0.7279381478496206  0.18803484960703537  1.0000
  C   C22       1.0  0.3455574991065404  0.2712514571508819  0.312103464879698  1.0000
  C   C23       1.0  0.9263253885706391  0.2720625048328316  0.8119669451665175  1.0000
  C   C24       1.0  0.6544415300257498  0.7287561741555564  0.6878945837243151  1.0000
  C   C25       1.0  0.1937472665166241  0.8120930705951112  0.1368862580465944  1.0000
  C   C26       1.0  0.3814775980276223  0.18701685690118808  0.3633476615559558  1.0000
  C   C27       1.0  0.8062537917935018  0.18790314219415896  0.8631126205499839  1.0000
  C   C28       1.0  0.6185227138427792  0.8129907641069493  0.636649709008573  1.0000
  C   C29       1.0  0.8856191500449312  0.6859737817470588  0.1656497425263339  1.0000
  C   C30       1.0  0.19956713145312935  0.3133908246924619  0.3343047983481426  1.0000
  C   C31       1.0  0.11438153375372205  0.3140242512297959  0.8343532878081915  1.0000
  C   C32       1.0  0.8004336316142541  0.686617696228808  0.6656939698400633  1.0000
  C   C33       1.0  0.622140940411974  0.6935127418183739  0.06802765563863739  1.0000
  C   C34       1.0  0.9291841908203722  0.3064114349191413  0.4319095814650282  1.0000
  C   C35       1.0  0.3778605690951481  0.30648437088402863  0.9319726205816182  1.0000
  C   C36       1.0  0.070817438784026  0.6935962361689293  0.5680911817665972  1.0000
  C   C37       1.0  0.1326092914762784  0.8589209668282792  0.0642734028797634  1.0000
  C   C38       1.0  0.2736466097891395  0.14039781445247712  0.43593305787790365  1.0000
  C   C39       1.0  0.8673861313295178  0.1410717073924701  0.9357239546938416  1.0000
  C   C40       1.0  0.7263550023173123  0.8596098264464868  0.5640656700004314  1.0000
  C   C41       1.0  0.8217249761916107  0.7333721967850478  0.09204531950568648  1.0000
  C   C42       1.0  0.08855720725890141  0.26624613481580883  0.40792731121467085  1.0000
  C   C43       1.0  0.17827488275964504  0.2666293457474964  0.9079571944404492  1.0000
  C   C44       1.0  0.9114474390187014  0.7337624155887995  0.5920734935616706  1.0000
  C   C45       1.0  0.945410751175423  0.8177672613014122  0.043260918278825486  1.0000
  C   C46       1.0  0.1278748095352711  0.1818350520551633  0.4568010261614005  1.0000
  C   C47       1.0  0.05459286591719351  0.1822263315470067  0.9567391962903284  1.0000
  C   C48       1.0  0.8721311378394605  0.8181761075214953  0.5431978654260945  1.0000
  S   S1        1.0  0.1743514242506593  0.6917751054703416  0.2865919058621742  1.0000
  S   S2        1.0  0.4823274521027514  0.3075280021195255  0.2137047479884444  1.0000
  S   S3        1.0  0.8256428166942057  0.3082229286827953  0.7134111224142856  1.0000
  S   S4        1.0  0.5176741366731079  0.6924795985272922  0.7862912660854916  1.0000
  N   N1        1.0  0.5584903186816349  0.5847109458796211  0.4369313102681645  1.0000
  N   N2        1.0  0.9734770920612872  0.4149213294055514  0.0628810296170172  1.0000
  N   N3        1.0  0.44150771798371846  0.41528696681130833  0.5630635778299508  1.0000
  N   N4        1.0  0.0265489994452395  0.5850759498986021  0.9371307880925457  1.0000
  N   N5        1.0  0.7537766551266358  0.8947867793322928  0.2940176241380925  1.0000
  N   N6        1.0  0.8584109158293884  0.10435328207943681  0.2061081536227789  1.0000
  N   N7        1.0  0.24620972349218562  0.105203267001869  0.7059802872524799  1.0000
  N   N8        1.0  0.14157557533190623  0.895642134014885  0.7938961073333601  1.0000
  N   N9        1.0  0.7601112842936716  0.6055819323061725  0.21695451846767358  1.0000
  N   N10       1.0  0.15422271309940072  0.3937327019212944  0.2828678026125857  1.0000
  N   N11       1.0  0.23988729191947297  0.39441962052466545  0.7830486735179533  1.0000
  N   N12       1.0  0.8457784778343792  0.6062766786609545  0.7171296493949129  1.0000
  O   O1        1.0  0.03640702620037229  0.5936397898652643  0.3274332958753162  1.0000
  O   O2        1.0  0.4424969941033369  0.40585576642956794  0.1729820901489418  1.0000
  O   O3        1.0  0.9635850829673133  0.40635913460847206  0.6725704507504986  1.0000
  O   O4        1.0  0.5575002419062898  0.5941482853504353  0.8270117248625439  1.0000
  O   O5        1.0  0.22872204297147647  0.8002883276552805  0.3470567874076663  1.0000
  O   O6        1.0  0.4282247641701106  0.19918265764644624  0.1530612512197251  1.0000
  O   O7        1.0  0.7712743481095783  0.1997114356476004  0.6529442873700831  1.0000
  O   O8        1.0  0.5717690381041363  0.8008170860008759  0.8469384658326007  1.0000
  O   O9        1.0  0.3316191521482565  0.6585962242845085  0.2532045073684088  1.0000
  O   O10       1.0  0.672718879279479  0.3405120000393751  0.2472947694210745  1.0000
  O   O11       1.0  0.6683776842971483  0.34140442886845784  0.7467972865819164  1.0000
  O   O12       1.0  0.32727922326716213  0.6594912019074286  0.7527010406338304  1.0000
