data_image0
_chemical_formula_structural       Zn6C48Br16N8O24
_chemical_formula_sum              "Zn6 C48 Br16 N8 O24"
_cell_length_a       18.483907231534083
_cell_length_b       18.483766025537285
_cell_length_c       23.318755687012306
_cell_angle_alpha    66.64076350070916
_cell_angle_beta     66.64562852878389
_cell_angle_gamma    90.00871756939226

_space_group_name_H-M_alt    "P 1"
_space_group_IT_number       1

loop_
  _space_group_symop_operation_xyz
  'x, y, z'

loop_
  _atom_site_type_symbol
  _atom_site_label
  _atom_site_symmetry_multiplicity
  _atom_site_fract_x
  _atom_site_fract_y
  _atom_site_fract_z
  _atom_site_occupancy
  Zn  Zn1       1.0  0.9294726548077891  0.49997192001109875  1.2104239416952302e-05  1.0000
  Zn  Zn2       1.0  0.9661033407771314  0.9660777495520633  0.06770457452977753  1.0000
  Zn  Zn3       1.0  0.03392697745184141  0.033903757992938  0.9322811246241759  1.0000
  Zn  Zn4       1.0  0.5000224705592801  0.9294997269255627  0.9999809559526444  1.0000
  Zn  Zn5       1.0  0.070496289875841  0.49997623206633074  1.860974054317416e-05  1.0000
  Zn  Zn6       1.0  0.5000259420346963  0.0705090738012967  0.9999909100515584  1.0000
  C   C1        1.0  0.9999844472854633  0.3610229510966291  7.961476572410657e-05  1.0000
  C   C2        1.0  0.7829908544734323  0.28307504147042534  0.43394794565882944  1.0000
  C   C3        1.0  0.7169247416141715  0.21702653787773563  0.5660355773553364  1.0000
  C   C4        1.0  0.21692617967541852  0.7168707937159056  0.5660654268051531  1.0000
  C   C5        1.0  0.2831288774895171  0.7830847573868452  0.43395968142663593  1.0000
  C   C6        1.0  0.0667780346177906  0.566522379045892  0.8666581564684538  1.0000
  C   C7        1.0  0.5666228446274673  0.06679419233218892  0.8666214889571793  1.0000
  C   C8        1.0  0.9332154826980101  0.4333670672168352  0.13337418824542624  1.0000
  C   C9        1.0  0.6389714047747929  9.555502768167331e-07  0.9999202781672526  1.0000
  C   C10       1.0  0.43348597216107987  0.9331988789735705  0.13334822975028973  1.0000
  C   C11       1.0  0.9999646281262996  0.2831320058397394  0.0001037966144040783  1.0000
  C   C12       1.0  0.7168629375227766  1.907470302586368e-05  0.9998933307622908  1.0000
  C   C13       1.0  2.3066174947000326e-05  0.7168323548853334  0.9999034101206451  1.0000
  C   C14       1.0  0.28317154997922234  0.99997167807053  9.591060861419177e-05  1.0000
  C   C15       1.0  0.9999781253955148  0.6389421168352379  0.9999228425638765  1.0000
  C   C16       1.0  0.9999037183707669  0.2173852865116359  7.285732124984397e-05  1.0000
  C   C17       1.0  0.7826164633295889  9.273392300422713e-05  0.9999118086085661  1.0000
  C   C18       1.0  7.38276619926998e-05  0.7825844887070443  0.9999301806436879  1.0000
  C   C19       1.0  0.21742770977217427  0.9999324530184239  5.997243003712821e-05  1.0000
  C   C20       1.0  0.3610627573323271  1.7008137867001663e-05  7.844260766628447e-05  1.0000
  C   C21       1.0  0.1495838317920644  0.5632617414172711  0.7522179958817008  1.0000
  C   C22       1.0  0.6841763690442733  0.14989940680928268  0.7521515104459483  1.0000
  C   C23       1.0  0.0980790203068054  0.6840977750178038  0.752250087478693  1.0000
  C   C24       1.0  0.5634217769543923  0.09808961912109021  0.7521957879604387  1.0000
  C   C25       1.0  0.9017832616100562  0.43663449152334954  0.24778321911203707  1.0000
  C   C26       1.0  0.4366473874091454  0.8501600356022221  0.24781193254241884  1.0000
  C   C27       1.0  0.8502666423980827  0.3157463019544977  0.2478416161647845  1.0000
  C   C28       1.0  0.3160225115790496  0.9021336088220833  0.2477638603286394  1.0000
  C   C29       1.0  0.1870633077533483  0.600096197928593  0.6796028622039714  1.0000
  C   C30       1.0  0.7200088709686412  0.18734959478665997  0.6795440069608036  1.0000
  C   C31       1.0  0.1331308735123216  0.719887656761834  0.679643390512503  1.0000
  C   C32       1.0  0.600231897482594  0.13321186937819354  0.6795842110788685  1.0000
  C   C33       1.0  0.866691741431154  0.39981212294109264  0.3203941664580372  1.0000
  C   C34       1.0  0.39983451914134344  0.8127564246333775  0.3204302371301537  1.0000
  C   C35       1.0  0.812782575129077  0.2799241493693571  0.32044720682895206  1.0000
  C   C36       1.0  0.280222084223908  0.8670690746634405  0.32036678260674734  1.0000
  C   C37       1.0  0.178366905572851  0.6782888715618964  0.6430343672351172  1.0000
  C   C38       1.0  0.6784134476372755  0.17854281503940658  0.6429898535601882  1.0000
  C   C39       1.0  0.8214716184470917  0.32157737329387687  0.35699535535311366  1.0000
  C   C40       1.0  0.32172645173483255  0.8216427534025499  0.3569906066644963  1.0000
  C   C41       1.0  0.1395839080117653  0.999991900372251  1.3813500735978753e-05  1.0000
  C   C42       1.0  0.9999758857088139  0.1395467696409086  2.8652593236637036e-05  1.0000
  C   C43       1.0  0.8604578874250919  2.885630847518548e-05  0.9999551701478925  1.0000
  C   C44       1.0  1.6036067897599524e-05  0.8604247186953766  0.9999723895918539  1.0000
  C   C45       1.0  0.10578336849440718  0.605570672926504  0.78847597068431  1.0000
  C   C46       1.0  0.6056779625051051  0.10587844242215978  0.7884218199214176  1.0000
  C   C47       1.0  0.8941292965582619  0.39431239755180053  0.21156579995803781  1.0000
  C   C48       1.0  0.3944434893214818  0.8941905007755576  0.21153851080466518  1.0000
  Br  Br1       1.0  0.1557444755288842  0.45611687349712304  0.8026276865236641  1.0000
  Br  Br2       1.0  0.7406502852476748  0.15649049603409507  0.8026056758278347  1.0000
  Br  Br3       1.0  0.041209719963070796  0.7406327887613243  0.8027138325713992  1.0000
  Br  Br4       1.0  0.4564047323545068  0.041137977402264804  0.8026622779688994  1.0000
  Br  Br5       1.0  0.9585487564122275  0.5437303646486882  0.19731897152425412  1.0000
  Br  Br6       1.0  0.543609870021136  0.8435717943588299  0.19740387318286426  1.0000
  Br  Br7       1.0  0.8440429266886865  0.2590959287515914  0.19741242566174583  1.0000
  Br  Br8       1.0  0.2595772565815225  0.959212070171631  0.19728180123505004  1.0000
  Br  Br9       1.0  0.2522772831173512  0.5467513427114951  0.6296933902817445  1.0000
  Br  Br10      1.0  0.8232454003137306  0.25269121657559873  0.6296538721920087  1.0000
  Br  Br11      1.0  0.11778339344414229  0.8231577147844571  0.6297732516825578  1.0000
  Br  Br12      1.0  0.5468870574680977  0.11785035791891098  0.6296863712025671  1.0000
  Br  Br13      1.0  0.8819858476813067  0.45321468976079143  0.3702773917181119  1.0000
  Br  Br14      1.0  0.45308780748793254  0.747398271487654  0.37037302327485844  1.0000
  Br  Br15      1.0  0.747590201937669  0.17660339199353098  0.3703524293438107  1.0000
  Br  Br16      1.0  0.1770465115400413  0.882583534407139  0.37022712877831765  1.0000
  N   N1        1.0  0.1868668001887954  0.6869730638912654  0.5342325888328717  1.0000
  N   N2        1.0  0.686832574518398  0.27878856724667844  0.5342838496661529  1.0000
  N   N3        1.0  0.2787849274302303  0.7786231277078598  0.5343975373157548  1.0000
  N   N4        1.0  0.7787694761701475  0.1870057727315738  0.5343038239365968  1.0000
  N   N5        1.0  0.7211580742374367  0.3131055912284706  0.4656824524795411  1.0000
  N   N6        1.0  0.2212318372120876  0.7213708107899846  0.46562677026149407  1.0000
  N   N7        1.0  0.8130776484282407  0.2213051671244841  0.46569730991409847  1.0000
  N   N8        1.0  0.31317569520147964  0.8129943738664946  0.4657917494328245  1.0000
  O   O1        1.0  0.9342479987542021  0.3869867001566901  0.009043231077534188  1.0000
  O   O2        1.0  0.6039671810489224  0.9342446409864209  0.008955643148532045  1.0000
  O   O3        1.0  0.056710479870041304  0.6039595423995366  0.008919755372453177  1.0000
  O   O4        1.0  0.387001960294846  0.05672107668610237  0.009125338944258527  1.0000
  O   O5        1.0  0.9432349724754586  0.6129795716376801  0.9909253769781688  1.0000
  O   O6        1.0  0.6130338832848921  0.0657517578527018  0.9909020087395108  1.0000
  O   O7        1.0  0.06571264440977838  0.3959926216719294  0.9911041755662712  1.0000
  O   O8        1.0  0.3960747478711681  0.9433151359461929  0.9910264739389235  1.0000
  O   O9        1.0  0.9914853473389513  0.5408961050043286  0.8959513198952964  1.0000
  O   O10       1.0  0.5630993996710173  0.9915242057536701  0.8958721001383909  1.0000
  O   O11       1.0  0.11282976557724571  0.5629266850746572  0.8958720775376678  1.0000
  O   O12       1.0  0.5409258863150653  0.11277328910681882  0.8958899110048794  1.0000
  O   O13       1.0  0.8872083804468076  0.458996397788006  0.10410916223595734  1.0000
  O   O14       1.0  0.4591844901398758  0.008475356778681886  0.10405617897051661  1.0000
  O   O15       1.0  0.0084874889086208  0.4369671550775465  0.10413088845745483  1.0000
  O   O16       1.0  0.4369910383509676  0.8871672103763614  0.10413043684928174  1.0000
  O   O17       1.0  0.1387873542798133  0.0299194161753886  0.9406693396718641  1.0000
  O   O18       1.0  0.0294913169942106  0.1387497162773312  0.9406852389073779  1.0000
  O   O19       1.0  0.9206862633215849  0.029492108489137  0.9406562925420446  1.0000
  O   O20       1.0  0.0298932165808452  0.9206582518678413  0.9406730027898789  1.0000
  O   O21       1.0  0.0793530982583661  0.9701153151220578  0.05930990035428603  1.0000
  O   O22       1.0  0.9700930604766569  0.8612212131231587  0.059312554888307986  1.0000
  O   O23       1.0  0.8612557007945013  0.9705162539108939  0.05929869754395874  1.0000
  O   O24       1.0  0.9705140478142978  0.07931647464465633  0.05932834634177918  1.0000
