data_image0
_chemical_formula_structural       Ag4H40C36N12O10
_chemical_formula_sum              "Ag4 H40 C36 N12 O10"
_cell_length_a       8.912363045936365
_cell_length_b       11.248735068253895
_cell_length_c       12.189503750764274
_cell_angle_alpha    112.34478206956246
_cell_angle_beta     97.9372676575862
_cell_angle_gamma    109.59388522076132

_space_group_name_H-M_alt    "P 1"
_space_group_IT_number       1

loop_
  _space_group_symop_operation_xyz
  'x, y, z'

loop_
  _atom_site_type_symbol
  _atom_site_label
  _atom_site_symmetry_multiplicity
  _atom_site_fract_x
  _atom_site_fract_y
  _atom_site_fract_z
  _atom_site_occupancy
  Ag  Ag1       1.0  0.9674531885716179  0.651134790723397  0.2758430398188808  1.0000
  Ag  Ag2       1.0  0.03254857225300611  0.34886494529611406  0.7241582622899757  1.0000
  Ag  Ag3       1.0  0.3366312983573038  0.2084786688469862  0.8095716893587481  1.0000
  Ag  Ag4       1.0  0.6633727865923476  0.7915189385810564  0.1904299371105296  1.0000
  H   H1        1.0  0.3190654152021609  0.6945053294226113  0.3766292365939423  1.0000
  H   H2        1.0  0.680936349366192  0.30549440355546414  0.6233712444601238  1.0000
  H   H3        1.0  0.5856023097161797  0.8625519370029195  0.5526698711406726  1.0000
  H   H4        1.0  0.41439872580004794  0.13745311041596864  0.4473323776583272  1.0000
  H   H5        1.0  0.6353673306720964  0.20402855945086162  0.7736866374914231  1.0000
  H   H6        1.0  0.3646310476372037  0.7959711772052954  0.22631185078039112  1.0000
  H   H7        1.0  0.7285118422242577  0.081856772011065  0.7394522443396313  1.0000
  H   H8        1.0  0.2714870652801978  0.9181440286224998  0.260547488670497  1.0000
  H   H9        1.0  0.6093913669887456  0.0934609086946736  0.8467823569912483  1.0000
  H   H10       1.0  0.3906103322085245  0.906540949408992  0.15321885453897022  1.0000
  H   H11       1.0  0.33334115222559296  0.10032378343959887  0.015090255384528503  1.0000
  H   H12       1.0  0.6666657244168733  0.8996748814585515  0.9849128496048468  1.0000
  H   H13       1.0  0.5306857444788946  0.1512487534677263  0.21268445891583102  1.0000
  H   H14       1.0  0.4693188155260088  0.8487520339390214  0.7873166796035421  1.0000
  H   H15       1.0  0.9395024580859188  0.486761654581663  0.374560836351428  1.0000
  H   H16       1.0  0.060498642801391625  0.5132412677116277  0.6254406819714192  1.0000
  H   H17       1.0  0.8749484883215787  0.3033296640703823  0.3336090818731563  1.0000
  H   H18       1.0  0.12505314550460167  0.6966743191588805  0.6663928601332149  1.0000
  H   H19       1.0  0.7711157728748927  0.39669535005346984  0.4196180765442534  1.0000
  H   H20       1.0  0.2288853205249524  0.6033075783226919  0.5803850838881817  1.0000
  H   H21       1.0  0.9906730503806784  0.0780596269486935  0.21782403166196937  1.0000
  H   H22       1.0  0.009323590882374262  0.9219411832336062  0.782176288621166  1.0000
  H   H23       1.0  0.9990689845959864  0.2350194565956442  0.117838883778262  1.0000
  H   H24       1.0  0.0009269892422877977  0.7649845459433064  0.8821632948284448  1.0000
  H   H25       1.0  0.6952550364637773  0.6050015399662314  0.7121277877629881  1.0000
  H   H26       1.0  0.3047445963490674  0.3949939492679491  0.28787099855699705  1.0000
  H   H27       1.0  0.7650181034975886  0.7150588696071977  0.5730222291129652  1.0000
  H   H28       1.0  0.23498254105311392  0.2849408575002244  0.42697567188584185  1.0000
  H   H29       1.0  0.9263159100512725  0.841187629407173  0.4922651450979246  1.0000
  H   H30       1.0  0.0736841903293666  0.15881104588857647  0.5077347953817296  1.0000
  H   H31       1.0  0.0328827243289996  0.9941426846529499  0.6383068574973908  1.0000
  H   H32       1.0  0.9671173760516398  0.005855990642807299  0.3616930829822636  1.0000
  H   H33       1.0  0.6001317047860509  0.45501257051475347  0.9263432976643389  1.0000
  H   H34       1.0  0.3998661947242681  0.5449839892041409  0.07365649961217711  1.0000
  H   H35       1.0  0.7940286877174858  0.5612973940143249  0.04372257008415666  1.0000
  H   H36       1.0  0.20597194934575921  0.4387023391759612  0.956276973024231  1.0000
  H   H37       1.0  0.24136661386204863  0.5184112866337572  0.20826975607761272  1.0000
  H   H38       1.0  0.7586295635769317  0.48158633444554494  0.7917285889910631  1.0000
  H   H39       1.0  0.06769833704224482  0.4243828188435613  0.10457775538652929  1.0000
  H   H40       1.0  0.9323001720092213  0.5756126675614014  0.8954192719329799  1.0000
  C   C1        1.0  0.17880120377740372  0.9011972599526384  0.5598484613452898  1.0000
  C   C2        1.0  0.8211977616106694  0.09880142163819979  0.4401521832982668  1.0000
  C   C3        1.0  0.3228699469204059  0.7818009882654519  0.458314730239522  1.0000
  C   C4        1.0  0.677131223081716  0.21819980586081297  0.5416852365523895  1.0000
  C   C5        1.0  0.46996063065139304  0.8745935541100567  0.5553012990644393  1.0000
  C   C6        1.0  0.5300399447845052  0.1254083011643914  0.44469815346531055  1.0000
  C   C7        1.0  0.4642718674188517  0.9869858642724482  0.6540140860681806  1.0000
  C   C8        1.0  0.5357265034029908  0.0130138784665803  0.34598604431321434  1.0000
  C   C9        1.0  0.6183305410858324  0.09706445592081539  0.7589076672985443  1.0000
  C   C10       1.0  0.3816694976674527  0.9029363414590962  0.24109218260247206  1.0000
  C   C11       1.0  0.6332000159666508  0.39920683352462305  0.0657113664086424  1.0000
  C   C12       1.0  0.36679894567768684  0.6007918511076441  0.9342900992897117  1.0000
  C   C13       1.0  0.4520331831573828  0.19471968986017169  0.06198352780351264  1.0000
  C   C14       1.0  0.5479702997385729  0.8052789847989316  0.9380192265131911  1.0000
  C   C15       1.0  0.5605518960460287  0.22232087215004268  0.17063318497951493  1.0000
  C   C16       1.0  0.43945198904663857  0.7776831136962273  0.8293714539730106  1.0000
  C   C17       1.0  0.7087364822060066  0.34771231517831314  0.22703271366465572  1.0000
  C   C18       1.0  0.29126527861861723  0.6522874208411977  0.7729685884442077  1.0000
  C   C19       1.0  0.831027338459876  0.3865668759610016  0.34562747971697416  1.0000
  C   C20       1.0  0.16897542287141926  0.6134371070560432  0.6543754002350752  1.0000
  C   C21       1.0  0.9949785616445012  0.044036912175762694  0.1222972605453805  1.0000
  C   C22       1.0  0.005019149240034297  0.9559660168370452  0.877703086050005  1.0000
  C   C23       1.0  0.996055721377786  0.9113052820874257  0.05702875130470624  1.0000
  C   C24       1.0  0.003940325319028698  0.08869658924306378  0.9429710547162673  1.0000
  C   C25       1.0  0.9984576668291254  0.13163005053073112  0.06603203218904953  1.0000
  C   C26       1.0  0.0015355190600630703  0.8683728914966764  0.9339678468427695  1.0000
  C   C27       1.0  0.9867667437218656  0.8147203090527809  0.11650542423531365  1.0000
  C   C28       1.0  0.013233827970303506  0.18528154926310236  0.8834948493492264  1.0000
  C   C29       1.0  0.6096083533626172  0.5592899771548333  0.6192392299207372  1.0000
  C   C30       1.0  0.39039068488399664  0.440706573227544  0.3807590421370861  1.0000
  C   C31       1.0  0.46061953139935957  0.4373407036186022  0.5787925310235522  1.0000
  C   C32       1.0  0.5393805727250154  0.5626579686357117  0.4212065884013187  1.0000
  C   C33       1.0  0.6486604356166056  0.6208893414067587  0.5412303625735363  1.0000
  C   C34       1.0  0.3513368039564001  0.3791104045859158  0.4587696509169705  1.0000
  C   C35       1.0  0.4214896175467118  0.36844942938976283  0.661917646091297  1.0000
  C   C36       1.0  0.578510490321392  0.6315492398231226  0.33808065227877654  1.0000
  N   N1        1.0  0.03375462565576023  0.9094301037949248  0.5660189920585595  1.0000
  N   N2        1.0  0.9662443434760418  0.09056857475447798  0.4339808315302066  1.0000
  N   N3        1.0  0.1783320194396795  0.7940423632899822  0.4573650033431492  1.0000
  N   N4        1.0  0.8216674863747359  0.20595737315395718  0.5426344228743433  1.0000
  N   N5        1.0  0.31965035001059044  0.9993305516994083  0.6565461449087026  1.0000
  N   N6        1.0  0.6803474841286459  0.0006681331450764003  0.34345438284395874  1.0000
  N   N7        1.0  0.6731651310937892  0.48565191788556916  0.013491746093400557  1.0000
  N   N8        1.0  0.3268355675968096  0.5143456932205551  0.9865078875936323  1.0000
  N   N9        1.0  0.7425986949658636  0.43630061088715877  0.1756903134629867  1.0000
  N   N10       1.0  0.2574041354802433  0.5637012439628607  0.8243110149581201  1.0000
  N   N11       1.0  0.4857079394519914  0.2804482739113041  0.007593207317000938  1.0000
  N   N12       1.0  0.5142950179925522  0.7195493337289633  0.9924074812065985  1.0000
  O   O1        1.0  0.9734676710604123  0.8560297936020975  0.2271371213932343  1.0000
  O   O2        1.0  0.02653130181511901  0.1439688819058702  0.7728618811407415  1.0000
  O   O3        1.0  0.11966337510771302  0.48662705229649117  0.19521306620313808  1.0000
  O   O4        1.0  0.880335072316406  0.5133705561926406  0.804783870537733  1.0000
  O   O5        1.0  0.9914789830637362  0.6966360513746821  0.056289197511276444  1.0000
  O   O6        1.0  0.008522727364720614  0.30336579760468396  0.943709550854564  1.0000
  O   O7        1.0  0.2781611323699095  0.2680714167124306  0.6296266758125882  1.0000
  O   O8        1.0  0.7218406321984431  0.7319283162656375  0.37037380524148494  1.0000
  O   O9        1.0  0.5372870530985239  0.4123818186210642  0.7613765310408311  1.0000
  O   O10       1.0  0.4627130510258439  0.587616853633257  0.23862258838403258  1.0000
