data_image0
_chemical_formula_structural       Cu4H16C16S4N8
_chemical_formula_sum              "Cu4 H16 C16 S4 N8"
_cell_length_a       7.456683682506417
_cell_length_b       7.616436537439224
_cell_length_c       11.059154435083814
_cell_angle_alpha    101.83499488352545
_cell_angle_beta     90.00293367053625
_cell_angle_gamma    119.30695110953188

_space_group_name_H-M_alt    "P 1"
_space_group_IT_number       1

loop_
  _space_group_symop_operation_xyz
  'x, y, z'

loop_
  _atom_site_type_symbol
  _atom_site_label
  _atom_site_symmetry_multiplicity
  _atom_site_fract_x
  _atom_site_fract_y
  _atom_site_fract_z
  _atom_site_occupancy
  Cu  Cu1       1.0  0.05760411626051359  0.3585610791113965  0.5220375839743668  1.0000
  Cu  Cu2       1.0  0.30088995039903216  0.35871912645144033  0.022048593669147496  1.0000
  Cu  Cu3       1.0  0.9424001340751145  0.6414436729698847  0.4779631866861607  1.0000
  Cu  Cu4       1.0  0.6991125592428702  0.6412794621983338  0.9779494597466325  1.0000
  H   H1        1.0  0.6577333372936777  0.10865728174280063  0.357789385637382  1.0000
  H   H2        1.0  0.45118080853428205  0.10927402079283152  0.857755008054703  1.0000
  H   H3        1.0  0.3422682390709396  0.8913474867666197  0.6422104831107378  1.0000
  H   H4        1.0  0.5488136220674844  0.8907245025009728  0.14224665267327194  1.0000
  H   H5        1.0  0.2938940732138491  0.21571638423795744  0.47277537533739894  1.0000
  H   H6        1.0  0.9215688315780709  0.21530825678079424  0.9728106961787262  1.0000
  H   H7        1.0  0.7061079517445703  0.7842946459916363  0.5272217994461672  1.0000
  H   H8        1.0  0.07842517491293681  0.7846840539244442  0.027190952921209495  1.0000
  H   H9        1.0  0.4016623520521988  0.23650502265974185  0.3297950470518885  1.0000
  H   H10       1.0  0.8347232839000895  0.2363050996212408  0.8298552117682265  1.0000
  H   H11       1.0  0.5983350339445863  0.7634967297064038  0.6701998555568096  1.0000
  H   H12       1.0  0.16526882314034455  0.7636887765522434  0.1701457638044204  1.0000
  H   H13       1.0  0.2962799718161691  0.9981520246005361  0.37667396439481854  1.0000
  H   H14       1.0  0.70165497345981  0.997864878540739  0.8766049474032941  1.0000
  H   H15       1.0  0.7037221710940145  0.0018511948433114992  0.623325675992291  1.0000
  H   H16       1.0  0.2983375084733524  0.0021243832158787997  0.12339353933381153  1.0000
  C   C1        1.0  0.24329077159738682  0.527989233820108  0.28439893358502394  1.0000
  C   C2        1.0  0.2844968821552952  0.5279026528882512  0.7843510166703426  1.0000
  C   C3        1.0  0.7567173021224177  0.472012436456268  0.7156004785374748  1.0000
  C   C4        1.0  0.7155131236591359  0.47209751742866507  0.21564546152264802  1.0000
  C   C5        1.0  0.07012734667902981  0.06323418520685921  0.3111639533592197  1.0000
  C   C6        1.0  0.9930502589213787  0.0631699371289756  0.8112036554741098  1.0000
  C   C7        1.0  0.9298761454581878  0.9367690505887084  0.6888347851877941  1.0000
  C   C8        1.0  0.006946870134442028  0.9368286188682833  0.18879620157367336  1.0000
  C   C9        1.0  0.7594403566642427  0.0606510861015011  0.30969242609660347  1.0000
  C   C10       1.0  0.3013479364097478  0.06102014921619771  0.8096995034919418  1.0000
  C   C11       1.0  0.24055832959347612  0.9393505843531786  0.6903069858571982  1.0000
  C   C12       1.0  0.6986501506583378  0.9389830047952685  0.19030374427967434  1.0000
  C   C13       1.0  0.27645878827986087  0.1320276793415687  0.3762632217988938  1.0000
  C   C14       1.0  0.8553877540581992  0.1317665474640464  0.8762938813228092  1.0000
  C   C15       1.0  0.7235435707662107  0.8679786545851585  0.62373597347014  1.0000
  C   C16       1.0  0.14460222923477045  0.8682257633176035  0.12370776770482189  1.0000
  S   S1        1.0  0.26391307832656713  0.643036234898503  0.42996411644507765  1.0000
  S   S2        1.0  0.3791238118421346  0.6430218236604899  0.9298858752848886  1.0000
  S   S3        1.0  0.7360930714596208  0.3569669517145256  0.5700373277427317  1.0000
  S   S4        1.0  0.6208788239125341  0.3569689705807307  0.07011374187023021  1.0000
  N   N1        1.0  0.23369648463515355  0.44274474695345145  0.18032297463594202  1.0000
  N   N2        1.0  0.20885093041872696  0.44260013068981163  0.6802886410783486  1.0000
  N   N3        1.0  0.7663122490989309  0.5572475143399985  0.819681380321697  1.0000
  N   N4        1.0  0.7911559528308842  0.5573937943350843  0.3197096291668019  1.0000
  N   N5        1.0  0.9458224109606519  0.12538227737813662  0.37151391668503214  1.0000
  N   N6        1.0  0.1795938158829529  0.12550619031846114  0.8715670715271601  1.0000
  N   N7        1.0  0.05418128915143687  0.8746240565231249  0.6284852786081032  1.0000
  N   N8        1.0  0.8203985072933759  0.8744908003379095  0.1284334589274039  1.0000
