data_image0
_chemical_formula_structural       V4H8C8N4O4F8
_chemical_formula_sum              "V4 H8 C8 N4 O4 F8"
_cell_length_a       4.957911035095189
_cell_length_b       7.243924821467218
_cell_length_c       10.90283641500008
_cell_angle_alpha    90.00001381646379
_cell_angle_beta     90.00000645543989
_cell_angle_gamma    95.77685218869321

_space_group_name_H-M_alt    "P 1"
_space_group_IT_number       1

loop_
  _space_group_symop_operation_xyz
  'x, y, z'

loop_
  _atom_site_type_symbol
  _atom_site_label
  _atom_site_symmetry_multiplicity
  _atom_site_fract_x
  _atom_site_fract_y
  _atom_site_fract_z
  _atom_site_occupancy
  V   V1        1.0  0.2200459766012202  0.9058668753074388  0.9302818591460565  1.0000
  V   V2        1.0  0.7799530559444108  0.5941326371047709  0.4302862738482744  1.0000
  V   V3        1.0  0.7799581660110277  0.09413206737183093  0.0697149218751321  1.0000
  V   V4        1.0  0.2200387797772549  0.40586492831720744  0.5697233478676368  1.0000
  H   H1        1.0  0.5651922019695164  0.645629977202667  0.7995938385852527  1.0000
  H   H2        1.0  0.4348070103329461  0.8543708766812232  0.2996001077728323  1.0000
  H   H3        1.0  0.4348121471802456  0.35437035298857483  0.20039927366597962  1.0000
  H   H4        1.0  0.5651896849911466  0.14563223537271602  0.7004049279811255  1.0000
  H   H5        1.0  0.20594028520071106  0.6358097002478971  0.14713425127578722  1.0000
  H   H6        1.0  0.7940611191225457  0.8641924857284594  0.6471408763954403  1.0000
  H   H7        1.0  0.7940638574111603  0.36418924243072587  0.8528588609753244  1.0000
  H   H8        1.0  0.20593355947597297  0.1358106280344842  0.3528650765509696  1.0000
  C   C1        1.0  0.5351840841323748  0.5805256891184739  0.888930217725509  1.0000
  C   C2        1.0  0.46481473340129037  0.9194724212128236  0.3889337486025397  1.0000
  C   C3        1.0  0.4648200584796811  0.41947325356047566  0.1110647289106481  1.0000
  C   C4        1.0  0.5351795321211696  0.0805279175244067  0.6110694527660528  1.0000
  C   C5        1.0  0.3392886057918005  0.5761066161836726  0.0818631624377062  1.0000
  C   C6        1.0  0.6607125786176978  0.9238941592848139  0.5818679539482332  1.0000
  C   C7        1.0  0.6607155368201632  0.4238923264951141  0.918130867005928  1.0000
  C   C8        1.0  0.339285926893794  0.07610756354701922  0.41813341303559787  1.0000
  N   N1        1.0  0.37484420887380304  0.6569607936138054  0.9706089640192275  1.0000
  N   N2        1.0  0.6251570551997075  0.8430401188098672  0.47061616193817457  1.0000
  N   N3        1.0  0.6251619504638268  0.34303814735613963  0.0293850654244707  1.0000
  N   N4        1.0  0.37483964012456983  0.15696299324439175  0.5293907082008219  1.0000
  O   O1        1.0  0.1114350376659274  0.8456874452625343  0.796724861439671  1.0000
  O   O2        1.0  0.8885625703987186  0.6543161843446867  0.2967311285172727  1.0000
  O   O3        1.0  0.8885634678448184  0.15431427756801236  0.20326916800399894  1.0000
  O   O4        1.0  0.11143009147441063  0.3456869311275809  0.7032775760066202  1.0000
  F   F1        1.0  0.9133294785610319  0.8451299550801253  0.0417800582997572  1.0000
  F   F2        1.0  0.08667309474642342  0.6548666420204229  0.541784763120873  1.0000
  F   F3        1.0  0.08667668077669079  0.1548689858899834  0.9582148883364638  1.0000
  F   F4        1.0  0.913327014415337  0.34513230407798556  0.4582202726328504  1.0000
  F   F5        1.0  0.4239555048070756  0.9787723561933391  0.10871676247574412  1.0000
  F   F6        1.0  0.5760396349282927  0.5212284338619924  0.6087205618830183  1.0000
  F   F7        1.0  0.5760504479928557  0.021225197264314502  0.8912791013528719  1.0000
  F   F8        1.0  0.4239566473198266  0.47877190316639684  0.39128263948565234  1.0000
