data_image0
_chemical_formula_structural       Zn2H34C32N2O8
_chemical_formula_sum              "Zn2 H34 C32 N2 O8"
_cell_length_a       9.984110850580237
_cell_length_b       11.214063044741282
_cell_length_c       16.13805216707499
_cell_angle_alpha    90.54587893006493
_cell_angle_beta     79.47191208719195
_cell_angle_gamma    84.31365319704247

_space_group_name_H-M_alt    "P 1"
_space_group_IT_number       1

loop_
  _space_group_symop_operation_xyz
  'x, y, z'

loop_
  _atom_site_type_symbol
  _atom_site_label
  _atom_site_symmetry_multiplicity
  _atom_site_fract_x
  _atom_site_fract_y
  _atom_site_fract_z
  _atom_site_occupancy
  Zn  Zn1       1.0  0.6405216910032934  0.5108322992714421  0.47918801326526506  1.0000
  Zn  Zn2       1.0  0.36100126917351355  0.4884887163256337  0.5174239333863966  1.0000
  H   H1        1.0  0.5558854063452898  0.6992138187957266  0.942094250017078  1.0000
  H   H2        1.0  0.11394901366924157  0.40341144219236486  0.5823152974031346  1.0000
  H   H3        1.0  0.317512300364001  0.8117609809878559  0.9709495498162255  1.0000
  H   H4        1.0  0.18492013764629436  0.7175513568925638  0.9721973222674549  1.0000
  H   H5        1.0  0.16204098482938176  0.8411040262710403  0.044788185164158306  1.0000
  H   H6        1.0  0.21508436703423678  0.6504079181982263  0.1188101801880066  1.0000
  H   H7        1.0  0.346550290407535  0.7446800371112162  0.1163711976334412  1.0000
  H   H8        1.0  0.771309171305468  0.25783438826038463  0.03768290723141382  1.0000
  H   H9        1.0  0.6531404566635928  0.17120137546681488  0.0017516972523524325  1.0000
  H   H10       1.0  0.8271847723417238  0.15620741868892205  0.9505329272511744  1.0000
  H   H11       1.0  0.6717465244721836  0.2798450253139748  0.867382905640099  1.0000
  H   H12       1.0  0.44878756195815567  0.3097056903412608  0.05450955591002332  1.0000
  H   H13       1.0  0.8029950327807995  0.3593744478279391  0.8922538319191773  1.0000
  H   H14       1.0  0.9865599592623653  0.3673562547391853  0.9721839374067328  1.0000
  H   H15       1.0  0.0972390014210589  0.24050200718750142  0.9903498644464647  1.0000
  H   H16       1.0  0.9718845734832937  0.30770145277751476  0.07462405129295045  1.0000
  H   H17       1.0  0.2061765943774532  0.3641139090277363  0.0836899013149051  1.0000
  H   H18       1.0  0.09470488940549869  0.4913652699805766  0.0708969134266155  1.0000
  H   H19       1.0  0.2000887715599191  0.5084894666314098  0.923616796025776  1.0000
  H   H20       1.0  0.27781659009702503  0.36015666139560665  0.9176050470271448  1.0000
  H   H21       1.0  0.9102283219380707  0.6428400459029435  0.15449872625431743  1.0000
  H   H22       1.0  0.9572395364935742  0.7128106647903251  0.05669703004253534  1.0000
  H   H23       1.0  0.3842979514203221  0.1065725347252737  0.4983488652628836  1.0000
  H   H24       1.0  0.8628522752819234  0.7984756573782478  0.14522706490930662  1.0000
  H   H25       1.0  0.7059868445139372  0.7528706527710017  0.04713850612475307  1.0000
  H   H26       1.0  0.6618457200972188  0.6799292052964032  0.14325633104798646  1.0000
  H   H27       1.0  0.7959054017394392  0.4895235207412297  0.07779536707226953  1.0000
  H   H28       1.0  0.8361896784204247  0.5621470077447766  0.9809212675804346  1.0000
  H   H29       1.0  0.6164680896607492  0.8926691592881891  0.4760615325080125  1.0000
  H   H30       1.0  0.6990490600318964  0.09868039802950081  0.470333621277554  1.0000
  H   H31       1.0  0.3015531361821219  0.9000697716585008  0.5111033318068579  1.0000
  H   H32       1.0  0.8868330432730716  0.42941252622551224  0.5540194153330447  1.0000
  H   H33       1.0  0.11375359875943047  0.5715799056676971  0.44475041383608277  1.0000
  H   H34       1.0  0.8879376604664841  0.5959010158015019  0.4154157375369394  1.0000
  C   C1        1.0  0.4361440957182054  0.7312967371780701  0.5020967981295072  1.0000
  C   C2        1.0  0.4732438198753641  0.3963015479372913  0.02834035874196419  1.0000
  C   C3        1.0  0.4017639043051274  0.5913569113122605  0.03453197240456524  1.0000
  C   C4        1.0  0.6031204360595339  0.4171491009955943  0.9619552139017387  1.0000
  C   C5        1.0  0.4874020943621887  0.5031594250104164  0.2479131758062891  1.0000
  C   C6        1.0  0.5143496309614547  0.4989563286891753  0.7487388061224607  1.0000
  C   C7        1.0  0.6259821916027944  0.5294488049104658  0.01590218842122233  1.0000
  C   C8        1.0  0.37917559424528235  0.478665520898204  0.9806343663792488  1.0000
  C   C9        1.0  0.4953605946617898  0.5061261546760604  0.0840083355000871  1.0000
  C   C10       1.0  0.509203163915288  0.5024032780156631  0.9124839584202604  1.0000
  C   C11       1.0  0.48877218436404496  0.5048858260207824  0.1721899912505265  1.0000
  C   C12       1.0  0.5648586607002885  0.2679387112582461  0.4870432051612994  1.0000
  C   C13       1.0  0.5145561216630271  0.5011823032056029  0.8243251954036381  1.0000
  C   C14       1.0  0.4089062060471349  0.8633252778799874  0.4998721639569155  1.0000
  C   C15       1.0  0.591789147513971  0.1356138017649542  0.480665239414826  1.0000
  C   C16       1.0  0.29719787053714697  0.689677829019665  0.0759247079946093  1.0000
  C   C17       1.0  0.23690018648589736  0.7694236196364557  0.012536631761086907  1.0000
  C   C18       1.0  0.7092070438426888  0.3195063314912261  0.9205603484412634  1.0000
  C   C19       1.0  0.7422307044534051  0.22094732406183942  0.9809900854093029  1.0000
  C   C20       1.0  0.2492425214404292  0.44012072919764467  0.9601313255962225  1.0000
  C   C21       1.0  0.148453202938434  0.408582708109094  0.03857682352760611  1.0000
  C   C22       1.0  0.045177945117231395  0.32670849625052506  0.0179553963595112  1.0000
  C   C23       1.0  0.5111742944226592  0.9352481198534548  0.48661038653494165  1.0000
  C   C24       1.0  0.7575692328056293  0.5606107592904479  0.038667729415053025  1.0000
  C   C25       1.0  0.7420452778441984  0.6814250315253076  0.0866501181428561  1.0000
  C   C26       1.0  0.8752619683739127  0.710739694961923  0.11219860540826689  1.0000
  C   C27       1.0  0.4895068887849163  0.0638255749730092  0.48835852933509477  1.0000
  C   C28       1.0  0.07312170667544389  0.5104708891818747  0.4937301033082094  1.0000
  C   C29       1.0  0.9277413743572254  0.4899751800922588  0.5047430848016676  1.0000
  C   C30       1.0  0.49017153768532035  0.5012455742632298  0.33686762304352413  1.0000
  C   C31       1.0  0.5113290040375488  0.49882223119166014  0.6597006867822375  1.0000
  C   C32       1.0  0.5320229240303149  0.612267957820528  0.967993106769505  1.0000
  N   N1        1.0  0.15623917397973489  0.46029146964638556  0.5376672631920911  1.0000
  N   N2        1.0  0.8451518337616689  0.5393903210141034  0.4601654414696839  1.0000
  O   O1        1.0  0.5609838552684323  0.6862360304868674  0.48851881521581925  1.0000
  O   O2        1.0  0.4400985122574923  0.3132018345614256  0.5014249255509995  1.0000
  O   O3        1.0  0.3314604657660922  0.6725791871443221  0.5182068447338537  1.0000
  O   O4        1.0  0.6697085068577023  0.3267271250954451  0.4778631732385605  1.0000
  O   O5        1.0  0.6075675224769341  0.5037595407665805  0.3572642986668698  1.0000
  O   O6        1.0  0.394956320160027  0.49108850098949125  0.63907181998308  1.0000
  O   O7        1.0  0.37590880932945936  0.4972022608381934  0.3868318874701445  1.0000
  O   O8        1.0  0.6247201234807135  0.506670439310497  0.6096361275325394  1.0000
