data_image0
_chemical_formula_structural       Zn8H64C88N32
_chemical_formula_sum              "Zn8 H64 C88 N32"
_cell_length_a       15.417235145211967
_cell_length_b       18.225089765157392
_cell_length_c       19.689268240456247
_cell_angle_alpha    85.49918198560654
_cell_angle_beta     89.14170343719374
_cell_angle_gamma    87.90187660125886

_space_group_name_H-M_alt    "P 1"
_space_group_IT_number       1

loop_
  _space_group_symop_operation_xyz
  'x, y, z'

loop_
  _atom_site_type_symbol
  _atom_site_label
  _atom_site_symmetry_multiplicity
  _atom_site_fract_x
  _atom_site_fract_y
  _atom_site_fract_z
  _atom_site_occupancy
  Zn  Zn1       1.0  0.030192908354123905  0.9708636174244346  0.4088671870965682  1.0000
  Zn  Zn2       1.0  0.9922357374798025  0.06037586628486477  0.5487426452292752  1.0000
  Zn  Zn3       1.0  0.4777453917787398  0.47096754647663625  0.9071721256808087  1.0000
  Zn  Zn4       1.0  0.525029197179002  0.5082743896138027  0.10700850769585202  1.0000
  Zn  Zn5       1.0  0.1824149654716649  0.044936829045951796  0.48902083974336813  1.0000
  Zn  Zn6       1.0  0.8324478395686441  0.9401594703526398  0.5345665363485564  1.0000
  Zn  Zn7       1.0  0.6781247329152863  0.48987199836108886  0.026671955386632393  1.0000
  Zn  Zn8       1.0  0.3669684485354878  0.5591181366475553  0.9952536566310997  1.0000
  H   H1        1.0  0.11723602823102652  0.8144276460031746  0.4117545889857651  1.0000
  H   H2        1.0  0.7305179569667644  0.0424171037703189  0.4171530880938333  1.0000
  H   H3        1.0  0.8262195459139788  0.7747456163365812  0.49574059302563706  1.0000
  H   H4        1.0  0.2666564059365299  0.20277858826474213  0.5469789645192904  1.0000
  H   H5        1.0  0.7566484798996601  0.3222521267497597  0.08109415661740367  1.0000
  H   H6        1.0  0.21142443513836182  0.6606219323240481  0.9025374876347809  1.0000
  H   H7        1.0  0.3143055133831538  0.36609286878014297  0.8666235631923129  1.0000
  H   H8        1.0  0.8458287292856853  0.5589791559010066  0.12371353210792792  1.0000
  H   H9        1.0  0.9815674310467556  0.8783946866665316  0.6206872110196642  1.0000
  H   H10       1.0  0.9775714353521466  0.14731459443817127  0.3937570973760102  1.0000
  H   H11       1.0  0.9808284903123691  0.847510260537504  0.31935105316773627  1.0000
  H   H12       1.0  0.9125253563318695  0.16286693025575968  0.6627667803895106  1.0000
  H   H13       1.0  0.9943275263957361  0.22085574968568267  0.6001757513528999  1.0000
  H   H14       1.0  0.5698008534143638  0.37209688539462593  0.23929708714903336  1.0000
  H   H15       1.0  0.38060281417534003  0.5642983561554331  0.75277374560617  1.0000
  H   H16       1.0  0.44195684213438824  0.43181905687091415  0.6753330947145528  1.0000
  H   H17       1.0  0.6091240808902469  0.6075989759827322  0.23534222217642764  1.0000
  H   H18       1.0  0.613214016941349  0.9165897620332757  0.5894019409860148  1.0000
  H   H19       1.0  0.20323919151692857  0.18208021440224087  0.3951462753039721  1.0000
  H   H20       1.0  0.3578011540385758  0.9239278677023248  0.43898683245814135  1.0000
  H   H21       1.0  0.721382804078921  0.9939994262863221  0.6746411570958201  1.0000
  H   H22       1.0  0.2736285535534436  0.40264525775638293  0.9651566771181378  1.0000
  H   H23       1.0  0.7899320813304413  0.7724104039187975  0.7114398988995916  1.0000
  H   H24       1.0  0.6523642000575764  0.6501460952900686  0.038145446626252494  1.0000
  H   H25       1.0  0.8183475051797799  0.42801932301038187  0.9237252417030175  1.0000
  H   H26       1.0  0.24388281479114227  0.6568109418977387  0.09095473847223447  1.0000
  H   H27       1.0  0.9763731899606468  0.727128332477321  0.2822182281211099  1.0000
  H   H28       1.0  0.1159091233978202  0.24093460571453557  0.7240867952947312  1.0000
  H   H29       1.0  0.0445896679197659  0.7888406153644852  0.7318545530856467  1.0000
  H   H30       1.0  0.9187199041395858  0.1874514062012764  0.2725048551788163  1.0000
  H   H31       1.0  0.308641132603789  0.43416587904719245  0.6238886997154863  1.0000
  H   H32       1.0  0.6922273067307357  0.6158251448222957  0.33200880785624776  1.0000
  H   H33       1.0  0.6017601987275184  0.24549648716772052  0.2842845915487898  1.0000
  H   H34       1.0  0.08673404972367392  0.06046385854796198  0.2414542266275461  1.0000
  H   H35       1.0  0.3372696849813153  0.682727768130462  0.6794906862766651  1.0000
  H   H36       1.0  0.21678556594707743  0.3676784286461015  0.5487886428319371  1.0000
  H   H37       1.0  0.7515375040945429  0.6961326274190894  0.4124323050268046  1.0000
  H   H38       1.0  0.6704842564914912  0.16148956282334834  0.37365481548849283  1.0000
  H   H39       1.0  0.2713476278651186  0.7811423378085464  0.6019784285231679  1.0000
  H   H40       1.0  0.9143486513992728  0.6508583804467065  0.19955793735617536  1.0000
  H   H41       1.0  0.2098241558191916  0.30506673533871265  0.7988622966935209  1.0000
  H   H42       1.0  0.10798999336355311  0.6870095636757296  0.8071385605352646  1.0000
  H   H43       1.0  0.8505338321538432  0.2753500924300454  0.18538630614872884  1.0000
  H   H44       1.0  0.1757390621109636  0.177719722586545  0.14739452014813278  1.0000
  H   H45       1.0  0.58112703584888  0.3524199876903822  0.8432114203556721  1.0000
  H   H46       1.0  0.7027648460466764  0.8172349824855017  0.8069894817776273  1.0000
  H   H47       1.0  0.8497916811107729  0.21245856704150157  0.755411366804765  1.0000
  H   H48       1.0  0.20252417297830766  0.7612308540002388  0.32441096671604447  1.0000
  H   H49       1.0  0.5180653458768562  0.7569137792645789  0.8293006242631263  1.0000
  H   H50       1.0  0.31306759951883123  0.2871342482911671  0.1877612023168922  1.0000
  H   H51       1.0  0.37755655361835494  0.6736721619670974  0.31077956697706804  1.0000
  H   H52       1.0  0.6669293613660444  0.23786821053138146  0.8194808529538163  1.0000
  H   H53       1.0  0.2522042081823912  0.2282396738847793  0.27839911771553005  1.0000
  H   H54       1.0  0.5421660271178297  0.8232384901214685  0.7150607531348355  1.0000
  H   H55       1.0  0.6836912446013484  0.12315218585205659  0.7548276215319304  1.0000
  H   H56       1.0  0.44031035882997577  0.5809482821630779  0.23756473359841124  1.0000
  H   H57       1.0  0.3729059043581629  0.7669787861795709  0.40325191392098947  1.0000
  H   H58       1.0  0.680193595119846  0.752826657670461  0.9198082545034083  1.0000
  H   H59       1.0  0.23404415585280697  0.2691398835059573  0.04777288226638629  1.0000
  H   H60       1.0  0.2129016140333277  0.7006705292611813  0.2239173122740965  1.0000
  H   H61       1.0  0.8389961906041562  0.31826157320595877  0.8245050403947828  1.0000
  H   H62       1.0  0.4446700601110011  0.3463963631075869  0.13517693925557236  1.0000
  H   H63       1.0  0.47543139600383444  0.6403881711955605  0.8715210568482163  1.0000
  H   H64       1.0  0.2574732119895842  0.913677389770008  0.5984535272396982  1.0000
  C   C1        1.0  0.16828164194664907  0.8522213725490815  0.41983743832377485  1.0000
  C   C2        1.0  0.210806493115669  0.1940603955511548  0.24999662458897376  1.0000
  C   C3        1.0  0.30519114941709086  0.7792301598286215  0.3894254447369009  1.0000
  C   C4        1.0  0.7500474093493138  0.13847708322234106  0.7411728193401358  1.0000
  C   C5        1.0  0.27702416295263527  0.28984724867228095  0.085055853318309  1.0000
  C   C6        1.0  0.6157256371282004  0.738207032600208  0.904127874182265  1.0000
  C   C7        1.0  0.7697840455119407  0.30906071847522293  0.8334956675722793  1.0000
  C   C8        1.0  0.2774017517697446  0.6773517215236778  0.23721466016750267  1.0000
  C   C9        1.0  0.6350178486804977  0.8096205846856249  0.7940535368007106  1.0000
  C   C10       1.0  0.2151709971915281  0.2075003635686414  0.1810964496555769  1.0000
  C   C11       1.0  0.2687434860011067  0.7439842081675819  0.3394117423668561  1.0000
  C   C12       1.0  0.8730303981658024  0.11579306213064197  0.6571527081294589  1.0000
  C   C13       1.0  0.7825379057021778  0.19848756479596125  0.7678912385589739  1.0000
  C   C14       1.0  0.2717135331245473  0.2629036976070509  0.1512589324967806  1.0000
  C   C15       1.0  0.5834602902230159  0.7700093938992864  0.8444434698872241  1.0000
  C   C16       1.0  0.7355046741329687  0.24855257850126825  0.8090812094998086  1.0000
  C   C17       1.0  0.3118632260539371  0.6936909361022571  0.29701228567384413  1.0000
  C   C18       1.0  0.18704131207523741  0.9166783497215151  0.5975664618977419  1.0000
  C   C19       1.0  0.7970783707958233  0.059434552172398  0.42010779521334735  1.0000
  C   C20       1.0  0.8675807494125607  0.8022251731244835  0.45728690571626623  1.0000
  C   C21       1.0  0.19717375879332613  0.19636880786828928  0.5533204996251229  1.0000
  C   C22       1.0  0.7048288699337633  0.34367949795264957  0.11278502492329073  1.0000
  C   C23       1.0  0.7593956937498164  0.8109640003570532  0.673349628710234  1.0000
  C   C24       1.0  0.2593537836473985  0.6297286440635047  0.8742795202479029  1.0000
  C   C25       1.0  0.3572729622865722  0.38543559976969993  0.8254020949691706  1.0000
  C   C26       1.0  0.7799189279774624  0.5662923959967827  0.14293411822899318  1.0000
  C   C27       1.0  0.04620904361014061  0.8986874403838596  0.609803041651311  1.0000
  C   C28       1.0  0.9230928284093168  0.11276729622295528  0.4067630951123106  1.0000
  C   C29       1.0  0.9470921057809106  0.8391612487185043  0.36804406134572076  1.0000
  C   C30       1.0  0.058634002064081904  0.20495705650724713  0.582222975953833  1.0000
  C   C31       1.0  0.6081575327688711  0.3683779601187566  0.19289542508819574  1.0000
  C   C32       1.0  0.34685401549218403  0.5817936337156268  0.7978664112522792  1.0000
  C   C33       1.0  0.4226273477727744  0.42076536572682227  0.7283689800692698  1.0000
  C   C34       1.0  0.10977868277880282  0.08238381203451439  0.28734307083826843  1.0000
  C   C35       1.0  0.6590523229849623  0.5897975501521556  0.2001146530070841  1.0000
  C   C36       1.0  0.6670509647016516  0.8826710177782928  0.6109165856195843  1.0000
  C   C37       1.0  0.16891328582670442  0.14412451471003607  0.3661904576481447  1.0000
  C   C38       1.0  0.29105978737309374  0.9078728733337728  0.4347135621581728  1.0000
  C   C39       1.0  0.7752729088975912  0.02987697970530689  0.6630578643200167  1.0000
  C   C40       1.0  0.3242386144587782  0.39780007686854185  0.003158962350219998  1.0000
  C   C41       1.0  0.6040718046651959  0.6362677556742254  0.0022689220251735044  1.0000
  C   C42       1.0  0.7520642448864265  0.41719894205134966  0.9103862675820479  1.0000
  C   C43       1.0  0.298942440930567  0.6314370620569604  0.1187391949411918  1.0000
  C   C44       1.0  0.2589323523948864  0.8403104312920248  0.4179955455446702  1.0000
  C   C45       1.0  0.6307327074448069  0.3772217048011797  0.8713511788866839  1.0000
  C   C46       1.0  0.7962530245128505  0.09567395175712785  0.6919970878817664  1.0000
  C   C47       1.0  0.673288058865225  0.8416001659347215  0.6741946917407233  1.0000
  C   C48       1.0  0.16299342606939857  0.14301021065755748  0.29496539335035266  1.0000
  C   C49       1.0  0.7214387137903702  0.3638029312023717  0.8698727016199469  1.0000
  C   C50       1.0  0.32152504216688266  0.6358957321915922  0.18705004123557958  1.0000
  C   C51       1.0  0.33413684620563805  0.3481823391411893  0.060513008403127316  1.0000
  C   C52       1.0  0.5773360368561598  0.6757365956868426  0.9415671004060611  1.0000
  C   C53       1.0  0.12808260906936653  0.8647304535993924  0.6246036444488466  1.0000
  C   C54       1.0  0.8386937094580704  0.1176552718230965  0.3824874574254693  1.0000
  C   C55       1.0  0.8943870393210461  0.781431845610818  0.3923308722379558  1.0000
  C   C56       1.0  0.39953823452246695  0.593410090625774  0.19340699224085253  1.0000
  C   C57       1.0  0.136892322710203  0.2399384997029229  0.5881368813117476  1.0000
  C   C58       1.0  0.6806163259385585  0.32189776427476596  0.180160669045172  1.0000
  C   C59       1.0  0.2743318385095677  0.6310118093549306  0.8037654728091824  1.0000
  C   C60       1.0  0.3433412325690314  0.3930957909237306  0.7551727404595853  1.0000
  C   C61       1.0  0.749883880068772  0.5953744371288606  0.20362832373185566  1.0000
  C   C62       1.0  0.9127284379613273  0.7042045883365374  0.2929602216380829  1.0000
  C   C63       1.0  0.15707584750965248  0.2844561540660777  0.7022059210366792  1.0000
  C   C64       1.0  0.10862488293894762  0.7654020357785426  0.7197952338155104  1.0000
  C   C65       1.0  0.8492396243038627  0.2008589279016917  0.2756466537236051  1.0000
  C   C66       1.0  0.2669623719153904  0.3912299478277816  0.6458900779442658  1.0000
  C   C67       1.0  0.4110125215163407  0.37099412043161806  0.09051759420182039  1.0000
  C   C68       1.0  0.7539641884592285  0.6414521464814412  0.31970922241149674  1.0000
  C   C69       1.0  0.6715485087335935  0.23355452082371636  0.28209766132047775  1.0000
  C   C70       1.0  0.2726473896551695  0.7052244452861841  0.6911825558829818  1.0000
  C   C71       1.0  0.2149525171425637  0.35448161013501067  0.6038006399049465  1.0000
  C   C72       1.0  0.7881148375943637  0.6863764664706196  0.3659233440379452  1.0000
  C   C73       1.0  0.7100782063552843  0.18557616600467947  0.3318663650837124  1.0000
  C   C74       1.0  0.23592747706553044  0.7615337237609692  0.647889120566873  1.0000
  C   C75       1.0  0.8779446650696556  0.6601663196030926  0.2462611520148315  1.0000
  C   C76       1.0  0.21031832487284421  0.32043112814378816  0.7441746974368258  1.0000
  C   C77       1.0  0.14506382099696677  0.708469691492219  0.7627625267430744  1.0000
  C   C78       1.0  0.5132251946028391  0.632109636700953  0.9176159105225993  1.0000
  C   C79       1.0  0.8106499827970596  0.24950588569102913  0.22613135707202053  1.0000
  C   C80       1.0  0.1636472451831921  0.297071147715215  0.6309835816692696  1.0000
  C   C81       1.0  0.8665267328397305  0.7221696962564791  0.35210896953679344  1.0000
  C   C82       1.0  0.7997032519700654  0.16866378759237927  0.3298272624681927  1.0000
  C   C83       1.0  0.155176387346124  0.7956881781786292  0.6630753271167151  1.0000
  C   C84       1.0  0.7953676175808936  0.6304762114808398  0.25675402238113787  1.0000
  C   C85       1.0  0.27150080399603393  0.3701264220213146  0.7161336774830076  1.0000
  C   C86       1.0  0.22973959801840488  0.6797523555233481  0.7516090714354177  1.0000
  C   C87       1.0  0.7211815817945321  0.26726362956765826  0.22873168681001493  1.0000
  C   C88       1.0  0.6105552137203532  0.8268043985754615  0.7283117714357061  1.0000
  N   N1        1.0  0.14860605065899796  0.9217411388101131  0.4340096873246892  1.0000
  N   N2        1.0  0.8524489462160502  0.0224659211434854  0.4623431925885128  1.0000
  N   N3        1.0  0.900907072571087  0.8671543581591836  0.4701048768382917  1.0000
  N   N4        1.0  0.15767464346560442  0.13939891640211496  0.5296613805212047  1.0000
  N   N5        1.0  0.6501543013251735  0.3983875552845361  0.08768701895150599  1.0000
  N   N6        1.0  0.31848761872200976  0.5834646594945313  0.9067221368344816  1.0000
  N   N7        1.0  0.43801132289275563  0.4072672320681007  0.8380452994156756  1.0000
  N   N8        1.0  0.7116657103838264  0.5455172622160944  0.1071571630967085  1.0000
  N   N9        1.0  0.05724527777263691  0.965464286253173  0.5759524271263885  1.0000
  N   N10       1.0  0.9326955531819933  0.0539904190746228  0.4544829334302989  1.0000
  N   N11       1.0  0.9498564675101734  0.890086091064127  0.41410804485524716  1.0000
  N   N12       1.0  0.8943344369462238  0.06715034989716878  0.6115229376700242  1.0000
  N   N13       1.0  0.07148587304926222  0.14437084778140266  0.5471388047834367  1.0000
  N   N14       1.0  0.5912434700705802  0.4136665398499416  0.1374291761611559  1.0000
  N   N15       1.0  0.3726090333463078  0.5536862346140194  0.8597270865137076  1.0000
  N   N16       1.0  0.4788418392409284  0.4298182389950965  0.7777341599416657  1.0000
  N   N17       1.0  0.6369888169987944  0.5603965152614805  0.14291751693914986  1.0000
  N   N18       1.0  0.7435622410293873  0.8763165024269456  0.5766217019149308  1.0000
  N   N19       1.0  0.1252451585978278  0.08875657128898239  0.39802426980660505  1.0000
  N   N20       1.0  0.22462729405238238  0.9566027451537095  0.4423405309083819  1.0000
  N   N21       1.0  0.8349043982260439  0.013186702029365394  0.6148547260951246  1.0000
  N   N22       1.0  0.3897432899522286  0.44673348626810855  0.9996851756763048  1.0000
  N   N23       1.0  0.8010036196387348  0.831076762507493  0.6154417514567924  1.0000
  N   N24       1.0  0.5615239537113155  0.5719026742880828  0.012455685568099294  1.0000
  N   N25       1.0  0.6846930411946488  0.458459407191647  0.9342579365556035  1.0000
  N   N26       1.0  0.35916019678040106  0.5897155301917608  0.08741910275461608  1.0000
  N   N27       1.0  0.08872410938736412  0.05050862607740919  0.34939932430734894  1.0000
  N   N28       1.0  0.6087500102859167  0.4327717755077389  0.9098179613179624  1.0000
  N   N29       1.0  0.4209230572837157  0.5661253921213643  0.13399041070929477  1.0000
  N   N30       1.0  0.44327980912934345  0.42938834747717175  0.05489185873506839  1.0000
  N   N31       1.0  0.50341689109991  0.5703447393834293  0.959521198598857  1.0000
  N   N32       1.0  0.14430974414484873  0.9764456164413884  0.569303308435174  1.0000
