data_image0
_chemical_formula_structural       Ag2H16C30N10Cl4O8
_chemical_formula_sum              "Ag2 H16 C30 N10 Cl4 O8"
_cell_length_a       7.7639070677727995
_cell_length_b       8.984100054152375
_cell_length_c       12.474873869397795
_cell_angle_alpha    101.82581791167682
_cell_angle_beta     100.7390592331553
_cell_angle_gamma    91.3682482419163

_space_group_name_H-M_alt    "P 1"
_space_group_IT_number       1

loop_
  _space_group_symop_operation_xyz
  'x, y, z'

loop_
  _atom_site_type_symbol
  _atom_site_label
  _atom_site_symmetry_multiplicity
  _atom_site_fract_x
  _atom_site_fract_y
  _atom_site_fract_z
  _atom_site_occupancy
  Ag  Ag1       1.0  0.5665302147314222  0.815490973376967  0.9881484728145509  1.0000
  Ag  Ag2       1.0  0.4334684087707786  0.18450453557083082  0.011848584891296816  1.0000
  H   H1        1.0  0.5034631696139229  0.8687266057569332  0.4079404127323656  1.0000
  H   H2        1.0  0.4965319003551797  0.13127349137783278  0.5920593099406304  1.0000
  H   H3        1.0  0.18856213747588407  0.3636897541028006  0.3578848218655253  1.0000
  H   H4        1.0  0.811439285187603  0.6363080037722568  0.6421153072440831  1.0000
  H   H5        1.0  0.2717886907237669  0.44082169207697314  0.19547874572110396  1.0000
  H   H6        1.0  0.7282128305662068  0.5591772053234862  0.804521564463549  1.0000
  H   H7        1.0  0.976200163500884  0.22294271526300238  0.9691260969510367  1.0000
  H   H8        1.0  0.023802957634479992  0.777059586658538  0.030875710782439083  1.0000
  H   H9        1.0  0.8590572946044545  0.9303443590113646  0.6394380992767807  1.0000
  H   H10       1.0  0.1409444118914109  0.0696568134132391  0.3605641742706283  1.0000
  H   H11       1.0  0.0099977440930772  0.12201849696124611  0.5665021967815207  1.0000
  H   H12       1.0  0.9900026584368576  0.8779826895184615  0.43349912244222827  1.0000
  H   H13       1.0  0.2941578671160627  0.608427168273927  0.6446544526394291  1.0000
  H   H14       1.0  0.7058366231412165  0.39156609573510787  0.3553425823706036  1.0000
  H   H15       1.0  0.21642365158663066  0.4887378526056523  0.7455383219749195  1.0000
  H   H16       1.0  0.7835750886126717  0.5112588019075021  0.2544565149870123  1.0000
  C   C1        1.0  0.44490247810222167  0.70779585650876  0.19891831145176303  1.0000
  C   C2        1.0  0.5550966144382485  0.29220534201272835  0.8010828540546341  1.0000
  C   C3        1.0  0.394572602230518  0.6599722054308046  0.29028607108431004  1.0000
  C   C4        1.0  0.6054265023570266  0.3400289971173294  0.709713493209442  1.0000
  C   C5        1.0  0.4348480012373557  0.7578793507015789  0.3964289130749421  1.0000
  C   C6        1.0  0.5651485819977324  0.24212301545551898  0.6035705248591796  1.0000
  C   C7        1.0  0.38668847714060206  0.713068698081706  0.4869670296498255  1.0000
  C   C8        1.0  0.6133067961050145  0.28693368011717263  0.5130322545669515  1.0000
  C   C9        1.0  0.299535840152913  0.5682707922303436  0.4763445467657021  1.0000
  C   C10       1.0  0.700463276481713  0.4317304143444289  0.5236534163154047  1.0000
  C   C11       1.0  0.2589597213455832  0.4729362449149122  0.3686100523684672  1.0000
  C   C12       1.0  0.7410406932314328  0.5270649455914408  0.6313896656426294  1.0000
  C   C13       1.0  0.3048659198611787  0.5173891791041996  0.2772350352817696  1.0000
  C   C14       1.0  0.6951357060788227  0.4826108598349705  0.7227646553716198  1.0000
  C   C15       1.0  0.18225656468651147  0.3910374025265071  0.578071405848064  1.0000
  C   C16       1.0  0.8177398212956032  0.6089626845797936  0.421927669935954  1.0000
  C   C17       1.0  0.0807952971261869  0.28073903640291314  0.7242424696933368  1.0000
  C   C18       1.0  0.9192062301873278  0.7192598630108619  0.2757570398849936  1.0000
  C   C19       1.0  0.07033150911583158  0.3055377757937164  0.8390669510214366  1.0000
  C   C20       1.0  0.929669108737691  0.6944656957767493  0.16093232853344117  1.0000
  C   C21       1.0  0.9826640955028122  0.20111928093655956  0.8809221001212322  1.0000
  C   C22       1.0  0.017338927006065298  0.7988818814595788  0.11907952653719182  1.0000
  C   C23       1.0  0.9036702458872623  0.06566174473820749  0.8085932775275707  1.0000
  C   C24       1.0  0.0963314606086101  0.934339427686396  0.1914089960198382  1.0000
  C   C25       1.0  0.8141864000170214  0.9602320809231057  0.8521359276265628  1.0000
  C   C26       1.0  0.1858222750262968  0.03977359744745  0.14786463638247233  1.0000
  C   C27       1.0  0.9153553297223951  0.036848589747123094  0.6951905008751638  1.0000
  C   C28       1.0  0.0846449681575194  0.9631514551938666  0.3048114378798488  1.0000
  C   C29       1.0  0.0019737329890788012  0.1428736643499775  0.6542047371119111  1.0000
  C   C30       1.0  0.9980253595513843  0.8571275341715108  0.3457964283944861  1.0000
  N   N1        1.0  0.4887945479774132  0.7498165717150869  0.12504008688880933  1.0000
  N   N2        1.0  0.511205872623144  0.2501846208045819  0.8749588305159648  1.0000
  N   N3        1.0  0.26015365671522517  0.5286078672651158  0.5706392559346867  1.0000
  N   N4        1.0  0.7398463693793925  0.47138876715297334  0.4293589371698801  1.0000
  N   N5        1.0  0.16623438545902758  0.3913691593124965  0.6872464038840677  1.0000
  N   N6        1.0  0.8337657452856176  0.6086286166443102  0.31275116968922123  1.0000
  N   N7        1.0  0.7374291257608119  0.8775839457971202  0.8902188581470795  1.0000
  N   N8        1.0  0.26256833079302305  0.12241383612336416  0.1097856134484303  1.0000
  N   N9        1.0  0.21792604482117633  0.7665542404660854  0.8239607200967499  1.0000
  N   N10       1.0  0.7820756737217633  0.23344693598515687  0.17603995223801405  1.0000
  Cl  Cl1       1.0  0.4360691384121012  0.8382089977389879  0.6154403754036225  1.0000
  Cl  Cl2       1.0  0.5639272355229392  0.16179108534067407  0.3845603015930407  1.0000
  Cl  Cl3       1.0  0.17251890759867894  0.4681923587867871  0.9310204720710543  1.0000
  Cl  Cl4       1.0  0.8274843242102461  0.5318110866867868  0.06897991552482804  1.0000
  O   O1        1.0  0.13513207284872655  0.2823410525696843  0.4986059400568408  1.0000
  O   O2        1.0  0.8648669210652496  0.7176590064264161  0.5013950443745118  1.0000
  O   O3        1.0  0.24333247524830168  0.872153636619558  0.9108400957234082  1.0000
  O   O4        1.0  0.7566678226316055  0.1278464083214317  0.08916184303160427  1.0000
  O   O5        1.0  0.3460225525541958  0.6814369960392028  0.8046252864166518  1.0000
  O   O6        1.0  0.6539778559992798  0.3185641924538274  0.19537523220076738  1.0000
  O   O7        1.0  0.07360597571393869  0.74108029199283  0.7576900056232105  1.0000
  O   O8        1.0  0.9263969481684524  0.2589197308779205  0.2423114399601616  1.0000
