data_image0
_chemical_formula_structural       La4H20C28S2N4O28
_chemical_formula_sum              "La4 H20 C28 S2 N4 O28"
_cell_length_a       8.946122245494058
_cell_length_b       13.219113006201992
_cell_length_c       13.219129110978216
_cell_angle_alpha    65.5484947877457
_cell_angle_beta     73.06235128264976
_cell_angle_gamma    73.06197396956253

_space_group_name_H-M_alt    "P 1"
_space_group_IT_number       1

loop_
  _space_group_symop_operation_xyz
  'x, y, z'

loop_
  _atom_site_type_symbol
  _atom_site_label
  _atom_site_symmetry_multiplicity
  _atom_site_fract_x
  _atom_site_fract_y
  _atom_site_fract_z
  _atom_site_occupancy
  La  La1       1.0  0.10483383963588722  0.9207318033246995  0.809208833097692  1.0000
  La  La2       1.0  0.39516002466708505  0.19079658853191714  0.07926520297344544  1.0000
  La  La3       1.0  0.895160876892611  0.0792715236964554  0.19079523829716985  1.0000
  La  La4       1.0  0.6048399787918942  0.8092005471184933  0.9207314623657716  1.0000
  H   H1        1.0  0.09194742398728552  0.16522064895979582  0.7303935838201168  1.0000
  H   H2        1.0  0.4080584510790076  0.26960478860191023  0.8347732271207275  1.0000
  H   H3        1.0  0.9080606778946105  0.834776512582664  0.26960532251219826  1.0000
  H   H4        1.0  0.5919491577117384  0.7303898221891603  0.16522611760080233  1.0000
  H   H5        1.0  0.9969530413295616  0.15169562572789635  0.6534815467238813  1.0000
  H   H6        1.0  0.503045598587079  0.3465210271091692  0.8482952488721904  1.0000
  H   H7        1.0  0.0030501969941454004  0.8483045371780378  0.3465164722553095  1.0000
  H   H8        1.0  0.49695400058470807  0.6534820672760304  0.151700432332106  1.0000
  H   H9        1.0  0.824685914159396  0.49475797593659376  0.18536559572418546  1.0000
  H   H10       1.0  0.6753172666566698  0.8146338391806367  0.5052478833693497  1.0000
  H   H11       1.0  0.17531970549521958  0.5052399759065338  0.8146304116938337  1.0000
  H   H12       1.0  0.32467908080251834  0.18536712868579747  0.4947644660405783  1.0000
  H   H13       1.0  0.397647926928812  0.4758752773195028  0.027135693151166148  1.0000
  H   H14       1.0  0.10235048684222645  0.9728614107739804  0.5241281492645623  1.0000
  H   H15       1.0  0.6023650600827183  0.524120380600266  0.9728720196900152  1.0000
  H   H16       1.0  0.8976447132984051  0.027135880533720104  0.47587389758493953  1.0000
  H   H17       1.0  0.9375474653889599  0.6713510127562402  0.1189446353287947  1.0000
  H   H18       1.0  0.562449296908774  0.881065250429792  0.32865488323410097  1.0000
  H   H19       1.0  0.062454543104443934  0.32864642995883037  0.8810643826566884  1.0000
  H   H20       1.0  0.43755598561480713  0.11893302857264841  0.6713539110751154  1.0000
  C   C1        1.0  0.25064877466685703  0.6888570612254694  0.025784941353457113  1.0000
  C   C2        1.0  0.24934760957741287  0.9742135987320142  0.3111548334128001  1.0000
  C   C3        1.0  0.7493487362126104  0.3111494704351188  0.974211163397676  1.0000
  C   C4        1.0  0.7506552700438222  0.025785393592435903  0.6888480533018394  1.0000
  C   C5        1.0  0.17717205068956335  0.5858575519430147  0.07149552326767855  1.0000
  C   C6        1.0  0.32282348824317364  0.9285063297406919  0.41414480956583316  1.0000
  C   C7        1.0  0.8228284919423173  0.41413715762134024  0.9285066285287792  1.0000
  C   C8        1.0  0.6771744876603666  0.0714935499577507  0.5858586211597225  1.0000
  C   C9        1.0  0.05281011425986294  0.39680174750641584  0.13661212522913493  1.0000
  C   C10       1.0  0.44718104217035654  0.8633867074815529  0.603205663459725  1.0000
  C   C11       1.0  0.9471969501818622  0.6031995922254582  0.8633829021982533  1.0000
  C   C12       1.0  0.5528082628941535  0.1366106725521092  0.3967989733422356  1.0000
  C   C13       1.0  0.9928514107124043  0.2915549473357758  0.1645783398083367  1.0000
  C   C14       1.0  0.5071461430346035  0.8354170413617937  0.7084528870675366  1.0000
  C   C15       1.0  0.007153544362594698  0.7084504844095251  0.8354092649862462  1.0000
  C   C16       1.0  0.49284147284867436  0.1645821200672231  0.2915543265792876  1.0000
  C   C17       1.0  0.9511460094048445  0.4943764675054894  0.1509244861615072  1.0000
  C   C18       1.0  0.5488480524090493  0.8490768539188878  0.5056256408679186  1.0000
  C   C19       1.0  0.04886312349795929  0.5056214541956621  0.8490708698891178  1.0000
  C   C20       1.0  0.4511430965536505  0.1509222581234866  0.4943801692414379  1.0000
  C   C21       1.0  0.2704428878145891  0.4834588071048317  0.06268079879945522  1.0000
  C   C22       1.0  0.2295533500247302  0.937316609764615  0.5165429726372037  1.0000
  C   C23       1.0  0.7295647356312859  0.5165400872963205  0.9373189629151137  1.0000
  C   C24       1.0  0.7704461749982203  0.0626822587444877  0.4834545480842675  1.0000
  C   C25       1.0  0.013875545123426014  0.5912924058804735  0.11549099988852857  1.0000
  C   C26       1.0  0.4861165900076614  0.8845155656624969  0.4087037104563932  1.0000
  C   C27       1.0  0.986132756314014  0.40870392772196595  0.8845089830928  1.0000
  C   C28       1.0  0.5138808070604954  0.11548677861133431  0.5912957381520553  1.0000
  S   S1        1.0  0.7500016442980384  0.9689952298411413  0.031003375603155664  1.0000
  S   S2        1.0  0.2500014284594628  0.031007872891407794  0.9689931585738871  1.0000
  N   N1        1.0  0.21009228908303615  0.3916702090346291  0.09230778643787113  1.0000
  N   N2        1.0  0.2898983063195928  0.9076940919590015  0.6083313964580054  1.0000
  N   N3        1.0  0.7899181351330856  0.6083269516578369  0.9076914378195791  1.0000
  N   N4        1.0  0.7100882919547403  0.09230922841477003  0.39167118611382506  1.0000
  O   O1        1.0  0.8480982410907603  0.2862703097145669  0.2036264366392046  1.0000
  O   O2        1.0  0.6518999203616718  0.7963722052519772  0.7137344259831617  1.0000
  O   O3        1.0  0.15190656232703498  0.7137451334396305  0.7963515749726536  1.0000
  O   O4        1.0  0.34809152731275367  0.20362598262705237  0.2862686999248608  1.0000
  O   O5        1.0  0.1581992038587075  0.783824115581986  0.9921872541756609  1.0000
  O   O6        1.0  0.34179399442033553  0.0078176275114075  0.21617761486307768  1.0000
  O   O7        1.0  0.8417903999175211  0.21617234028833113  0.00781469842495845  1.0000
  O   O8        1.0  0.6582059456119893  0.9921832332343853  0.7838310744991756  1.0000
  O   O9        1.0  0.0973661226400679  0.20808789728035754  0.1434457547710152  1.0000
  O   O10       1.0  0.4026148230079656  0.8565442665793556  0.7919237031537416  1.0000
  O   O11       1.0  0.9026328317833505  0.7919226577623493  0.856540771639771  1.0000
  O   O12       1.0  0.5973669112111466  0.14345990267906933  0.20807791908886483  1.0000
  O   O13       1.0  0.7013105217481697  0.8631923695502834  0.04872944507960126  1.0000
  O   O14       1.0  0.7986947088465681  0.9512633307340085  0.13680883403618782  1.0000
  O   O15       1.0  0.2986934733950264  0.13680300309945181  0.9512657135099613  1.0000
  O   O16       1.0  0.20131081165185807  0.04873471733245079  0.8631909342321786  1.0000
  O   O17       1.0  0.8839184942575502  0.9921229739531724  0.9327465467673686  1.0000
  O   O18       1.0  0.6160788217629262  0.0672535691361418  0.007882772941499604  1.0000
  O   O19       1.0  0.11607959545730755  0.0078810931320277  0.06725354010087159  1.0000
  O   O20       1.0  0.3839160451796176  0.9327403819694808  0.9921222932863709  1.0000
  O   O21       1.0  0.39922837086432866  0.6736528257862133  0.02244088765494449  1.0000
  O   O22       1.0  0.10077051138996033  0.9775638031876003  0.32634647913989995  1.0000
  O   O23       1.0  0.6007670965614054  0.32635280180567616  0.9775529671397788  1.0000
  O   O24       1.0  0.8992345703349118  0.022435939248218496  0.6736526401705871  1.0000
  O   O25       1.0  0.10288552676077241  0.13929705575782236  0.6686698878819112  1.0000
  O   O26       1.0  0.3971150317001604  0.3313283404464186  0.8606973651032913  1.0000
  O   O27       1.0  0.8971178511277317  0.8607001844632691  0.3313313912804005  1.0000
  O   O28       1.0  0.6028856100879167  0.6686662728946048  0.139301025842819  1.0000
