data_image0
_chemical_formula_structural       Zn3H21C30N14O6F3
_chemical_formula_sum              "Zn3 H21 C30 N14 O6 F3"
_cell_length_a       12.894741923294575
_cell_length_b       12.894736155107719
_cell_length_c       12.894700498175206
_cell_angle_alpha    108.35990334573167
_cell_angle_beta     108.35983832420725
_cell_angle_gamma    108.35986675415721

_space_group_name_H-M_alt    "P 1"
_space_group_IT_number       1

loop_
  _space_group_symop_operation_xyz
  'x, y, z'

loop_
  _atom_site_type_symbol
  _atom_site_label
  _atom_site_symmetry_multiplicity
  _atom_site_fract_x
  _atom_site_fract_y
  _atom_site_fract_z
  _atom_site_occupancy
  Zn  Zn1       1.0  0.9698541873441119  0.9698557239570605  0.9698549080834059  1.0000
  Zn  Zn2       1.0  0.7125881969090601  0.7125890262230429  0.7125896330208904  1.0000
  Zn  Zn3       1.0  0.21898093972281882  0.21898113176146689  0.21898198780404243  1.0000
  H   H1        1.0  0.6509780946212945  0.5666880598514012  0.4504573383100095  1.0000
  H   H2        1.0  0.4762729201838809  0.3914063486489567  0.2769465751113033  1.0000
  H   H3        1.0  0.5666891155206885  0.45045749796671686  0.6509790344631767  1.0000
  H   H4        1.0  0.39140557915102653  0.2769479272556623  0.47627416456843724  1.0000
  H   H5        1.0  0.450457131247724  0.6509773563376555  0.5666888237643236  1.0000
  H   H6        1.0  0.276946684603054  0.4762728964377345  0.39140590983648593  1.0000
  H   H7        1.0  0.6509781801068257  0.45045750153021663  0.566687549399262  1.0000
  H   H8        1.0  0.4762720945239138  0.27694720794097794  0.3914057295359115  1.0000
  H   H9        1.0  0.5666880405462466  0.6509774847735414  0.4504579579991627  1.0000
  H   H10       1.0  0.39140632397997893  0.4762734326331994  0.2769467665880398  1.0000
  H   H11       1.0  0.4504571938684236  0.5666875062931992  0.6509784946097668  1.0000
  H   H12       1.0  0.2769467586422323  0.3914065249760482  0.47627337363007166  1.0000
  H   H13       1.0  0.7954271867993017  0.7954262468132358  0.35882397562110696  1.0000
  H   H14       1.0  0.1732237215716168  0.17322449708462528  0.503968321055936  1.0000
  H   H15       1.0  0.12099456294117773  0.1209935881474991  0.6577424052652033  1.0000
  H   H16       1.0  0.7954284675214254  0.35882682558150947  0.7954275004804073  1.0000
  H   H17       1.0  0.1732234591589759  0.5039673184708348  0.1732242691840966  1.0000
  H   H18       1.0  0.12099508186506823  0.6577416121392614  0.12099607497945898  1.0000
  H   H19       1.0  0.35882500056330013  0.7954280050305725  0.7954262194849803  1.0000
  H   H20       1.0  0.5039674208511755  0.17322277075926  0.1732239315489039  1.0000
  H   H21       1.0  0.6577413671949375  0.12099495327179714  0.12099493094561353  1.0000
  C   C1        1.0  0.9222362864281808  0.9222359473432675  0.6070153045113927  1.0000
  C   C2        1.0  0.9549212660144735  0.9549195669949384  0.5191388543929067  1.0000
  C   C3        1.0  0.8788532825572946  0.878852067850694  0.3924862366549251  1.0000
  C   C4        1.0  0.9097764499506981  0.9097744512679142  0.3087096681271291  1.0000
  C   C5        1.0  0.0159889010598135  0.0159876706759547  0.34591977064039275  1.0000
  C   C6        1.0  0.09055041458523051  0.0905494387798669  0.4737420211864958  1.0000
  C   C7        1.0  0.061864796097140115  0.0618630131946745  0.5594057358122839  1.0000
  C   C8        1.0  0.05332157983986721  0.0533198192745559  0.259533576934345  1.0000
  C   C9        1.0  0.5644739823579955  0.5644732431539694  0.4480131794903742  1.0000
  C   C10       1.0  0.4504225137603087  0.4504235393936753  0.3347193050404443  1.0000
  C   C11       1.0  0.9222374909831007  0.6070177244273509  0.9222395115241397  1.0000
  C   C12       1.0  0.9549225586043238  0.5191419199275132  0.9549220519238232  1.0000
  C   C13       1.0  0.8788527422843663  0.39248730826467704  0.8788512720542346  1.0000
  C   C14       1.0  0.909775075902381  0.3087101855067472  0.9097732623915248  1.0000
  C   C15       1.0  0.015987737838216304  0.34592051453878975  0.01598702671822141  1.0000
  C   C16       1.0  0.0905519579379899  0.47374211505967867  0.09055041518350752  1.0000
  C   C17       1.0  0.06186535116709993  0.5594068404736987  0.06186433192137036  1.0000
  C   C18       1.0  0.05331864644579553  0.25953039299695035  0.053318640792923616  1.0000
  C   C19       1.0  0.5644731521462775  0.44801247332899397  0.5644732594302653  1.0000
  C   C20       1.0  0.4504226033869259  0.3347199849470995  0.4504230382905945  1.0000
  C   C21       1.0  0.6070159324670997  0.9222377614113384  0.9222368603688694  1.0000
  C   C22       1.0  0.5191400119118867  0.9549217808427244  0.95492064679091  1.0000
  C   C23       1.0  0.3924869625629412  0.878853180480753  0.8788507539853114  1.0000
  C   C24       1.0  0.30871066489935123  0.909776295638828  0.9097748485662862  1.0000
  C   C25       1.0  0.3459198444872556  0.01598830519194652  0.015988390727038438  1.0000
  C   C26       1.0  0.47374004897815786  0.09055062666130448  0.09055073041715636  1.0000
  C   C27       1.0  0.5594063710546849  0.0618642674336273  0.061864390873502435  1.0000
  C   C28       1.0  0.259531917212577  0.05332023296592329  0.053321837016980574  1.0000
  C   C29       1.0  0.44801226996821  0.5644734800305713  0.5644741284342062  1.0000
  C   C30       1.0  0.3347192732107446  0.4504226225962498  0.4504228775198627  1.0000
  N   N1        1.0  0.9259018077798374  0.9259049904775194  0.7738983220762563  1.0000
  N   N2        1.0  0.825841465187523  0.825843154775633  0.678735743802392  1.0000
  N   N3        1.0  0.8205423168958959  0.8205408139834772  0.5727475294441006  1.0000
  N   N4        1.0  0.9881918269325214  0.9881931637970139  0.7312906459178877  1.0000
  N   N5        1.0  0.925901943935152  0.7738994023160615  0.9259062769836602  1.0000
  N   N6        1.0  0.8258415943145823  0.6787364646570139  0.8258444186345171  1.0000
  N   N7        1.0  0.8205416313197491  0.5727484447722659  0.82054438027793  1.0000
  N   N8        1.0  0.9881920530315824  0.7312919821393252  0.9881953627105559  1.0000
  N   N9        1.0  0.7739005424402876  0.9259051220609463  0.9259030370033159  1.0000
  N   N10       1.0  0.6787376996060885  0.8258449599702402  0.8258428151679383  1.0000
  N   N11       1.0  0.5727490740566028  0.8205432508377868  0.820542093403006  1.0000
  N   N12       1.0  0.731292412746619  0.9881952817567027  0.9881942939452274  1.0000
  N   N13       1.0  0.5633839237986252  0.5633838002335594  0.5633848602995785  1.0000
  N   N14       1.0  0.37527127571215163  0.37527175904918403  0.3752719907805187  1.0000
  O   O1        1.0  0.9891162410172001  0.989111887603002  0.14515082087250872  1.0000
  O   O2        1.0  0.15462855165410624  0.1546263168273541  0.3137577673751721  1.0000
  O   O3        1.0  0.9891095646623428  0.14515125550121874  0.9891096539542872  1.0000
  O   O4        1.0  0.15462475138946272  0.3137549087451248  0.15462599436052932  1.0000
  O   O5        1.0  0.14514920947995347  0.9891121228211188  0.9891156387816267  1.0000
  O   O6        1.0  0.3137547453729965  0.15462592888486884  0.15462778571850322  1.0000
  F   F1        1.0  0.8320887491423506  0.8320844654293821  0.187672744096254  1.0000
  F   F2        1.0  0.8320883355782345  0.18767350574438538  0.8320847197976421  1.0000
  F   F3        1.0  0.1876750799647695  0.8320858260489317  0.8320847322348612  1.0000
