data_image0
_chemical_formula_structural       Ba2H48C68O24
_chemical_formula_sum              "Ba2 H48 C68 O24"
_cell_length_a       8.956231718802686
_cell_length_b       12.532964705674374
_cell_length_c       17.392900484384093
_cell_angle_alpha    111.11490003821572
_cell_angle_beta     97.69347748971951
_cell_angle_gamma    89.99804799156175

_space_group_name_H-M_alt    "P 1"
_space_group_IT_number       1

loop_
  _space_group_symop_operation_xyz
  'x, y, z'

loop_
  _atom_site_type_symbol
  _atom_site_label
  _atom_site_symmetry_multiplicity
  _atom_site_fract_x
  _atom_site_fract_y
  _atom_site_fract_z
  _atom_site_occupancy
  Ba  Ba1       1.0  0.2500140920993204  0.5761065365910197  0.9999765396575383  1.0000
  Ba  Ba2       1.0  0.7499867205522649  0.4238940819388972  2.3961555171994917e-05  1.0000
  H   H1        1.0  0.21833684642427184  0.5458344887981355  0.7853667112296917  1.0000
  H   H2        1.0  0.2816751062575449  0.7606542350967301  0.21461893852006134  1.0000
  H   H3        1.0  0.7816594480294653  0.45416611845207916  0.21463576989501118  1.0000
  H   H4        1.0  0.7183256577806603  0.23934554321861862  0.7853790387500652  1.0000
  H   H5        1.0  0.8021458654458443  0.5922816612353046  0.8989397817416316  1.0000
  H   H6        1.0  0.697903298413422  0.6932672364523639  0.10107982802531264  1.0000
  H   H7        1.0  0.19785150403109242  0.4077181004894257  0.10106082782252197  1.0000
  H   H8        1.0  0.30209739927276763  0.3067316772558897  0.8989190673823371  1.0000
  H   H9        1.0  0.8734295554027014  0.5382334847509185  0.6478267421330414  1.0000
  H   H10       1.0  0.6266214237611222  0.8902735000948638  0.352196067389677  1.0000
  H   H11       1.0  0.1265668628857526  0.4617688395172336  0.35217562375666484  1.0000
  H   H12       1.0  0.37338045800079556  0.10972626477872179  0.6478037096225292  1.0000
  H   H13       1.0  0.4240031145580616  0.5088193424245518  0.7029367618799469  1.0000
  H   H14       1.0  0.0760804297608857  0.8059331917647441  0.29705135114860326  1.0000
  H   H15       1.0  0.5759921166982309  0.49118212661284827  0.2970652960852291  1.0000
  H   H16       1.0  0.9239214549574652  0.19406657717426865  0.7029478521835839  1.0000
  H   H17       1.0  0.61875520116034  0.7253390542483373  0.6886762644008255  1.0000
  H   H18       1.0  0.8812883809650742  0.036644573375369305  0.3112974004950502  1.0000
  H   H19       1.0  0.38124561740412594  0.2746615724124267  0.31132308945184656  1.0000
  H   H20       1.0  0.1187123742038168  0.9633551927437123  0.6887022978151264  1.0000
  H   H21       1.0  0.6447013607637686  0.3038095181164024  0.5896121701200486  1.0000
  H   H22       1.0  0.8554219569663601  0.714216619508022  0.41038323303841634  1.0000
  H   H23       1.0  0.3552971412190757  0.6961902504936787  0.4103873707860898  1.0000
  H   H24       1.0  0.14457992479555773  0.2857831453655635  0.5896165439737897  1.0000
  H   H25       1.0  0.6922700084096932  0.007683485112742998  0.547103070121878  1.0000
  H   H26       1.0  0.8080374231995009  0.46055524657477775  0.4528307715235512  1.0000
  H   H27       1.0  0.3077308101547729  0.992317141548021  0.45289628373079427  1.0000
  H   H28       1.0  0.1919633349258305  0.539444523609731  0.5471683531066133  1.0000
  H   H29       1.0  0.6008684009272541  0.13371340792574668  0.602254261524308  1.0000
  H   H30       1.0  0.8995001056780652  0.5315514330140658  0.397775748300809  1.0000
  H   H31       1.0  0.3991336076258066  0.8662880780311963  0.39774482657288235  1.0000
  H   H32       1.0  0.10049952585423941  0.46844833841593925  0.6022232976273328  1.0000
  H   H33       1.0  0.7784647009010612  0.1463016847559757  0.5676870127490969  1.0000
  H   H34       1.0  0.7217630386542737  0.5785490452855697  0.43220574471737894  1.0000
  H   H35       1.0  0.22153724425642446  0.8536989406592924  0.43231241980559787  1.0000
  H   H36       1.0  0.27823771355818383  0.4214507167680992  0.5677945272728238  1.0000
  H   H37       1.0  0.747449861058982  0.8957790333204159  0.7377567012274894  1.0000
  H   H38       1.0  0.7525911572517855  0.1580616289691861  0.262228244599953  1.0000
  H   H39       1.0  0.2525520266158097  0.1042207396840169  0.2622419284246789  1.0000
  H   H40       1.0  0.2474084742805118  0.8419381424608189  0.7377708013281887  1.0000
  H   H41       1.0  0.5787088938263593  0.8949886801499859  0.7831478425666061  1.0000
  H   H42       1.0  0.9213065219226453  0.1118802609126703  0.216812121655316  1.0000
  H   H43       1.0  0.42129293340929747  0.10501023637819881  0.21685055786304727  1.0000
  H   H44       1.0  0.07869535983927281  0.8881195039609154  0.7831876553568903  1.0000
  H   H45       1.0  0.6577629894803323  0.0271734415223008  0.7841757882571797  1.0000
  H   H46       1.0  0.8422743965496052  0.24305392585975483  0.21581675695539096  1.0000
  H   H47       1.0  0.342238895238026  0.9728263274167117  0.21582341507500039  1.0000
  H   H48       1.0  0.15772748816875284  0.7569458430792578  0.7841824463767961  1.0000
  C   C1        1.0  0.01740604655955739  0.5818611152315255  0.8094031217341991  1.0000
  C   C2        1.0  0.482661137208204  0.7724034769893605  0.19059486731642747  1.0000
  C   C3        1.0  0.9825903717288894  0.41814120903662644  0.19059924415550702  1.0000
  C   C4        1.0  0.517339620917127  0.2275962931951483  0.8094042573137372  1.0000
  C   C5        1.0  0.6014948036319083  0.546898897902281  0.8071715672096004  1.0000
  C   C6        1.0  0.8985794251785392  0.7396582899206621  0.19284903335478984  1.0000
  C   C7        1.0  0.398501378812874  0.4531000085916971  0.19282873443001583  1.0000
  C   C8        1.0  0.10142126659477667  0.2603406156567445  0.8071510094129052  1.0000
  C   C9        1.0  0.8542976901459909  0.5625914981079987  0.7759942898651814  1.0000
  C   C10       1.0  0.6457657385703683  0.7865154582372398  0.22401726588903154  1.0000
  C   C11       1.0  0.14569860726419387  0.437409113207643  0.22400761757950247  1.0000
  C   C12       1.0  0.3542350225113963  0.21348431601268908  0.7759812850611141  1.0000
  C   C13       1.0  0.7562316669210744  0.5690001981392355  0.8334393447594265  1.0000
  C   C14       1.0  0.7438420275390314  0.7354731825073983  0.16658380945771964  1.0000
  C   C15       1.0  0.2437646275326628  0.4310004091109789  0.1665631363652764  1.0000
  C   C16       1.0  0.256158667190725  0.26452572713543526  0.8334156596299491  1.0000
  C   C17       1.0  0.7975598788099629  0.5383508744963379  0.691904523285501  1.0000
  C   C18       1.0  0.7024973717257552  0.8463602217499043  0.30810989528826827  1.0000
  C   C19       1.0  0.20243529496362814  0.4616497421302199  0.3080967317771409  1.0000
  C   C20       1.0  0.29750338639956897  0.1536395484346045  0.6918892293418892  1.0000
  C   C21       1.0  0.5452165312948836  0.5236322803514213  0.7234026652115517  1.0000
  C   C22       1.0  0.9548543005921032  0.8002145579826985  0.27660263609761404  1.0000
  C   C23       1.0  0.4547797086326  0.4763674785533851  0.2765984393306056  1.0000
  C   C24       1.0  0.045146454576794816  0.19978520813639022  0.7233970622125695  1.0000
  C   C25       1.0  0.6415392680679659  0.5210934131089431  0.6655547654783902  1.0000
  C   C26       1.0  0.8585291997969121  0.8555177797525602  0.3344497089018503  1.0000
  C   C27       1.0  0.3584582163743733  0.47890805343745046  0.3344474498908312  1.0000
  C   C28       1.0  0.14147149493284417  0.14448112989027348  0.6655497601858185  1.0000
  C   C29       1.0  0.49920406496190844  0.5488457402472876  0.8690305717209696  1.0000
  C   C30       1.0  0.000873588517940521  0.6797099569766162  0.1309977190111482  1.0000
  C   C31       1.0  0.5007921145264334  0.45115316218126356  0.13097030359867284  1.0000
  C   C32       1.0  0.9991282357612757  0.3202889554861414  0.8690012550985242  1.0000
  C   C33       1.0  0.5734741974822272  0.5085289866530476  0.5796042033680492  1.0000
  C   C34       1.0  0.9265729732173328  0.9289165383988092  0.4203946614985411  1.0000
  C   C35       1.0  0.42652210584083144  0.4914716327934414  0.42039655671659654  1.0000
  C   C36       1.0  0.07342890854457809  0.07108322647477651  0.579605115513665  1.0000
  C   C37       1.0  0.5457728825368022  0.39987690519536306  0.5157465212194552  1.0000
  C   C38       1.0  0.9542797955667907  0.8841351329106217  0.48426347074641984  1.0000
  C   C39       1.0  0.4542245503357165  0.6001237170710425  0.4842537438871872  1.0000
  C   C40       1.0  0.0457232127881539  0.11586463071747488  0.5157363849678092  1.0000
  C   C41       1.0  0.529358071511517  0.6083890532149141  0.5649706289127464  1.0000
  C   C42       1.0  0.9706248001461331  0.04340440328698491  0.43501808546226056  1.0000
  C   C43       1.0  0.47063929796542675  0.3916107085098233  0.4350299806514072  1.0000
  C   C44       1.0  0.02937595206632444  0.9565953587666773  0.5649821865279421  1.0000
  C   C45       1.0  0.5578852816921939  0.19112977926806002  0.46614508040843816  1.0000
  C   C46       1.0  0.9421684670850964  0.7249949791121891  0.5338612798728946  1.0000
  C   C47       1.0  0.44211553687227223  0.808870847392704  0.5338542734442413  1.0000
  C   C48       1.0  0.057833478072396395  0.2750056463030788  0.4661381526818075  1.0000
  C   C49       1.0  0.5597154235532498  0.7192491385770694  0.6283556079747326  1.0000
  C   C50       1.0  0.9402694593314819  0.09088545584700108  0.3716272188636934  1.0000
  C   C51       1.0  0.4402842050226141  0.2807506287875158  0.37164401163342836  1.0000
  C   C52       1.0  0.05973129879384232  0.9091143143375079  0.6283719057664712  1.0000
  C   C53       1.0  0.588044784986991  0.2971181093356492  0.5285934947470139  1.0000
  C   C54       1.0  0.9120648855629341  0.7685244075610457  0.47140259300315523  1.0000
  C   C55       1.0  0.4119549040280147  0.7028825145051909  0.47140635408365467  1.0000
  C   C56       1.0  0.0879369961989767  0.2314753573125401  0.528597184009051  1.0000
  C   C57       1.0  0.519646012671906  0.8170246484590393  0.6141195244298813  1.0000
  C   C58       1.0  0.9803571611663455  0.20289040491650923  0.38586457786107786  1.0000
  C   C59       1.0  0.4803536159039652  0.18297511890554571  0.3858800951782796  1.0000
  C   C60       1.0  0.019643591046111904  0.7971093571371596  0.6141356941291249  1.0000
  C   C61       1.0  0.6709827646856042  0.09588253675507023  0.5529859935222206  1.0000
  C   C62       1.0  0.8292706390609579  0.5428989707655844  0.4469792277624477  1.0000
  C   C63       1.0  0.32901811727443697  0.9041189504473691  0.4470130158729474  1.0000
  C   C64       1.0  0.17073011610793287  0.4571007953535045  0.553020470547736  1.0000
  C   C65       1.0  0.6385323178374946  0.9354124877524012  0.7484157310854369  1.0000
  C   C66       1.0  0.8615064792923873  0.18703035331667914  0.25156491744947823  1.0000
  C   C67       1.0  0.36146844028783676  0.06458728243210742  0.2515833935447276  1.0000
  C   C68       1.0  0.13849433927207136  0.8129702733440849  0.7484344364032012  1.0000
  O   O1        1.0  0.06144225454046651  0.6328136040257846  0.8849400607499901  1.0000
  O   O2        1.0  0.4387030808784473  0.7475069027166085  0.11501417307568564  1.0000
  O   O3        1.0  0.9385530430678342  0.367188729618711  0.11506107907765539  1.0000
  O   O4        1.0  0.5612989276746135  0.25249458324033475  0.884984915021505  1.0000
  O   O5        1.0  0.35623166827336655  0.5470787935913181  0.8489042731659281  1.0000
  O   O6        1.0  0.1438451131152547  0.6980226790228272  0.15112245787557296  1.0000
  O   O7        1.0  0.6437657586862713  0.4529218205442475  0.15109713930075933  1.0000
  O   O8        1.0  0.8561555875273754  0.3019762387508536  0.8488758638520579  1.0000
  O   O9        1.0  0.5571350963332976  0.5519420554644868  0.9407618007555311  1.0000
  O   O10       1.0  0.9429351335408639  0.6110430369941043  0.059285358844320485  1.0000
  O   O11       1.0  0.4428612010768802  0.44805855585115484  0.05924010668915257  1.0000
  O   O12       1.0  0.057067811418505705  0.38895586609231  0.940714841327413  1.0000
  O   O13       1.0  0.11075490057491778  0.5382157154129174  0.7538679863352868  1.0000
  O   O14       1.0  0.3892262556250401  0.7846701996533907  0.24613649405703333  1.0000
  O   O15       1.0  0.889240206846665  0.46178403660654505  0.24613418686488575  1.0000
  O   O16       1.0  0.6107756320497515  0.21532957335104191  0.7538621355951348  1.0000
  O   O17       1.0  0.5940884780963316  0.08978365045265238  0.47355929436308486  1.0000
  O   O18       1.0  0.9059806538756092  0.6162448342803939  0.5264456868852107  1.0000
  O   O19       1.0  0.4059123434245677  0.9102169802735389  0.5264394858095683  1.0000
  O   O20       1.0  0.09402123084274192  0.38375493465861876  0.4735535164469695  1.0000
  O   O21       1.0  0.5497029008953405  0.9255572425469011  0.6712673665431197  1.0000
  O   O22       1.0  0.9503530962520157  0.25428559865562755  0.3287132079481906  1.0000
  O   O23       1.0  0.450298986779444  0.07444253045753159  0.3287312631090487  1.0000
  O   O24       1.0  0.049647658916875094  0.7457141674634613  0.6712864903619931  1.0000
