data_image0
_chemical_formula_structural       Na2H54C46S2N6Cl2O10
_chemical_formula_sum              "Na2 H54 C46 S2 N6 Cl2 O10"
_cell_length_a       10.041935650092844
_cell_length_b       10.854379401835587
_cell_length_c       11.385711733478717
_cell_angle_alpha    90.37530860659557
_cell_angle_beta     90.00016178801411
_cell_angle_gamma    89.9995346627588

_space_group_name_H-M_alt    "P 1"
_space_group_IT_number       1

loop_
  _space_group_symop_operation_xyz
  'x, y, z'

loop_
  _atom_site_type_symbol
  _atom_site_label
  _atom_site_symmetry_multiplicity
  _atom_site_fract_x
  _atom_site_fract_y
  _atom_site_fract_z
  _atom_site_occupancy
  Na  Na1       1.0  0.4092401924308148  0.5902448374529142  0.5999383664073932  1.0000
  Na  Na2       1.0  0.9092388881707479  0.40974946337030344  0.4000629674024053  1.0000
  H   H1        1.0  0.4681536684303609  0.5985407981212771  0.3321244425142424  1.0000
  H   H2        1.0  0.9681503058031498  0.40145766642071096  0.6678770943844583  1.0000
  H   H3        1.0  0.11691511374930738  0.8063184120314587  0.5920052849591784  1.0000
  H   H4        1.0  0.6169077606339285  0.19367994077982328  0.4079936008351552  1.0000
  H   H5        1.0  0.7630618943546637  0.9830036411416215  0.7265789848336084  1.0000
  H   H6        1.0  0.26305920842877123  0.0169908368812202  0.2734219795779325  1.0000
  H   H7        1.0  0.9898512056541193  0.6121335384135874  0.5622603109591466  1.0000
  H   H8        1.0  0.48984181380136244  0.3878638481528895  0.4377403889847074  1.0000
  H   H9        1.0  0.9854110791600518  0.9665311969822238  0.4451619344246183  1.0000
  H   H10       1.0  0.4854131321983317  0.03347082933277789  0.5548388136397477  1.0000
  H   H11       1.0  0.1269107510852976  0.016622757180378797  0.6431251687779636  1.0000
  H   H12       1.0  0.6269102598132434  0.9833764227670865  0.3568763879716528  1.0000
  H   H13       1.0  0.011167025223699098  0.07750002222304178  0.7446399894679416  1.0000
  H   H14       1.0  0.5111657466608506  0.9224963550340984  0.2553594804895951  1.0000
  H   H15       1.0  0.6811062652773429  0.6175121557314396  0.1520337816324471  1.0000
  H   H16       1.0  0.1811091864963785  0.38248478070884295  0.847967005881486  1.0000
  H   H17       1.0  0.6381973431517166  0.7872960876599464  0.7020295601925852  1.0000
  H   H18       1.0  0.1381930217007721  0.21270026897757782  0.297968475848279  1.0000
  H   H19       1.0  0.7600681343052001  0.1712208922468506  0.17584703883471783  1.0000
  H   H20       1.0  0.2600740414457192  0.8287837740591614  0.8241496568272098  1.0000
  H   H21       1.0  0.9029374543988382  0.7357839646515814  0.1350446529534324  1.0000
  H   H22       1.0  0.40293648663256926  0.2642187004450065  0.8649532586477591  1.0000
  H   H23       1.0  0.12184747226785933  0.7186924096002866  0.3786142484823571  1.0000
  H   H24       1.0  0.6218470048964306  0.2813068590875217  0.6213802700131055  1.0000
  H   H25       1.0  0.1062974014830829  0.72559125133224  0.2224951752069941  1.0000
  H   H26       1.0  0.6062994854388677  0.27441087904534095  0.7775019753322495  1.0000
  H   H27       1.0  0.9710265057981219  0.6661026593730597  0.3099500190367195  1.0000
  H   H28       1.0  0.4710223767668252  0.3338985917939111  0.6900454126359676  1.0000
  H   H29       1.0  0.76609027177971  0.8303019983553952  0.9791992838405648  1.0000
  H   H30       1.0  0.2660924113200807  0.16970353132267488  0.0207991948096264  1.0000
  H   H31       1.0  0.35744346048473824  0.4885211537437755  0.978447423737741  1.0000
  H   H32       1.0  0.8574410506365024  0.5114818405570034  0.021552133034504095  1.0000
  H   H33       1.0  0.4575633410178881  0.5012334093145228  0.8511887989928865  1.0000
  H   H34       1.0  0.9575634411251883  0.4987697475590736  0.1488118927375837  1.0000
  H   H35       1.0  0.6608980206595375  0.45886151166275374  0.9698356826801273  1.0000
  H   H36       1.0  0.1608979328998359  0.5411374128805733  0.0301659572146349  1.0000
  H   H37       1.0  0.5472352349813434  0.33666933762710016  0.9852271725117133  1.0000
  H   H38       1.0  0.0472330319874388  0.6633332239255053  0.014771590002645498  1.0000
  H   H39       1.0  0.4640016036697361  0.4216303062720001  0.173526771589259  1.0000
  H   H40       1.0  0.9640021779685666  0.5783654446105969  0.8264720850753305  1.0000
  H   H41       1.0  0.6378895095733127  0.39825441084184376  0.1818387449818886  1.0000
  H   H42       1.0  0.13788643189978697  0.6017437716651058  0.8181619485952467  1.0000
  H   H43       1.0  0.4060864283475354  0.7101039142595338  0.9346648699112734  1.0000
  H   H44       1.0  0.9060880908001182  0.28989872716370957  0.0653330493966209  1.0000
  H   H45       1.0  0.5781898465197628  0.6789153488460471  0.9395813918050564  1.0000
  H   H46       1.0  0.0781887952774838  0.3210860397945297  0.06042006934307409  1.0000
  H   H47       1.0  0.5034416069960344  0.7701529079206179  0.1300174851016109  1.0000
  H   H48       1.0  0.0034459354525892996  0.22984627855170453  0.8699837578118094  1.0000
  H   H49       1.0  0.3789950072760746  0.6555655158815411  0.1434001145872514  1.0000
  H   H50       1.0  0.878997726719085  0.3444345716015817  0.8565968248323016  1.0000
  H   H51       1.0  0.864149415613106  0.15137213246016754  0.590397337192833  1.0000
  H   H52       1.0  0.36414983992643357  0.8486280095629865  0.4096074700075434  1.0000
  H   H53       1.0  0.027647071969603608  0.20134933910667022  0.5587448157757251  1.0000
  H   H54       1.0  0.5276524516899315  0.798649665465973  0.441256486353943  1.0000
  C   C1        1.0  0.6624569821503741  0.5840597991725076  0.3779717794393065  1.0000
  C   C2        1.0  0.16245390871956997  0.4159381987183365  0.6220289742383898  1.0000
  C   C3        1.0  0.806204107075345  0.6894339462468791  0.6278373697206092  1.0000
  C   C4        1.0  0.3062031490938324  0.3105648266690223  0.3721620027355641  1.0000
  C   C5        1.0  0.0110760052570029  0.8033682011320946  0.6140227408391041  1.0000
  C   C6        1.0  0.5110725391854842  0.19663184294828528  0.3859794107683427  1.0000
  C   C7        1.0  0.8722733600885348  0.02540708436018239  0.2533766874840921  1.0000
  C   C8        1.0  0.37227375895483317  0.9745967197735582  0.746622917364391  1.0000
  C   C9        1.0  0.8953922248007729  0.10588182279425949  0.358660209271612  1.0000
  C   C10       1.0  0.3953969750531101  0.894126407681881  0.6413403893410177  1.0000
  C   C11       1.0  0.8134030829308755  0.9020858267707368  0.690329801332453  1.0000
  C   C12       1.0  0.3133998042257389  0.09791288571960874  0.3096704669655352  1.0000
  C   C13       1.0  0.9406034283309666  0.6936330814476576  0.5979504298815641  1.0000
  C   C14       1.0  0.44059662776888325  0.3063628579647783  0.40204661306703565  1.0000
  C   C15       1.0  0.9481698449421428  0.909396247643272  0.6575306754368313  1.0000
  C   C16       1.0  0.4481677309714556  0.09060330736003408  0.3424681896693826  1.0000
  C   C17       1.0  0.020117555237156602  0.03142217746407278  0.658708705512197  1.0000
  C   C18       1.0  0.5201161479142087  0.9685778113373541  0.34129171174961925  1.0000
  C   C19       1.0  0.578642112461047  0.5896551517022315  0.1735822086837615  1.0000
  C   C20       1.0  0.07864372495645  0.41034531224461546  0.8264192417803075  1.0000
  C   C21       1.0  0.7425237773296516  0.7929133686441856  0.6762229412385565  1.0000
  C   C22       1.0  0.24251660015687548  0.2070830175922324  0.3237902917799502  1.0000
  C   C23       1.0  0.9162341318288012  0.9019183831364398  0.2399649655652709  1.0000
  C   C24       1.0  0.4162322918958168  0.09808509699211503  0.7600338685903196  1.0000
  C   C25       1.0  0.7938608202167501  0.07658933552414739  0.1643901277868522  1.0000
  C   C26       1.0  0.2938639435544986  0.9234169067492246  0.835608430594661  1.0000
  C   C27       1.0  0.7580919640991723  0.0077473497986488985  0.0660738612249645  1.0000
  C   C28       1.0  0.2580967905692972  0.9922600888805063  0.9339237432158639  1.0000
  C   C29       1.0  0.8739316820732197  0.8319148039853272  0.14302155772112712  1.0000
  C   C30       1.0  0.3739345181750551  0.16809084925710488  0.8569754400742439  1.0000
  C   C31       1.0  0.052387577037215693  0.7331398490102997  0.3061941116168114  1.0000
  C   C32       1.0  0.5523854761487215  0.26685992897791516  0.6938019934205499  1.0000
  C   C33       1.0  0.7959672593604665  0.884509897584543  0.055641955986281695  1.0000
  C   C34       1.0  0.2959698396966601  0.11549819044127217  0.944353996434721  1.0000
  C   C35       1.0  0.4570296702047401  0.5153411275563045  0.9466243684724772  1.0000
  C   C36       1.0  0.9570285928598068  0.4846574395794789  0.0533745065154889  1.0000
  C   C37       1.0  0.5622452844738959  0.43486673058574593  0.0055447729246935985  1.0000
  C   C38       1.0  0.06224408704588309  0.5651338946068946  0.9944513680228723  1.0000
  C   C39       1.0  0.560380237048207  0.45360144130462027  0.1386709604115595  1.0000
  C   C40       1.0  0.06037977380026399  0.5463973363208863  0.8613277870872764  1.0000
  C   C41       1.0  0.48115096669983615  0.6511458105833794  0.9764601696499328  1.0000
  C   C42       1.0  0.981148991672832  0.34885532013847603  0.023541434427528405  1.0000
  C   C43       1.0  0.4801048636363419  0.6733247355836554  0.109277581076654  1.0000
  C   C44       1.0  0.9801068519211424  0.3266763903115048  0.8907257769134348  1.0000
  C   C45       1.0  0.9643931391777514  0.11905104988413477  0.5654901517130781  1.0000
  C   C46       1.0  0.46439535172519447  0.8809483388352672  0.4345149007204228  1.0000
  S   S1        1.0  0.709748150342385  0.5548498605276108  0.6011342403300262  1.0000
  S   S2        1.0  0.20973813246602901  0.4451487286434173  0.39886312788969036  1.0000
  N   N1        1.0  0.6157839082792264  0.5803652892651313  0.49213606056670045  1.0000
  N   N2        1.0  0.11577944157931339  0.41963121045635876  0.507865433576768  1.0000
  N   N3        1.0  0.5627449052782578  0.6069127510707018  0.2998412505550618  1.0000
  N   N4        1.0  0.062750248453213  0.3930841471837568  0.7001601138485967  1.0000
  N   N5        1.0  0.956193618290101  0.0563678582653679  0.45229682074280936  1.0000
  N   N6        1.0  0.4561966396680006  0.9436306897918311  0.5477055651387204  1.0000
  Cl  Cl1       1.0  0.661447387200873  0.07453409541795958  0.9575695389428914  1.0000
  Cl  Cl2       1.0  0.16145393092281068  0.9254685164490084  0.042431271245355597  1.0000
  O   O1        1.0  0.802813302026408  0.451636462716692  0.5840552429734984  1.0000
  O   O2        1.0  0.3028123930693027  0.5483604867730987  0.41594497583366763  1.0000
  O   O3        1.0  0.7814071668104318  0.5698942631787105  0.3454001074832078  1.0000
  O   O4        1.0  0.2814140317449016  0.43009913665537863  0.6546035247255659  1.0000
  O   O5        1.0  0.6198065380485147  0.5433507013653339  0.7014907006539133  1.0000
  O   O6        1.0  0.11979609852008369  0.45665036823896793  0.2985117405250648  1.0000
  O   O7        1.0  0.001261461315174  0.856418176011168  0.322194982927229  1.0000
  O   O8        1.0  0.5012613847658187  0.14358195448230043  0.6778053882076733  1.0000
  O   O9        1.0  0.8533400961486421  0.21490688746091985  0.36017966946607766  1.0000
  O   O10       1.0  0.3533497797487968  0.785088729330255  0.6398250523336699  1.0000
