data_image0
_chemical_formula_structural       UH10C8O6
_chemical_formula_sum              "U1 H10 C8 O6"
_cell_length_a       5.318004871339457
_cell_length_b       6.776752209279406
_cell_length_c       7.384954475389801
_cell_angle_alpha    89.37675706908794
_cell_angle_beta     90.30229334759834
_cell_angle_gamma    105.06795345706719

_space_group_name_H-M_alt    "P 1"
_space_group_IT_number       1

loop_
  _space_group_symop_operation_xyz
  'x, y, z'

loop_
  _atom_site_type_symbol
  _atom_site_label
  _atom_site_symmetry_multiplicity
  _atom_site_fract_x
  _atom_site_fract_y
  _atom_site_fract_z
  _atom_site_occupancy
  U   U1        1.0  0.9999930342583738  0.9999986736694169  0.9999858254167933  1.0000
  H   H1        1.0  0.19552978878346033  0.4964692583518583  0.6555270598714245  1.0000
  H   H2        1.0  0.8044775853874739  0.5035338550426688  0.3444711657105302  1.0000
  H   H3        1.0  0.7871813423573782  0.5626082362613473  0.6853721494526822  1.0000
  H   H4        1.0  0.2128208447247601  0.4373963624428683  0.3146273506468873  1.0000
  H   H5        1.0  0.5528040556541072  0.38950362135183525  0.8180417698370233  1.0000
  H   H6        1.0  0.44720899850658913  0.6105055753916061  0.18195924271540054  1.0000
  H   H7        1.0  0.363541894174908  0.1965961537265244  0.5438944913693929  1.0000
  H   H8        1.0  0.6364494582556404  0.8034099090739487  0.4561061982488894  1.0000
  H   H9        1.0  0.7013956384934517  0.21200549702496826  0.5629600590250448  1.0000
  H   H10       1.0  0.2986125511465119  0.7879945241662368  0.43704089138000046  1.0000
  C   C1        1.0  0.4098180479932195  0.7547151935633138  0.7934915012074838  1.0000
  C   C2        1.0  0.5901572219420004  0.2452756537937262  0.2065021926516479  1.0000
  C   C3        1.0  0.396271786217909  0.5949961950341347  0.6508631221775758  1.0000
  C   C4        1.0  0.6037361945309385  0.4050085111117239  0.34913104739772644  1.0000
  C   C5        1.0  0.5869411720137164  0.46387999184810974  0.6844596751126628  1.0000
  C   C6        1.0  0.4130642831103017  0.536123092918217  0.31553987601711236  1.0000
  C   C7        1.0  0.5600157137052478  0.3019901407038077  0.5382017875647946  1.0000
  C   C8        1.0  0.4399898042059576  0.6980081728796533  0.4618099599179145  1.0000
  O   O1        1.0  0.9983059179719972  0.18658437182417492  0.8233010555166587  1.0000
  O   O2        1.0  0.0016917374222557347  0.813405204762837  0.1766821416560163  1.0000
  O   O3        1.0  0.21925605007022125  0.8353319949499746  0.8072737184860513  1.0000
  O   O4        1.0  0.7807615563079153  0.16470185250459926  0.1927137887642232  1.0000
  O   O5        1.0  0.6101570327082584  0.807499322968894  0.8957501369253648  1.0000
  O   O6        1.0  0.38982591298048413  0.19246636269168246  0.1042924614674092  1.0000
