data_image0
_chemical_formula_structural       Cu4B4H52C48N32
_chemical_formula_sum              "Cu4 B4 H52 C48 N32"
_cell_length_a       7.584109773065778
_cell_length_b       13.320754527627827
_cell_length_c       14.696727366401259
_cell_angle_alpha    104.6706362243332
_cell_angle_beta     90.00034150298785
_cell_angle_gamma    89.99965778022118

_space_group_name_H-M_alt    "P 1"
_space_group_IT_number       1

loop_
  _space_group_symop_operation_xyz
  'x, y, z'

loop_
  _atom_site_type_symbol
  _atom_site_label
  _atom_site_symmetry_multiplicity
  _atom_site_fract_x
  _atom_site_fract_y
  _atom_site_fract_z
  _atom_site_occupancy
  Cu  Cu1       1.0  0.46937364687052247  0.7914522010153463  0.40903538361637004  1.0000
  Cu  Cu2       1.0  0.9693623536816317  0.708529765207892  0.09097545602290318  1.0000
  Cu  Cu3       1.0  0.5304417158552043  0.20849272385900972  0.5909369935855082  1.0000
  Cu  Cu4       1.0  0.0304398234387051  0.2915175809356896  0.9090510814065668  1.0000
  B   B1        1.0  0.4728453185294086  0.7717212883317331  0.6185051035608283  1.0000
  B   B2        1.0  0.9728410603994249  0.7282683449287575  0.8815016217092833  1.0000
  B   B3        1.0  0.5270768474965308  0.22832132062310956  0.3817305961334156  1.0000
  B   B4        1.0  0.027104837131318504  0.27169683975818515  0.11825767678833901  1.0000
  H   H1        1.0  0.1513519176799676  0.6802384761591467  0.28245708552409343  1.0000
  H   H2        1.0  0.6513278885174855  0.8197297987549276  0.21754823736527126  1.0000
  H   H3        1.0  0.8493996081153768  0.32053305269022303  0.7172970311365532  1.0000
  H   H4        1.0  0.3493788162667002  0.17947464236996782  0.7826975797505826  1.0000
  H   H5        1.0  0.369323639801145  0.9782971773403234  0.31297513156028606  1.0000
  H   H6        1.0  0.8693519654178489  0.52168356287779  0.18704803697104208  1.0000
  H   H7        1.0  0.6303084410148543  0.0227947191251872  0.6871785416648706  1.0000
  H   H8        1.0  0.1302735305283846  0.477208273826335  0.812801365280997  1.0000
  H   H9        1.0  0.13698852642694706  0.933371129817708  0.16014209764176002  1.0000
  H   H10       1.0  0.637045861084168  0.566621241920828  0.3398864093948717  1.0000
  H   H11       1.0  0.8634043562271216  0.06768813769618728  0.8400959343251131  1.0000
  H   H12       1.0  0.3634287781719223  0.4323264897807563  0.6599139229316366  1.0000
  H   H13       1.0  0.9052376154105845  0.7772371219003275  0.40231495644820825  1.0000
  H   H14       1.0  0.4052156954983984  0.7227605754058501  0.09770269754594102  1.0000
  H   H15       1.0  0.094244154187038  0.22302751404205165  0.5977431523664336  1.0000
  H   H16       1.0  0.5942410235020431  0.27695774346000235  0.9022495743665858  1.0000
  H   H17       1.0  0.08791127960750339  0.7534045947390099  0.556985782182295  1.0000
  H   H18       1.0  0.5878943651979682  0.7465901880898899  0.9430317921845771  1.0000
  H   H19       1.0  0.9118104660545328  0.24642630009745395  0.44284879597417165  1.0000
  H   H20       1.0  0.4118629817333924  0.253583594229994  0.05716193210151489  1.0000
  H   H21       1.0  0.8267699845434251  0.7553976070115097  0.6887389044867973  1.0000
  H   H22       1.0  0.32675817596940965  0.7445855226547662  0.8112733471517474  1.0000
  H   H23       1.0  0.17320624112006297  0.24450074717196196  0.3112486249510695  1.0000
  H   H24       1.0  0.6732800205645263  0.25555262282670554  0.1887563695610268  1.0000
  H   H25       1.0  0.2123637556505784  0.0005898830130916997  0.4726064377810816  1.0000
  H   H26       1.0  0.7123610890120277  0.4994090322804965  0.027398412237992872  1.0000
  H   H27       1.0  0.7880212198561908  0.9992867134598027  0.5274509379676005  1.0000
  H   H28       1.0  0.2880594854237018  0.5007206147270722  0.9725300098858014  1.0000
  H   H29       1.0  0.0932153900438237  0.0633149067117103  0.6560487796199936  1.0000
  H   H30       1.0  0.5932141739080095  0.43668664904617316  0.8439510920697018  1.0000
  H   H31       1.0  0.9066909518215028  0.9367557430705064  0.34392187611127406  1.0000
  H   H32       1.0  0.40671326555953163  0.5632357551742898  0.1560582952782141  1.0000
  H   H33       1.0  0.2562121351289122  0.9262963643785155  0.742299236679365  1.0000
  H   H34       1.0  0.75621574691354  0.5737048513630826  0.7577053809482734  1.0000
  H   H35       1.0  0.7433039180806915  0.0738541255315894  0.25792179387588027  1.0000
  H   H36       1.0  0.2433042606168172  0.426146253278965  0.2420474282433105  1.0000
  H   H37       1.0  0.2253405980571301  0.5382985987599511  0.36715960536361797  1.0000
  H   H38       1.0  0.7253183424413194  0.9616958224091332  0.13283427088558136  1.0000
  H   H39       1.0  0.7747608885374149  0.4618814533978933  0.632873619745908  1.0000
  H   H40       1.0  0.274779189672259  0.0381295891939857  0.8671303693246273  1.0000
  H   H41       1.0  0.16265547712480813  0.4526244418181875  0.5165018283591323  1.0000
  H   H42       1.0  0.6626644815150655  0.0473730075202212  0.9834884743039893  1.0000
  H   H43       1.0  0.8374262313584352  0.5474089700374734  0.48343237126902494  1.0000
  H   H44       1.0  0.33738953850653536  0.952578871167347  0.016563069880838523  1.0000
  H   H45       1.0  0.312856581997849  0.5958283968069293  0.667064302092399  1.0000
  H   H46       1.0  0.8128845333345183  0.904161769712644  0.8329318318492298  1.0000
  H   H47       1.0  0.6872304017569633  0.40405908155760534  0.33295066639034593  1.0000
  H   H48       1.0  0.18719849368822142  0.095929830941202  0.1670463613444113  1.0000
  H   H49       1.0  0.4810735081636324  0.7711914943922336  0.7004213417843133  1.0000
  H   H50       1.0  0.9810775585830457  0.7287973377162159  0.7995797820732379  1.0000
  H   H51       1.0  0.5189712831242446  0.22868272484906524  0.2997647675155335  1.0000
  H   H52       1.0  0.0189830519018699  0.2713657266852536  0.20023044198406137  1.0000
  C   C1        1.0  0.17802703334060513  0.7559624081108752  0.2707208364263849  1.0000
  C   C2        1.0  0.6780024753426731  0.7440081060390114  0.22928644662182757  1.0000
  C   C3        1.0  0.8223777151594334  0.24493555741434397  0.7292004667267094  1.0000
  C   C4        1.0  0.3223640440957852  0.2550683485786962  0.7707891049937674  1.0000
  C   C5        1.0  0.28958073222541003  0.9099344729877715  0.28425712994071267  1.0000
  C   C6        1.0  0.7896008735365356  0.5900403243503973  0.2157610175097915  1.0000
  C   C7        1.0  0.7104811960975469  0.0909113832246575  0.7159570253036025  1.0000
  C   C8        1.0  0.21046633402611556  0.4091022056402166  0.7840330561315696  1.0000
  C   C9        1.0  0.17404937671364  0.8884748255818593  0.20908098534602707  1.0000
  C   C10       1.0  0.6740767653911064  0.6115104400297326  0.2909446450585946  1.0000
  C   C11       1.0  0.8260125511047819  0.11228339492058131  0.7909749011275906  1.0000
  C   C12       1.0  0.3260207692961216  0.3877267044522413  0.7090229099236396  1.0000
  C   C13       1.0  0.8557028628874692  0.7744479916540428  0.47083070244652  1.0000
  C   C14       1.0  0.35569465602284106  0.7255467675981035  0.029180675720603136  1.0000
  C   C15       1.0  0.14393053975247483  0.22579956060098982  0.5292527381964831  1.0000
  C   C16       1.0  0.6439321551498196  0.27420570895292684  0.9707440654623981  1.0000
  C   C17       1.0  0.9473476033739774  0.7620327000101736  0.5500764693417253  1.0000
  C   C18       1.0  0.4473347669721194  0.7379647756161348  0.9499374209492119  1.0000
  C   C19       1.0  0.052391283285587106  0.23799526647430727  0.44989254059463246  1.0000
  C   C20       1.0  0.5524278541805786  0.262018146486767  0.0501144537619567  1.0000
  C   C21       1.0  0.8178443100444425  0.7633822447798196  0.6172863838759852  1.0000
  C   C22       1.0  0.3178373260686768  0.7365970362068879  0.8827201918804237  1.0000
  C   C23       1.0  0.18203697989823553  0.23667828760326157  0.3827581538117429  1.0000
  C   C24       1.0  0.6820742904158764  0.2633641896500052  0.1172430041513621  1.0000
  C   C25       1.0  0.2442462808146573  0.9700028335631785  0.532282392935528  1.0000
  C   C26       1.0  0.7442302074038238  0.5299960940429572  0.9677209803531711  1.0000
  C   C27       1.0  0.7559013564367093  0.029971514095379296  0.4678654925817157  1.0000
  C   C28       1.0  0.2559306133010395  0.4700427869339022  0.032117856304317564  1.0000
  C   C29       1.0  0.18491379210956893  0.0015794672430687001  0.625691695541633  1.0000
  C   C30       1.0  0.6849097418321437  0.49841790506152966  0.8743075055204912  1.0000
  C   C31       1.0  0.8150228771828337  0.9984608652687968  0.37440943748791966  1.0000
  C   C32       1.0  0.31505329749560934  0.5015441284143236  0.1255735449622577  1.0000
  C   C33       1.0  0.26632890751201893  0.9340388391684158  0.67083531346389  1.0000
  C   C34       1.0  0.7663228379342257  0.5659561355751989  0.8291665409259537  1.0000
  C   C35       1.0  0.7333981134322086  0.0660169750782558  0.3293700803549982  1.0000
  C   C36       1.0  0.233417366532052  0.433995073190367  0.1706106380592232  1.0000
  C   C37       1.0  0.2639676966427942  0.566958068124606  0.44023454445777344  1.0000
  C   C38       1.0  0.7639580579864215  0.9330338961399391  0.05976161134607589  1.0000
  C   C39       1.0  0.7361153305444077  0.4331792960358102  0.5598086012146766  1.0000
  C   C40       1.0  0.2361183771459636  0.0668326517723088  0.9401920711644678  1.0000
  C   C41       1.0  0.23143318139737093  0.524060488660318  0.5168408215996935  1.0000
  C   C42       1.0  0.7314450485962851  0.975934605448579  0.9831507431869329  1.0000
  C   C43       1.0  0.7686696240882966  0.4759845428458219  0.4831491218426791  1.0000
  C   C44       1.0  0.2686485275486988  0.024013412256827803  0.0168502427019206  1.0000
  C   C45       1.0  0.3063939775731511  0.5946912212416605  0.5930919436925849  1.0000
  C   C46       1.0  0.8064121984055531  0.9052974146622929  0.9069038179229736  1.0000
  C   C47       1.0  0.6937088284304879  0.40528782785582246  0.406939309075689  1.0000
  C   C48       1.0  0.1936826957963262  0.09471348010846009  0.09305854700748029  1.0000
  N   N1        1.0  0.29094732832044207  0.825481776282025  0.3226799302341306  1.0000
  N   N2        1.0  0.7909438900948443  0.6744914666531869  0.1773324208513927  1.0000
  N   N3        1.0  0.7094547840865886  0.17543163736761613  0.6774320401123504  1.0000
  N   N4        1.0  0.20943581376005233  0.32457497397317076  0.8225482692157726  1.0000
  N   N5        1.0  0.10420240192476629  0.7912867545053854  0.20134169177409686  1.0000
  N   N6        1.0  0.6042118910771563  0.7086948645692388  0.29867675504312535  1.0000
  N   N7        1.0  0.8960704918541609  0.2095173402222414  0.7984906733425774  1.0000
  N   N8        1.0  0.39607156005109095  0.2904894251515699  0.7015018306947951  1.0000
  N   N9        1.0  0.6821110320815436  0.7831448432085965  0.48935890045086694  1.0000
  N   N10       1.0  0.1820987378710868  0.7168473861510591  0.010652025894891906  1.0000
  N   N11       1.0  0.317586979453452  0.2172594208734395  0.5108687473394511  1.0000
  N   N12       1.0  0.8175834520755741  0.28274838151789083  0.9891203439244691  1.0000
  N   N13       1.0  0.6594773982215827  0.7763126472807613  0.5791707614567869  1.0000
  N   N14       1.0  0.1594656789728575  0.7236772450465594  0.920839792096615  1.0000
  N   N15       1.0  0.3403590610614772  0.22397831680763866  0.4210376491659247  1.0000
  N   N16       1.0  0.8403813288246768  0.27604811854094186  0.0789548805114819  1.0000
  N   N17       1.0  0.35511654234465345  0.8892627568544641  0.5221960071760706  1.0000
  N   N18       1.0  0.8551077911074999  0.6107303715666177  0.9778070653804251  1.0000
  N   N19       1.0  0.6449097895213071  0.11068670374389458  0.478089046903527  1.0000
  N   N20       1.0  0.1449462264958044  0.3893287400149176  0.021895573353056374  1.0000
  N   N21       1.0  0.36910425283547005  0.8677465151932181  0.607564582518613  1.0000
  N   N22       1.0  0.8690956777966221  0.6322488947055331  0.892439739230305  1.0000
  N   N23       1.0  0.6306939703506202  0.13225881808526913  0.3927339937708823  1.0000
  N   N24       1.0  0.1307196830898079  0.3677558967218458  0.1072504138193509  1.0000
  N   N25       1.0  0.3529746089566146  0.6567107999469569  0.46739951897726684  1.0000
  N   N26       1.0  0.8529641281770353  0.8432785394249366  0.03260243970552778  1.0000
  N   N27       1.0  0.6470741364500157  0.34343119019275997  0.5327229386239694  1.0000
  N   N28       1.0  0.14709516545437404  0.1565864842668958  0.9672787675362005  1.0000
  N   N29       1.0  0.3785087152344033  0.6729937840240509  0.5617085750552349  1.0000
  N   N30       1.0  0.87851610116941  0.8269961624132309  0.9382952012216776  1.0000
  N   N31       1.0  0.6215598087619726  0.32705275004556705  0.43841031375782086  1.0000
  N   N32       1.0  0.1215642888446595  0.17295733216268866  0.061590691046013994  1.0000
