data_image0
_chemical_formula_structural       Gd2H32C54N4O14
_chemical_formula_sum              "Gd2 H32 C54 N4 O14"
_cell_length_a       10.550355075157745
_cell_length_b       10.716617593544756
_cell_length_c       11.8168
_cell_angle_alpha    76.85980073437842
_cell_angle_beta     83.01916535831684
_cell_angle_gamma    65.83007190405601

_space_group_name_H-M_alt    "P 1"
_space_group_IT_number       1

loop_
  _space_group_symop_operation_xyz
  'x, y, z'

loop_
  _atom_site_type_symbol
  _atom_site_label
  _atom_site_symmetry_multiplicity
  _atom_site_fract_x
  _atom_site_fract_y
  _atom_site_fract_z
  _atom_site_occupancy
  Gd  Gd1       1.0  0.9894604389695517  0.25134823415594804  0.0999647393844114  1.0000
  Gd  Gd2       1.0  0.01053885709882969  0.7486500861282435  0.9000373758114008  1.0000
  H   H1        1.0  0.21236871037881141  0.40579676750633803  0.9660510503250277  1.0000
  H   H2        1.0  0.7876307194241932  0.5942036388630639  0.03394977402007984  1.0000
  H   H3        1.0  0.4601680323956928  0.361110736334318  0.9273851718031877  1.0000
  H   H4        1.0  0.5398313974073192  0.6388896700350841  0.07261480628913121  1.0000
  H   H5        1.0  0.6419515421228965  0.1400524593520629  0.03623366792856333  1.0000
  H   H6        1.0  0.35804788768011525  0.8599479470173392  0.9637663101637486  1.0000
  H   H7        1.0  0.6931032483941664  0.9143280161360678  0.1736223934205512  1.0000
  H   H8        1.0  0.30689850182730544  0.0856713471907327  0.8263783941748812  1.0000
  H   H9        1.0  0.6094745444581591  0.7493437094588344  0.31210728325394393  1.0000
  H   H10       1.0  0.3905258402591585  0.25065669691056053  0.6878925912189188  1.0000
  H   H11       1.0  0.40916355715939556  0.6939320712063334  0.4131624093609645  1.0000
  H   H12       1.0  0.590835462053775  0.3060693782056632  0.5868373982421176  1.0000
  H   H13       1.0  0.1511554084200597  0.769372213510124  0.4466750688466163  1.0000
  H   H14       1.0  0.8488444319727861  0.2306271498166694  0.5533250797349254  1.0000
  H   H15       1.0  0.9932071102666314  0.9997990991471325  0.3320213349371456  1.0000
  H   H16       1.0  0.0067940956303758  0.0001992211370592  0.6679797267669655  1.0000
  H   H17       1.0  0.6982024527703388  0.1333310928221962  0.40458183137304354  1.0000
  H   H18       1.0  0.3017986193920308  0.8666651413767922  0.5954179824233989  1.0000
  H   H19       1.0  0.4730724369290797  0.11664241118379688  0.48772393401704756  1.0000
  H   H20       1.0  0.5269268591393086  0.883355909100402  0.5122764886731801  1.0000
  H   H21       1.0  0.2506803498902457  0.4634718082060445  0.2217796029951059  1.0000
  H   H22       1.0  0.7493196242372308  0.536529641205952  0.7782209472413155  1.0000
  H   H23       1.0  0.4745772808191262  0.4774152017149333  0.1391164259564945  1.0000
  H   H24       1.0  0.5254221489838854  0.5225852046544688  0.8608852446414017  1.0000
  H   H25       1.0  0.23188531563558004  0.49764292690327483  0.46894131318047266  1.0000
  H   H26       1.0  0.768116845175733  0.5023553933809168  0.5310587986514007  1.0000
  H   H27       1.0  0.12961140140123462  0.5726679382513068  0.6571125329453124  1.0000
  H   H28       1.0  0.870389938230403  0.4273324681180881  0.3428863916552984  1.0000
  H   H29       1.0  0.013529836980055205  0.2217352116312128  0.7577048795745114  1.0000
  H   H30       1.0  0.9864705477372625  0.7782651947381891  0.24229414864556278  1.0000
  H   H31       1.0  0.11376248213092309  0.1477209085649065  0.5670029489268913  1.0000
  H   H32       1.0  0.8862369476720886  0.8522794978044955  0.4329970291654206  1.0000
  C   C1        1.0  0.2907303650606252  0.3093184559121411  0.010325802067654894  1.0000
  C   C2        1.0  0.7092696090668512  0.6906829934998625  0.9896747481687739  1.0000
  C   C3        1.0  0.4323869796071237  0.2834353537335872  0.9890346759476996  1.0000
  C   C4        1.0  0.5676128607857293  0.7165640095932133  0.01096547263384911  1.0000
  C   C5        1.0  0.5310492900928168  0.16297749271021186  0.04797072428676328  1.0000
  C   C6        1.0  0.4689509608898705  0.8370208275739798  0.9520279022784236  1.0000
  C   C7        1.0  0.4865923553891704  0.06764026972304289  0.12771156023281094  1.0000
  C   C8        1.0  0.5134084399179885  0.9323590936037575  0.8722884847292817  1.0000
  C   C9        1.0  0.5824395323162292  0.9388885402947763  0.19036162099821038  1.0000
  C   C10       1.0  0.4175612629909295  0.061110823032016995  0.8096375777110864  1.0000
  C   C11       1.0  0.5361005124292362  0.8483931210679501  0.2660012995383453  1.0000
  C   C12       1.0  0.4639002828779227  0.15160624225884325  0.7339987454237473  1.0000
  C   C13       1.0  0.39031685811260536  0.8813084164718887  0.2864072206338334  1.0000
  C   C14       1.0  0.6096829822802476  0.11869094685490468  0.7135929279477152  1.0000
  C   C15       1.0  0.3370621748772679  0.792858403788365  0.3656633227625861  1.0000
  C   C16       1.0  0.6629368443359027  0.20714304562363844  0.6343356385877073  1.0000
  C   C17       1.0  0.19500270398410896  0.8338249450402273  0.3839510484928325  1.0000
  C   C18       1.0  0.8049953603147488  0.1661765043717693  0.6160488627296984  1.0000
  C   C19       1.0  0.106111845149087  0.962174466393364  0.32066731873847937  1.0000
  C   C20       1.0  0.8938875846539177  0.037825939976038093  0.6793335056066212  1.0000
  C   C21       1.0  0.2922345906284392  0.0088220543310982  0.22588314001345816  1.0000
  C   C22       1.0  0.707766615268568  0.9911762659530936  0.774117921690653  1.0000
  C   C23       1.0  0.3412766768736688  0.1023068336564066  0.1436944048988309  1.0000
  C   C24       1.0  0.6587227529293428  0.8976935727129883  0.8563055731934809  1.0000
  C   C25       1.0  0.9266078025393014  0.0101738375438103  0.026846517906165004  1.0000
  C   C26       1.0  0.07339312650248793  0.9898276118681935  0.9731556212163923  1.0000
  C   C27       1.0  0.7344716936851938  0.31323299479894456  0.21795904709134112  1.0000
  C   C28       1.0  0.2655291016219651  0.6867663685278486  0.7820418441235475  1.0000
  C   C29       1.0  0.5997154163489925  0.3084558596799525  0.2688468667498256  1.0000
  C   C30       1.0  0.40028524522354303  0.6915414175616377  0.7311527765573869  1.0000
  C   C31       1.0  0.5994318778628555  0.2056786138098659  0.36630687775917176  1.0000
  C   C32       1.0  0.400567418205526  0.7943197064743257  0.6336926986782528  1.0000
  C   C33       1.0  0.47533818383077897  0.19579995732253505  0.4119518564499741  1.0000
  C   C34       1.0  0.5246615228274437  0.8041973199190549  0.5880478904766875  1.0000
  C   C35       1.0  0.3508454568128272  0.28961016593979133  0.35961166468113953  1.0000
  C   C36       1.0  0.6491547941698671  0.7103881543444002  0.6403869618840472  1.0000
  C   C37       1.0  0.34844652370784956  0.3922664188680045  0.26223495891601795  1.0000
  C   C38       1.0  0.6515523617706974  0.6077329444587889  0.7377652932849726  1.0000
  C   C39       1.0  0.4737609527461403  0.4004897667453235  0.2170289701999194  1.0000
  C   C40       1.0  0.5262388876467058  0.5995095965814699  0.7829711783816221  1.0000
  C   C41       1.0  0.17732562713079147  0.31860466420130956  0.5084590519181375  1.0000
  C   C42       1.0  0.822674346996685  0.681396785210694  0.4915398058126995  1.0000
  C   C43       1.0  0.18408605610204634  0.4377399472048395  0.5327064854472567  1.0000
  C   C44       1.0  0.8159147392051125  0.5622594161219538  0.4672935595148359  1.0000
  C   C45       1.0  0.12708461535332558  0.4792426123543336  0.6371315058779601  1.0000
  C   C46       1.0  0.8729139932700037  0.5207598801002646  0.3628672849831033  1.0000
  C   C47       1.0  0.06513193753627183  0.4016861366102802  0.7185949434453464  1.0000
  C   C48       1.0  0.9348651718482801  0.5983153128017236  0.28140422514384505  1.0000
  C   C49       1.0  0.05980377917689591  0.28231095380819937  0.6931338066821979  1.0000
  C   C50       1.0  0.9401938745321274  0.717691538646406  0.3068650877983075  1.0000
  C   C51       1.0  0.11500011981169678  0.2409449272396103  0.588287498292523  1.0000
  C   C52       1.0  0.8849975338973197  0.7590575652149878  0.4117105499351936  1.0000
  C   C53       1.0  0.009414398832220195  0.44449990631099456  0.83213745018746  1.0000
  C   C54       1.0  0.9905848878502039  0.5555057152714156  0.16786062196700874  1.0000
  N   N1        1.0  0.24540085106532672  0.2217748472501029  0.08490294056761628  1.0000
  N   N2        1.0  0.754599533651998  0.7782255591192921  0.9150986264108312  1.0000
  N   N3        1.0  0.1525436291047271  0.04667302732959659  0.24311163469305797  1.0000
  N   N4        1.0  0.8474562112881187  0.953326335997204  0.7568885138884838  1.0000
  O   O1        1.0  0.8462047897612095  0.2374079697748783  0.2743828014558431  1.0000
  O   O2        1.0  0.15379600554594933  0.7625913935519222  0.7256172435062493  1.0000
  O   O3        1.0  0.7382307888411788  0.3875101446010589  0.11754536104304236  1.0000
  O   O4        1.0  0.261768640961833  0.6124902617683361  0.8824563095548539  1.0000
  O   O5        1.0  0.2278980148973844  0.2751045724682157  0.40451639361835845  1.0000
  O   O6        1.0  0.7721012811709969  0.724893747815976  0.5954840290718693  1.0000
  O   O7        1.0  0.011260363447135484  0.5568950480178144  0.848239899799587  1.0000
  O   O8        1.0  0.9887398875355589  0.4431032722663772  0.15175872676559973  1.0000
  O   O9        1.0  0.9634952840769131  0.3665481174206277  0.9085226818257082  1.0000
  O   O10       1.0  0.03650182530763859  0.633453331991376  0.0914781792690675  1.0000
  O   O11       1.0  0.8742156352929912  0.9295585242163114  0.008980614038300364  1.0000
  O   O12       1.0  0.1257861149284807  0.070440839110482  0.9910176347987586  1.0000
  O   O13       1.0  0.8705173257401173  0.10655827530379008  0.08455633184844658  1.0000
  O   O14       1.0  0.12948374642225244  0.8934379588951982  0.915451098223123  1.0000
