data_image0
_chemical_formula_structural       Cu2H28C22N10Cl2O2
_chemical_formula_sum              "Cu2 H28 C22 N10 Cl2 O2"
_cell_length_a       6.6853776944720185
_cell_length_b       10.685951634454588
_cell_length_c       10.685907275974492
_cell_angle_alpha    102.27863851782949
_cell_angle_beta     107.95211658588181
_cell_angle_gamma    107.95139064579845

_space_group_name_H-M_alt    "P 1"
_space_group_IT_number       1

loop_
  _space_group_symop_operation_xyz
  'x, y, z'

loop_
  _atom_site_type_symbol
  _atom_site_label
  _atom_site_symmetry_multiplicity
  _atom_site_fract_x
  _atom_site_fract_y
  _atom_site_fract_z
  _atom_site_occupancy
  Cu  Cu1       1.0  0.3797098713190152  0.8685203204281465  0.7860772762699924  1.0000
  Cu  Cu2       1.0  0.8797059420512883  0.7860694492152406  0.868513025243942  1.0000
  H   H1        1.0  0.03921800323422542  0.8581664361006962  0.5999755784097047  1.0000
  H   H2        1.0  0.5392192240982469  0.5999656686848384  0.8581550418107398  1.0000
  H   H3        1.0  0.6410538210199734  0.8326955538865806  0.2113811934907659  1.0000
  H   H4        1.0  0.14105030742991428  0.2113698168181344  0.8326852840165273  1.0000
  H   H5        1.0  0.7988699060694344  0.021959499166307204  0.4370489758385645  1.0000
  H   H6        1.0  0.29886621499053234  0.43704009246902603  0.02195403937627561  1.0000
  H   H7        1.0  0.8333793471364218  0.3258258861578867  0.22728707458362143  1.0000
  H   H8        1.0  0.3333684095742768  0.2272805858131548  0.32581938579568964  1.0000
  H   H9        1.0  0.7651887642569761  0.2633781417159754  0.9931021068336745  1.0000
  H   H10       1.0  0.26518740643287225  0.9930948769391108  0.26338173364683826  1.0000
  H   H11       1.0  0.7101710049339048  0.09214113543693261  0.6934648456492595  1.0000
  H   H12       1.0  0.21017258366210717  0.6934621438870396  0.09214233682362766  1.0000
  H   H13       1.0  0.6955787291241079  0.2454281247944436  0.7849181690916109  1.0000
  H   H14       1.0  0.19556338033837062  0.7849091444992882  0.24542241074875903  1.0000
  H   H15       1.0  0.25437989052633003  0.1210482011595033  0.6576369533772706  1.0000
  H   H16       1.0  0.7543746287314619  0.6576234787681444  0.12103694021599408  1.0000
  H   H17       1.0  0.40820156563738413  0.16203616992925873  0.5535785686319485  1.0000
  H   H18       1.0  0.9082028586574468  0.553567613927875  0.16202656634651896  1.0000
  H   H19       1.0  0.11715656940835119  0.9302887394648139  0.4253549551430282  1.0000
  H   H20       1.0  0.6171611221689235  0.42534662967803194  0.9302754274381185  1.0000
  H   H21       1.0  0.38772171762855817  0.9174438283792483  0.4848951947357491  1.0000
  H   H22       1.0  0.8877299602101447  0.4848867790886971  0.9174344945795595  1.0000
  H   H23       1.0  0.9478677665021422  0.6854236399537897  0.38780594891045433  1.0000
  H   H24       1.0  0.44788088204941096  0.3878015955918742  0.6854112665613883  1.0000
  H   H25       1.0  0.006538119698262841  0.6246014005358378  0.5322645336820031  1.0000
  H   H26       1.0  0.5065474470677103  0.5322640122147179  0.624589960089878  1.0000
  H   H27       1.0  0.22012829284935262  0.6761386234838868  0.46492111991510393  1.0000
  H   H28       1.0  0.7201420956181439  0.4649197546761955  0.6761326990829133  1.0000
  C   C1        1.0  0.6371313558751411  0.9669496863330028  0.08561583370970992  1.0000
  C   C2        1.0  0.1371216677786933  0.08560480693674322  0.9669387024411549  1.0000
  C   C3        1.0  0.6827230753258461  0.9405906952477423  0.21436601634852062  1.0000
  C   C4        1.0  0.182724404041359  0.2143606920997528  0.9405889062923477  1.0000
  C   C5        1.0  0.7723465409785675  0.047173754994588514  0.34118484823080303  1.0000
  C   C6        1.0  0.2723395517225598  0.3411739046566425  0.047163377794106516  1.0000
  C   C7        1.0  0.8243807149303495  0.18626929830261932  0.34555513770783347  1.0000
  C   C8        1.0  0.3243752590182041  0.3455525315015535  0.18626569117800773  1.0000
  C   C9        1.0  0.789096794891222  0.21755879536300432  0.22351842287984172  1.0000
  C   C10       1.0  0.2890861814962307  0.2235119215208101  0.2175476443284978  1.0000
  C   C11       1.0  0.6950560817424789  0.11017322152238765  0.09289683809885935  1.0000
  C   C12       1.0  0.19504500246976872  0.09289385478964363  0.11016793438743379  1.0000
  C   C13       1.0  0.6768100582206671  0.15078769236328077  0.9715282485015846  1.0000
  C   C14       1.0  0.1768135762548086  0.9715299850772258  0.1507914998465978  1.0000
  C   C15       1.0  0.6014768765970969  0.13117095585229072  0.735850285158122  1.0000
  C   C16       1.0  0.10147469409642461  0.7358455099967788  0.13116578532194723  1.0000
  C   C17       1.0  0.3737640588197806  0.09500716846848434  0.6162241432800996  1.0000
  C   C18       1.0  0.8737693937305979  0.6162168026824023  0.095000474943518  1.0000
  C   C19       1.0  0.26233094708207716  0.9439207837351873  0.5193190659501852  1.0000
  C   C20       1.0  0.7623377993392282  0.5193092295013884  0.943912749700736  1.0000
  C   C21       1.0  0.082174254075234  0.6984247740661619  0.48621146049229225  1.0000
  C   C22       1.0  0.582182115451367  0.4862055339638474  0.6984102468286153  1.0000
  N   N1        1.0  0.5744069684555768  0.0691658803223021  0.8418814213515374  1.0000
  N   N2        1.0  0.07440179315393908  0.8418765939431201  0.06916222860875376  1.0000
  N   N3        1.0  0.17590020736940198  0.8426335538927249  0.5847861661540961  1.0000
  N   N4        1.0  0.6759040571010645  0.5847767319648087  0.8426252059169669  1.0000
  N   N5        1.0  0.11371076261755768  0.7012458974452471  0.7725778740268936  1.0000
  N   N6        1.0  0.6136981807195171  0.7725749842127956  0.7012486293360637  1.0000
  N   N7        1.0  0.16176590976384383  0.6103079260082255  0.8052497633644505  1.0000
  N   N8        1.0  0.6617524865940824  0.8052478422445123  0.6102997881822249  1.0000
  N   N9        1.0  0.20508458903346155  0.5198759222259215  0.836763054225152  1.0000
  N   N10       1.0  0.705062098066904  0.8367572141997146  0.5198743620688118  1.0000
  Cl  Cl1       1.0  0.9349829643751948  0.31711541734753024  0.5071391507709891  1.0000
  Cl  Cl2       1.0  0.43496917036100075  0.5071351401209727  0.31711371338652583  1.0000
  O   O1        1.0  0.5515659999397329  0.8625197693008104  0.9689426997587203  1.0000
  O   O2        1.0  0.05155402956565813  0.9689319830995664  0.8625092757302681  1.0000
