data_image0
_chemical_formula_structural       Ni4H48C40N8O20
_chemical_formula_sum              "Ni4 H48 C40 N8 O20"
_cell_length_a       7.250808707
_cell_length_b       9.09774969277206
_cell_length_c       17.99
_cell_angle_alpha    90.04358075852286
_cell_angle_beta     90.0
_cell_angle_gamma    90.0

_space_group_name_H-M_alt    "P 1"
_space_group_IT_number       1

loop_
  _space_group_symop_operation_xyz
  'x, y, z'

loop_
  _atom_site_type_symbol
  _atom_site_label
  _atom_site_symmetry_multiplicity
  _atom_site_fract_x
  _atom_site_fract_y
  _atom_site_fract_z
  _atom_site_occupancy
  Ni  Ni1       1.0  0.5352051277057654  0.1274590282874399  0.8622685945789712  1.0000
  Ni  Ni2       1.0  0.0360180513034152  0.8724335757832764  0.6376674397078618  1.0000
  Ni  Ni3       1.0  0.4640599602016238  0.872497327830466  0.1375813052533985  1.0000
  Ni  Ni4       1.0  0.9644551777029804  0.1276667720274389  0.3623448279078616  1.0000
  H   H1        1.0  0.7724021176552611  0.3152066089299268  0.9743569332814772  1.0000
  H   H2        1.0  0.275596844538299  0.6828272932130943  0.5264555400149575  1.0000
  H   H3        1.0  0.2251721243761153  0.6837341111257801  0.0262163112867668  1.0000
  H   H4        1.0  0.7259535056990742  0.31617937723626  0.47378921407951674  1.0000
  H   H5        1.0  0.8040675510266198  0.5861758921459668  0.9982588291925296  1.0000
  H   H6        1.0  0.304450177794493  0.411590910902774  0.5025735524793474  1.0000
  H   H7        1.0  0.19521960338485664  0.4126021502720718  0.0022176324002173993  1.0000
  H   H8        1.0  0.6955844794430845  0.5872860571057359  0.49777954527599627  1.0000
  H   H9        1.0  0.624060043899874  0.7618204763804641  0.9188605779709035  1.0000
  H   H10       1.0  0.1205355202870351  0.2372906155255023  0.5813119539221461  1.0000
  H   H11       1.0  0.3777316587259989  0.2377203922574509  0.0811514744366022  1.0000
  H   H12       1.0  0.8776483089198663  0.7623282944115672  0.41877794951624736  1.0000
  H   H13       1.0  0.430298208941565  0.6620386299614225  0.8158249753929567  1.0000
  H   H14       1.0  0.927292426499811  0.3384464284789175  0.6841485296990015  1.0000
  H   H15       1.0  0.5715638306660935  0.3382057095420947  0.1839372086442452  1.0000
  H   H16       1.0  0.071512023134666  0.6620342332685141  0.31595838115031677  1.0000
  H   H17       1.0  0.3051287227953097  0.4420544969028768  0.7508581999510042  1.0000
  H   H18       1.0  0.8061707646978462  0.558595437521582  0.749731266282808  1.0000
  H   H19       1.0  0.6950341959973017  0.5586064292538566  0.24917929719235593  1.0000
  H   H20       1.0  0.19511340833391702  0.4415730590292312  0.2506529008098113  1.0000
  H   H21       1.0  0.5117401589174193  0.3437213607976802  0.7304107032694134  1.0000
  H   H22       1.0  0.0131088825868844  0.6572143586659323  0.769407333149637  1.0000
  H   H23       1.0  0.4881483077305546  0.6567054414616038  0.2694710617929346  1.0000
  H   H24       1.0  0.9882607981482394  0.3433630303255129  0.2304850512601391  1.0000
  H   H25       1.0  0.040396873209083105  0.2021698325604859  0.8162934416476588  1.0000
  H   H26       1.0  0.5407479577022585  0.7979250193840954  0.6836159889457532  1.0000
  H   H27       1.0  0.9593674693533744  0.798694440643338  0.1834100592289758  1.0000
  H   H28       1.0  0.4598052623814723  0.20217642759984503  0.31646187108832885  1.0000
  H   H29       1.0  0.140609143227806  0.3601946699581902  0.8549895801620977  1.0000
  H   H30       1.0  0.6413919037072731  0.6399045786792925  0.6450032317778991  1.0000
  H   H31       1.0  0.8592034698123499  0.6403673306080719  0.14490557765024187  1.0000
  H   H32       1.0  0.3590551213255182  0.3600407857063388  0.3551334898408598  1.0000
  H   H33       1.0  0.4102232068442859  0.1338803982824857  0.6943127544389185  1.0000
  H   H34       1.0  0.911125953939745  0.867041031929169  0.8054841536376287  1.0000
  H   H35       1.0  0.5892197922523437  0.8671597426377389  0.3054252776775428  1.0000
  H   H36       1.0  0.0893141753105127  0.1330999852909613  0.19455981389095459  1.0000
  H   H37       1.0  0.1676033735142894  0.1413965448121175  0.7065702314669338  1.0000
  H   H38       1.0  0.6684826749491606  0.8590654309904411  0.7935583509050873  1.0000
  H   H39       1.0  0.8318479005213675  0.859377596187052  0.293341683878019  1.0000
  H   H40       1.0  0.3319436627360446  0.1407403383953039  0.20656997905179253  1.0000
  H   H41       1.0  0.8414109717320386  0.0736973665572904  0.9365636456796339  1.0000
  H   H42       1.0  0.3425631678301002  0.9258808739703639  0.563326686806441  1.0000
  H   H43       1.0  0.1576169012563611  0.9260545433403067  0.0631877875175064  1.0000
  H   H44       1.0  0.6579486775584584  0.07382267230521931  0.43665207631419634  1.0000
  H   H45       1.0  0.6893093173420581  0.9732200665322495  0.9744171585803443  1.0000
  H   H46       1.0  0.1905208171698618  0.0265780086409038  0.5255616409016  1.0000
  H   H47       1.0  0.3097075223943051  0.0265670169086292  0.025370419330570795  1.0000
  H   H48       1.0  0.8102006600075669  0.9734190168864245  0.4744756008669739  1.0000
  C   C1        1.0  0.7006832210447413  0.39597056016679494  0.9402551482088057  1.0000
  C   C2        1.0  0.2021443482000862  0.6026107302435122  0.5602757124098546  1.0000
  C   C3        1.0  0.2980812330510716  0.6032603416209668  0.060080298030243305  1.0000
  C   C4        1.0  0.7986322952375744  0.3967410805992699  0.4399091410938141  1.0000
  C   C5        1.0  0.7165517957995675  0.5464067056018607  0.9533941708950948  1.0000
  C   C6        1.0  0.2164324095993564  0.4520536757534259  0.5471271935206374  1.0000
  C   C7        1.0  0.2831160058074857  0.452784625949711  0.04689234405845609  1.0000
  C   C8        1.0  0.7834781235527117  0.5471981103256596  0.45309708787790015  1.0000
  C   C9        1.0  0.6178221190244954  0.6439473378100331  0.9088824966969256  1.0000
  C   C10       1.0  0.11576363877723851  0.35521211771794015  0.5913128442387219  1.0000
  C   C11       1.0  0.3831200231938467  0.355639696103438  0.0911518080431932  1.0000
  C   C12       1.0  0.8832463051765913  0.6444320732033617  0.40879652417712725  1.0000
  C   C13       1.0  0.5104327185499997  0.587931271790282  0.850974901856631  1.0000
  C   C14       1.0  0.0085549078049922  0.4119657289733496  0.6490895387906901  1.0000
  C   C15       1.0  0.4906528559449441  0.4120558611780041  0.14892781692937263  1.0000
  C   C16       1.0  0.9907460381715438  0.5881346188373655  0.3509849856343692  1.0000
  C   C17       1.0  0.5079047246750079  0.4367059199778751  0.839001223177668  1.0000
  C   C18       1.0  0.0077108640234869  0.563214163423531  0.6610982458038278  1.0000
  C   C19       1.0  0.4922664690566378  0.5633141881872348  0.16096098578000098  1.0000
  C   C20       1.0  0.9925885912631927  0.4368729943084517  0.33896460039581194  1.0000
  C   C21       1.0  0.409482599800711  0.3669260068033893  0.7741022305707119  1.0000
  C   C22       1.0  0.9101550277597212  0.6335513574243592  0.7260396984654491  1.0000
  C   C23       1.0  0.5905065452721772  0.6334766136448877  0.22582010328885357  1.0000
  C   C24       1.0  0.09070160675526752  0.366720461409848  0.2740815845243461  1.0000
  C   C25       1.0  0.164909880858616  0.2424886057183357  0.8445685392524496  1.0000
  C   C26       1.0  0.6654926636447556  0.7576524115017947  0.655439852956512  1.0000
  C   C27       1.0  0.834752404122419  0.7580931799660178  0.15526436936105628  1.0000
  C   C28       1.0  0.3350288358393456  0.2423160355216183  0.34463851178242066  1.0000
  C   C29       1.0  0.1773540100097435  0.1700212140026238  0.921403365580929  1.0000
  C   C30       1.0  0.6782015908449779  0.8299219520365568  0.578558257915958  1.0000
  C   C31       1.0  0.821877978141508  0.8302143321150766  0.0783649295818947  1.0000
  C   C32       1.0  0.3223502500822519  0.1699200900656948  0.4214900415243577  1.0000
  C   C33       1.0  0.2986039333667421  0.12137730281969542  0.7351345153382738  1.0000
  C   C34       1.0  0.7991894744658836  0.8792220696362989  0.7647812238311218  1.0000
  C   C35       1.0  0.7009769813804567  0.879369358848784  0.2646462054454304  1.0000
  C   C36       1.0  0.2011444597334346  0.1208387079382192  0.2352988440166186  1.0000
  C   C37       1.0  0.3066857904902633  0.9628900365402231  0.763246981603828  1.0000
  C   C38       1.0  0.8066314029707584  0.0376027161127084  0.736521968359952  1.0000
  C   C39       1.0  0.6932343967573402  0.0377862780417004  0.2364292096189047  1.0000
  C   C40       1.0  0.1932225847645697  0.9624118961862606  0.2634819283113714  1.0000
  N   N1        1.0  0.5990297324775328  0.3422374769405536  0.884024362609253  1.0000
  N   N2        1.0  0.1000771126811628  0.6571692925636086  0.6161977549474429  1.0000
  N   N3        1.0  0.4001553643525213  0.6574693668547127  0.11607891539848228  1.0000
  N   N4        1.0  0.9006374687137395  0.3426540635937769  0.3838711042868326  1.0000
  N   N5        1.0  0.330065251575256  0.22483368533826822  0.796874699783352  1.0000
  N   N6        1.0  0.8306797549610181  0.7755436541257765  0.7031115487541156  1.0000
  N   N7        1.0  0.6695142840154347  0.7757173234957264  0.2029526383478952  1.0000
  N   N8        1.0  0.1699134606613768  0.22459956144080453  0.296938534128138  1.0000
  O   O1        1.0  0.0331811263711472  0.1659751573522001  0.9598287130677505  1.0000
  O   O2        1.0  0.5341142149097351  0.8338888682146006  0.5400795170076762  1.0000
  O   O3        1.0  0.9659598374507254  0.8342307110883525  0.0398750904124938  1.0000
  O   O4        1.0  0.4664638299910919  0.1658069838483911  0.4599553854545988  1.0000
  O   O5        1.0  0.3359004627509634  0.12424284742378691  0.9434174408284691  1.0000
  O   O6        1.0  0.836771489246793  0.8755882029461902  0.5565358015766718  1.0000
  O   O7        1.0  0.6631908514367026  0.8756233764894717  0.0563457094922342  1.0000
  O   O8        1.0  0.16372932288972208  0.1244341035653704  0.44352424035556476  1.0000
  O   O9        1.0  0.2239819123116717  0.8619100913032085  0.7275183111635284  1.0000
  O   O10       1.0  0.7235275694055048  0.13856947127099062  0.7721466870895597  1.0000
  O   O11       1.0  0.7760596407084321  0.1387585290661235  0.27217010611568065  1.0000
  O   O12       1.0  0.2757209686238085  0.8613967774059645  0.22768931993883262  1.0000
  O   O13       1.0  0.40381564571870143  0.9375035316779261  0.8208264327092394  1.0000
  O   O14       1.0  0.9038564199980925  0.0628463284554286  0.6789369036460755  1.0000
  O   O15       1.0  0.596177636823704  0.0630364854237868  0.1788219128671003  1.0000
  O   O16       1.0  0.096156170735398  0.9372078540797304  0.321115368446371  1.0000
  O   O17       1.0  0.7237303054118485  0.0205149691180253  0.926331404312748  1.0000
  O   O18       1.0  0.2249335303006248  0.9791369160158682  0.5736056491083303  1.0000
  O   O19       1.0  0.2752975675765512  0.9792204531811635  0.0734578213194013  1.0000
  O   O20       1.0  0.7757603637466914  0.0207941591178056  0.4264121120389746  1.0000
