data_image0
_chemical_formula_structural       Sr2H16C12N16O10
_chemical_formula_sum              "Sr2 H16 C12 N16 O10"
_cell_length_a       6.710963357582832
_cell_length_b       6.710598328943896
_cell_length_c       12.93043780940351
_cell_angle_alpha    101.95616130937607
_cell_angle_beta     101.90787574729066
_cell_angle_gamma    101.72968791817432

_space_group_name_H-M_alt    "P 1"
_space_group_IT_number       1

loop_
  _space_group_symop_operation_xyz
  'x, y, z'

loop_
  _atom_site_type_symbol
  _atom_site_label
  _atom_site_symmetry_multiplicity
  _atom_site_fract_x
  _atom_site_fract_y
  _atom_site_fract_z
  _atom_site_occupancy
  Sr  Sr1       1.0  0.5393075452700132  0.5392724587536436  0.999986011739125  1.0000
  Sr  Sr2       1.0  0.7890974562239493  0.28915479367918817  0.499987418192802  1.0000
  H   H1        1.0  0.187835674867415  0.656211219979788  0.7427955454167047  1.0000
  H   H2        1.0  0.9134007287378695  0.4452518926904432  0.2572707346751599  1.0000
  H   H3        1.0  0.6951204063138264  0.6633317186900033  0.7570469881929185  1.0000
  H   H4        1.0  0.9061113456614294  0.9379727086223255  0.2428357881784819  1.0000
  H   H5        1.0  0.3834046628702125  0.9962831204621666  0.03470806405039888  1.0000
  H   H6        1.0  0.9616915628561743  0.34853331030954865  0.965364726385971  1.0000
  H   H7        1.0  0.5981926544706583  0.7114784061958301  0.4651552346949615  1.0000
  H   H8        1.0  0.24624702903032158  0.13307445715710034  0.5347496997862464  1.0000
  H   H9        1.0  0.20501952992893277  0.7631377726350336  0.9586227352328223  1.0000
  H   H10       1.0  0.8045539581398843  0.24639314943764393  0.041446773345747104  1.0000
  H   H11       1.0  0.49622625412654736  0.5542937169127242  0.541263212607582  1.0000
  H   H12       1.0  0.013017404508154624  0.9547531699713762  0.45869120123013823  1.0000
  H   H13       1.0  0.8785548936868396  0.9195029157270014  0.9377396079054422  1.0000
  H   H14       1.0  0.9816761293116442  0.9406970990695883  0.06214675265329108  1.0000
  H   H15       1.0  0.19039344917184303  0.7313838377930112  0.5622834970232873  1.0000
  H   H16       1.0  0.1692851929706265  0.6280549064918759  0.4379123891399033  1.0000
  C   C1        1.0  0.35575007327268776  0.939129636606829  0.8745238583463077  1.0000
  C   C2        1.0  0.06471061285470368  0.4811484840875835  0.1255546483672774  1.0000
  C   C3        1.0  0.7308067787668123  0.814723612490049  0.6253613692583145  1.0000
  C   C4        1.0  0.18915090225289788  0.10528971712294322  0.374554636270247  1.0000
  C   C5        1.0  0.4329906095286589  0.11802436193611501  0.7642341076804229  1.0000
  C   C6        1.0  0.3539134100596116  0.6685667582913696  0.23585429797705612  1.0000
  C   C7        1.0  0.9184982425325785  0.1038338413113848  0.735721801615675  1.0000
  C   C8        1.0  0.3679358803178517  0.18273841297053653  0.2642365917442078  1.0000
  C   C9        1.0  0.5191788327180262  0.3044307513058371  0.7266115475022943  1.0000
  C   C10       1.0  0.5778446567661817  0.7925927815998153  0.27336752467920894  1.0000
  C   C11       1.0  0.0423017188154517  0.3278828582110264  0.7733658015656956  1.0000
  C   C12       1.0  0.554357267818375  0.26907793198623864  0.2266486871100781  1.0000
  N   N1        1.0  0.45464869984578377  0.13260896150097073  0.8732787145667444  1.0000
  N   N2        1.0  0.2594392987997693  0.5812140893457638  0.12680525518536004  1.0000
  N   N3        1.0  0.8309337973592931  0.009484297479801302  0.6266695983827119  1.0000
  N   N4        1.0  0.38258838906354237  0.20419066544317127  0.37328245989324665  1.0000
  N   N5        1.0  0.32671410660677935  0.9279625640477037  0.6990514780794257  1.0000
  N   N6        1.0  0.22901383864714117  0.6276288276268431  0.3010351076280102  1.0000
  N   N7        1.0  0.8776130105043405  0.9788620939727294  0.8008397589245321  1.0000
  N   N8        1.0  0.17789163835065838  0.07669759217744601  0.19909022620841196  1.0000
  N   N9        1.0  0.2802620061147109  0.8153690276517479  0.7708262510171976  1.0000
  N   N10       1.0  0.04461981434787525  0.5094263287111715  0.2292523867103498  1.0000
  N   N11       1.0  0.7592610555860234  0.7945200462910192  0.7290247787673748  1.0000
  N   N12       1.0  0.0653496503975646  0.030052852437869097  0.2708807490439895  1.0000
  N   N13       1.0  0.34195574283843655  0.8711353343560264  0.9662548957583469  1.0000
  N   N14       1.0  0.9050108481898178  0.3756192973486492  0.0338175423772356  1.0000
  N   N15       1.0  0.6252996171476752  0.6549490567505601  0.5336173933558541  1.0000
  N   N16       1.0  0.121171184002435  0.09155120024048814  0.4663063066865547  1.0000
  O   O1        1.0  0.5941365205638576  0.4768033708160218  0.8023831943926963  1.0000
  O   O2        1.0  0.6742726428494095  0.7917422561200099  0.19751962151023147  1.0000
  O   O3        1.0  0.0411091547865965  0.4245067191118039  0.6976441810948231  1.0000
  O   O4        1.0  0.7266243941474497  0.34398240578617134  0.3024258753015019  1.0000
  O   O5        1.0  0.5149847472823055  0.28507055469434317  0.6266598491482468  1.0000
  O   O6        1.0  0.6584491711314796  0.8886823563344494  0.3732730537219737  1.0000
  O   O7        1.0  0.13856820757591487  0.408340538511986  0.8732612134878011  1.0000
  O   O8        1.0  0.5350691053429345  0.26517215000451705  0.1267306460149342  1.0000
  O   O9        1.0  0.8593442481873906  0.8592530104586515  0.9999201529219945  1.0000
  O   O10       1.0  0.10901227522278839  0.6088787490662639  0.5001020963107052  1.0000
