data_image0
_chemical_formula_structural       Cu4H18C12I4N4
_chemical_formula_sum              "Cu4 H18 C12 I4 N4"
_cell_length_a       4.198056602835989
_cell_length_b       10.239203601770695
_cell_length_c       12.171514575179849
_cell_angle_alpha    109.37212503548994
_cell_angle_beta     94.8398172400537
_cell_angle_gamma    92.81871514395365

_space_group_name_H-M_alt    "P 1"
_space_group_IT_number       1

loop_
  _space_group_symop_operation_xyz
  'x, y, z'

loop_
  _atom_site_type_symbol
  _atom_site_label
  _atom_site_symmetry_multiplicity
  _atom_site_fract_x
  _atom_site_fract_y
  _atom_site_fract_z
  _atom_site_occupancy
  Cu  Cu1       1.0  0.5323184334624713  0.1105207324485349  0.8458688450148131  1.0000
  Cu  Cu2       1.0  0.46767439592927934  0.889477060054787  0.15412774034716387  1.0000
  Cu  Cu3       1.0  0.9889685660440931  0.0525785497396214  0.15511556339171761  1.0000
  Cu  Cu4       1.0  0.011026567305968552  0.9474191969921006  0.8448851893029926  1.0000
  H   H1        1.0  0.8022863143098887  0.14156720366513298  0.6191207196735888  1.0000
  H   H2        1.0  0.19771909788408945  0.8584346776995558  0.38088400223318086  1.0000
  H   H3        1.0  0.16192000499091114  0.05713920694371669  0.6142004124979438  1.0000
  H   H4        1.0  0.8380857207884487  0.9428637801995163  0.3857988838938198  1.0000
  H   H5        1.0  0.08344814523596972  0.1585262682810367  0.5221512263059793  1.0000
  H   H6        1.0  0.9165454166858709  0.8414756598960549  0.47784820774455744  1.0000
  H   H7        1.0  0.7225179466554225  0.43083347257917376  0.9319840140984967  1.0000
  H   H8        1.0  0.27748709927350745  0.5691663409486266  0.06801928346399681  1.0000
  H   H9        1.0  0.3825201233684723  0.6049077916022084  0.840221801426921  1.0000
  H   H10       1.0  0.6174829152923351  0.39509409720869115  0.15978202658025964  1.0000
  H   H11       1.0  0.8815696340979358  0.5547829380383076  0.695678178470068  1.0000
  H   H12       1.0  0.11842385824904507  0.4452189518133947  0.3043245290136198  1.0000
  H   H13       1.0  0.7480798426849233  0.38030261922521186  0.611632350654709  1.0000
  H   H14       1.0  0.2519172805395513  0.6196930426420764  0.3883686899535946  1.0000
  H   H15       1.0  0.33016266250754706  0.5441860513228887  0.5710451283907431  1.0000
  H   H16       1.0  0.6698211960585141  0.45581485834857466  0.4289512454267311  1.0000
  H   H17       1.0  0.18974197599535358  0.371459251417093  0.4832327445019189  1.0000
  H   H18       1.0  0.8102426324945068  0.6285458035094817  0.5167656596458272  1.0000
  C   C1        1.0  0.05936653499587409  0.15161156833639208  0.6093729674004181  1.0000
  C   C2        1.0  0.9406413203061347  0.8483903439074749  0.3906293749727965  1.0000
  C   C3        1.0  0.22739034053449808  0.27274541657082096  0.7038329699424396  1.0000
  C   C4        1.0  0.7726130464991171  0.7272575971813137  0.2961637958331664  1.0000
  C   C5        1.0  0.5439757007565192  0.4056276842260828  0.8568224765364434  1.0000
  C   C6        1.0  0.4560255045733044  0.594376375681378  0.14317369833256782  1.0000
  C   C7        1.0  0.3783351976480986  0.49268695941383805  0.8129087423408808  1.0000
  C   C8        1.0  0.6216692027193176  0.507308766346945  0.1870876147416141  1.0000
  C   C9        1.0  0.9600862564368596  0.4552281812589241  0.6413987808660764  1.0000
  C   C10       1.0  0.03991629370437982  0.5447706393313609  0.3586000463706895  1.0000
  C   C11       1.0  0.11395141369519728  0.4721286935918626  0.5373830334888369  1.0000
  C   C12       1.0  0.8860491291779199  0.5278722022815145  0.4626163241926165  1.0000
  I   I1        1.0  0.037115790758754486  0.19411638549195223  0.004279062734980199  1.0000
  I   I2        1.0  0.9628791507619283  0.8058803225306544  0.9957213869667357  1.0000
  I   I3        1.0  0.4567688058474104  0.8549319863250558  0.7065002293919919  1.0000
  I   I4        1.0  0.5432238843946279  0.14506572952748797  0.29350290283627345  1.0000
  N   N1        1.0  0.4480703144742222  0.26913690821767483  0.789051829468896  1.0000
  N   N2        1.0  0.5519469648870868  0.7308640026016632  0.21094805700168  1.0000
  N   N3        1.0  0.1790415266166079  0.4077201933101334  0.7168470570716182  1.0000
  N   N4        1.0  0.8209718097890644  0.592272396119803  0.2831511482719621  1.0000
