data_image0
_chemical_formula_structural       La2H20C16N2O20
_chemical_formula_sum              "La2 H20 C16 N2 O20"
_cell_length_a       6.359088425568019
_cell_length_b       9.829330058944509
_cell_length_c       10.296213251357221
_cell_angle_alpha    73.46129524332476
_cell_angle_beta     88.25096174516436
_cell_angle_gamma    88.05219712581858

_space_group_name_H-M_alt    "P 1"
_space_group_IT_number       1

loop_
  _space_group_symop_operation_xyz
  'x, y, z'

loop_
  _atom_site_type_symbol
  _atom_site_label
  _atom_site_symmetry_multiplicity
  _atom_site_fract_x
  _atom_site_fract_y
  _atom_site_fract_z
  _atom_site_occupancy
  La  La1       1.0  0.740157297258989  0.0618901522312214  0.723269156114412  1.0000
  La  La2       1.0  0.2598354268099285  0.9381059786108281  0.2767285477599514  1.0000
  H   H1        1.0  0.0537735827020782  0.16307966160763243  0.9230807797454756  1.0000
  H   H2        1.0  0.9462204634012394  0.8369249715001814  0.07691543303712929  1.0000
  H   H3        1.0  0.1897421600267961  0.07833247818214062  0.8411929767705572  1.0000
  H   H4        1.0  0.8102535734975761  0.9216700417268697  0.1588047485216535  1.0000
  H   H5        1.0  0.09703297292661263  0.8826118926931628  0.6106544224848776  1.0000
  H   H6        1.0  0.9029644697315578  0.11738422690148546  0.38934311781341785  1.0000
  H   H7        1.0  0.20319414122289456  0.019893341139606908  0.6304970591703167  1.0000
  H   H8        1.0  0.7967923842388843  0.980104982364871  0.3695041273439372  1.0000
  H   H9        1.0  0.7289538363346324  0.747104659292539  0.9547139089722662  1.0000
  H   H10       1.0  0.271041933728398  0.25289679907001533  0.04528411668007239  1.0000
  H   H11       1.0  0.9381089064117845  0.7646607250160998  0.8638462138351172  1.0000
  H   H12       1.0  0.061884895749706514  0.23534490142195347  0.1361448670139325  1.0000
  H   H13       1.0  0.4011535523288998  0.8962455284251335  0.9478891683413123  1.0000
  H   H14       1.0  0.598845180766979  0.10376123017143613  0.052107246459641494  1.0000
  H   H15       1.0  0.30957938156815595  0.9031046246101725  0.8002963353703406  1.0000
  H   H16       1.0  0.6904194611437191  0.09689894934702183  0.1997009805110181  1.0000
  H   H17       1.0  0.5416709695033219  0.6068525546934609  0.7899938590553716  1.0000
  H   H18       1.0  0.4583266854999835  0.3931447083071049  0.2100091787708962  1.0000
  H   H19       1.0  0.7784864926878754  0.6297647418639086  0.3847934141212406  1.0000
  H   H20       1.0  0.22153005149835542  0.37023570171614034  0.6152109672643958  1.0000
  C   C1        1.0  0.6295611990955691  0.41148637072325306  0.7452141278864061  1.0000
  C   C2        1.0  0.37044270093748105  0.5885097884478299  0.2547870595692032  1.0000
  C   C3        1.0  0.6061250132401241  0.5587075921162707  0.7138417043044427  1.0000
  C   C4        1.0  0.39387416820366633  0.4412885783022134  0.2861596467272349  1.0000
  C   C5        1.0  0.6610062373302839  0.6394026179051339  0.582619695515639  1.0000
  C   C6        1.0  0.3389945683411639  0.3605957127868606  0.4173838992144637  1.0000
  C   C7        1.0  0.7374311356699722  0.570572366869513  0.4885278260381155  1.0000
  C   C8        1.0  0.26257738816224213  0.4294301912626324  0.5114742946246691  1.0000
  C   C9        1.0  0.7630725005298943  0.4231169670458499  0.5302710173160321  1.0000
  C   C10       1.0  0.2369359719377471  0.5768834270636561  0.46972880512296905  1.0000
  C   C11       1.0  0.5558804216558713  0.3137736656224988  0.8785171020683862  1.0000
  C   C12       1.0  0.4441281238890936  0.6862246053940951  0.12148332109088496  1.0000
  C   C13       1.0  0.6386653641080713  0.7985974753581928  0.5414125955352063  1.0000
  C   C14       1.0  0.36133733638758514  0.2013988103512148  0.45859734327791557  1.0000
  C   C15       1.0  0.8419612796101319  0.3388900726822683  0.43539127219001017  1.0000
  C   C16       1.0  0.1580408964631985  0.6611092612340741  0.5646081023958656  1.0000
  N   N1        1.0  0.7107040002056024  0.34592496158622776  0.6562685574819723  1.0000
  N   N2        1.0  0.2893028628602891  0.6540764978188705  0.34373101912224496  1.0000
  O   O1        1.0  0.6103784687647077  0.18086037132248828  0.8983644691666581  1.0000
  O   O2        1.0  0.3896235828667258  0.8191389216641272  0.1016320064751638  1.0000
  O   O3        1.0  0.4459971846383937  0.361335689274597  0.9591271729516747  1.0000
  O   O4        1.0  0.5540206469884623  0.638665730243318  0.04087105566036801  1.0000
  O   O5        1.0  0.6650984596970416  0.8610959006045463  0.6307242321475854  1.0000
  O   O6        1.0  0.3348866321694643  0.13890569314789056  0.3692819056997222  1.0000
  O   O7        1.0  0.6001838754281721  0.8605129567104515  0.41681158725344847  1.0000
  O   O8        1.0  0.3998281861715754  0.13947576653301044  0.5831923964110144  1.0000
  O   O9        1.0  0.8769196158731134  0.3973233814061744  0.31378979228273346  1.0000
  O   O10       1.0  0.123080914259809  0.6026780793522236  0.6862090361082237  1.0000
  O   O11       1.0  0.8654019824306189  0.2024717852174689  0.4953241206635325  1.0000
  O   O12       1.0  0.13460325146564864  0.7975264387244253  0.5046725462877077  1.0000
  O   O13       1.0  0.05481477909550141  0.13288414450200747  0.8393227619160157  1.0000
  O   O14       1.0  0.945179418104445  0.8671173176096759  0.16067531826168133  1.0000
  O   O15       1.0  0.09459198049471948  0.9482361322071144  0.6718026932948857  1.0000
  O   O16       1.0  0.9053992852690769  0.05175789293440401  0.3281966321397931  1.0000
  O   O17       1.0  0.847274749179185  0.8144513829670642  0.9146578092789851  1.0000
  O   O18       1.0  0.1527175946771777  0.18555213777045762  0.08533489313037988  1.0000
  O   O19       1.0  0.40000893266720533  0.9520948665882327  0.8479293370773959  1.0000
  O   O20       1.0  0.5999849771653915  0.0479161630848068  0.15206700617377314  1.0000
