data_image0
_chemical_formula_structural       Cd2H24C36N8O12
_chemical_formula_sum              "Cd2 H24 C36 N8 O12"
_cell_length_a       8.386622477242172
_cell_length_b       8.469014419256116
_cell_length_c       12.897804578040382
_cell_angle_alpha    83.63309590516565
_cell_angle_beta     75.97079473549351
_cell_angle_gamma    85.39811185687422

_space_group_name_H-M_alt    "P 1"
_space_group_IT_number       1

loop_
  _space_group_symop_operation_xyz
  'x, y, z'

loop_
  _atom_site_type_symbol
  _atom_site_label
  _atom_site_symmetry_multiplicity
  _atom_site_fract_x
  _atom_site_fract_y
  _atom_site_fract_z
  _atom_site_occupancy
  Cd  Cd1       1.0  0.770158453167703  0.9108609570382955  0.8352584379993218  1.0000
  Cd  Cd2       1.0  0.22984150523726757  0.08913998291782119  0.1647423099758996  1.0000
  H   H1        1.0  0.40758143199241204  0.8965639394692604  0.8208060758424692  1.0000
  H   H2        1.0  0.5924198242323656  0.10343581125648173  0.17919455380670965  1.0000
  H   H3        1.0  0.2547453232071248  0.8065657464102503  0.6984909679437478  1.0000
  H   H4        1.0  0.7452534750290811  0.1934340029259971  0.30151004849990665  1.0000
  H   H5        1.0  0.709452521428851  0.8143700172285054  0.4521603484653411  1.0000
  H   H6        1.0  0.29054620798182634  0.18563092203286402  0.5478405929071215  1.0000
  H   H7        1.0  0.8448506333004814  0.8941856719218254  0.5868391265243886  1.0000
  H   H8        1.0  0.15514809611019592  0.10581526733954413  0.413161814848074  1.0000
  H   H9        1.0  0.1395181692588778  0.801019403194765  0.5755739644466473  1.0000
  H   H10       1.0  0.8604824696705508  0.19899106131476432  0.42442288759945507  1.0000
  H   H11       1.0  0.0012704968615863841  0.6715659686832255  0.4617598674358021  1.0000
  H   H12       1.0  0.9987289136071457  0.32844449624597877  0.5382364025169578  1.0000
  H   H13       1.0  0.47332264248797895  0.5184562453933664  0.2708323530352743  1.0000
  H   H14       1.0  0.5266761557482199  0.4815435039428807  0.7291686634083874  1.0000
  H   H15       1.0  0.6118360747159103  0.640418369465941  0.38724501020240604  1.0000
  H   H16       1.0  0.38816408963203497  0.3595789996003873  0.6127567384769819  1.0000
  H   H17       1.0  0.8088222205855473  0.6121067501712433  0.18818510862615773  1.0000
  H   H18       1.0  0.19117650882513001  0.38789418909012596  0.8118158327462979  1.0000
  H   H19       1.0  0.6482031905989701  0.5235625984553779  0.06399359522155379  1.0000
  H   H20       1.0  0.3517981349849252  0.4764359634596715  0.9360063340082475  1.0000
  H   H21       1.0  0.7456027450271777  0.2738478406282354  0.9750855350668459  1.0000
  H   H22       1.0  0.25439851119759993  0.7261519100975066  0.024915094582340185  1.0000
  H   H23       1.0  0.9889031576626836  0.11600756766129902  0.01863463575841713  1.0000
  H   H24       1.0  0.011097960377448101  0.8839945618002645  0.9813666192389476  1.0000
  C   C1        1.0  0.4700210817129147  0.8730497418696787  0.7390531385266925  1.0000
  C   C2        1.0  0.52997894551757  0.12695000816131602  0.2609476845197278  1.0000
  C   C3        1.0  0.3855438060199177  0.8241785120649112  0.6692269105518562  1.0000
  C   C4        1.0  0.6144563588616239  0.1758188581158393  0.33077406263696213  1.0000
  C   C5        1.0  0.46916586109934855  0.7941785695707894  0.5642659405117384  1.0000
  C   C6        1.0  0.5308341661311431  0.2058211804602054  0.43573488253468184  1.0000
  C   C7        1.0  0.6373447142889362  0.8249451271007687  0.5338167487374506  1.0000
  C   C8        1.0  0.36265394682980207  0.17505700320014483  0.4661833420732364  1.0000
  C   C9        1.0  0.714327127452762  0.8716096239998168  0.6082051858915489  1.0000
  C   C10       1.0  0.28567283095220125  0.12839131595629996  0.3917955620836722  1.0000
  C   C11       1.0  0.3862683548997908  0.7282890705052695  0.4914856995258249  1.0000
  C   C12       1.0  0.6137318094481543  0.27170829856105877  0.5085160491535703  1.0000
  C   C13       1.0  0.21344284554182744  0.7361869240745591  0.510524349587854  1.0000
  C   C14       1.0  0.7865567009771725  0.26382115766113395  0.48947439697902684  1.0000
  C   C15       1.0  0.13505514095189852  0.6653503822644993  0.4460428295563262  1.0000
  C   C16       1.0  0.8649442001577157  0.3346612714754045  0.5539541408158044  1.0000
  C   C17       1.0  0.22760395166790914  0.5844785599697104  0.3590936287579042  1.0000
  C   C18       1.0  0.772394434682326  0.4155283311461133  0.6409053862774102  1.0000
  C   C19       1.0  0.40080034022762595  0.5787497735544277  0.3384948588093337  1.0000
  C   C20       1.0  0.5991995493518091  0.4212523563268107  0.6615058140946957  1.0000
  C   C21       1.0  0.47802988096064786  0.6492242403406436  0.40378404757807823  1.0000
  C   C22       1.0  0.521968917809147  0.35077551011003294  0.5962161933750066  1.0000
  C   C23       1.0  0.14634104648135346  0.5129247864209888  0.2937648216248334  1.0000
  C   C24       1.0  0.8536598661493926  0.48708091504478546  0.706234657177788  1.0000
  C   C25       1.0  0.07135809386041812  0.45541461093996116  0.2382626334110611  1.0000
  C   C26       1.0  0.928640498966395  0.5445887104004967  0.7617366068378502  1.0000
  C   C27       1.0  0.9780075032344654  0.40642886502563164  0.17074859204016954  1.0000
  C   C28       1.0  0.0219923868785656  0.5935732659700292  0.8292513053732762  1.0000
  C   C29       1.0  0.8412250863442241  0.501272800007726  0.1504961807875204  1.0000
  C   C30       1.0  0.15877487312792482  0.4987281421772423  0.8495030162065547  1.0000
  C   C31       1.0  0.7546650703286489  0.45268672740307647  0.08128793312843637  1.0000
  C   C32       1.0  0.2453374164911963  0.5473130273606871  0.9187101766517856  1.0000
  C   C33       1.0  0.807743773136977  0.31348512347155827  0.031551911409586374  1.0000
  C   C34       1.0  0.1922576207388502  0.6865122474039397  0.9684488683819978  1.0000
  C   C35       1.0  0.9430853601634298  0.22500760898520164  0.05589463236666595  1.0000
  C   C36       1.0  0.05691575841029821  0.7749945215907844  0.944105847140122  1.0000
  N   N1        1.0  0.6335083489316061  0.8921138551974723  0.7102325598464034  1.0000
  N   N2        1.0  0.3664916100069533  0.10788708587306672  0.2897674126382483  1.0000
  N   N3        1.0  0.041737618291492105  0.10781689463367171  0.7397700980778411  1.0000
  N   N4        1.0  0.9582610422936574  0.8921852345528194  0.26023076822342256  1.0000
  N   N5        1.0  0.5658614402982566  0.8346818516697212  0.04391302796278039  1.0000
  N   N6        1.0  0.4341398164601173  0.16531790017045014  0.9560868261958291  1.0000
  N   N7        1.0  0.025507434114139502  0.2676493583494092  0.12480672398034187  1.0000
  N   N8        1.0  0.9744936849931778  0.7323527733409989  0.8751929800358695  1.0000
  O   O1        1.0  0.0140640674725532  0.013154568725752802  0.6767849175449001  1.0000
  O   O2        1.0  0.9859345931125956  0.9868475604607385  0.3232159487563564  1.0000
  O   O3        1.0  0.1626362404116222  0.19211700362064485  0.7145522376113007  1.0000
  O   O4        1.0  0.8373625583581727  0.8078827468300247  0.28544800334178433  1.0000
  O   O5        1.0  0.9402867282936925  0.114493441738027  0.8324020568651562  1.0000
  O   O6        1.0  0.059711932291456486  0.8855086874484644  0.16759880943610736  1.0000
  O   O7        1.0  0.6688879644056982  0.9457944203327531  0.022345396178572147  1.0000
  O   O8        1.0  0.3311132912854902  0.054205329278566715  0.9776560089611905  1.0000
  O   O9        1.0  0.4684572542234449  0.8167398734599091  0.13379954290013532  1.0000
  O   O10       1.0  0.531542704715115  0.18326106761062996  0.8662004295845093  1.0000
  O   O11       1.0  0.5666232809736869  0.7453457192936526  0.9702768267891599  1.0000
  O   O12       1.0  0.43337797578468706  0.25465403254651164  0.029723027369449498  1.0000
