data_image0
_chemical_formula_structural       Zn2H10C20Br4N4O8
_chemical_formula_sum              "Zn2 H10 C20 Br4 N4 O8"
_cell_length_a       7.7747840801730295
_cell_length_b       8.870635431882326
_cell_length_c       16.037684467787084
_cell_angle_alpha    87.35723626313654
_cell_angle_beta     85.74711438854355
_cell_angle_gamma    89.23092372974865

_space_group_name_H-M_alt    "P 1"
_space_group_IT_number       1

loop_
  _space_group_symop_operation_xyz
  'x, y, z'

loop_
  _atom_site_type_symbol
  _atom_site_label
  _atom_site_symmetry_multiplicity
  _atom_site_fract_x
  _atom_site_fract_y
  _atom_site_fract_z
  _atom_site_occupancy
  Zn  Zn1       1.0  0.6721083286644642  0.5024694735168113  0.48930728966977444  1.0000
  Zn  Zn2       1.0  0.32407379871838776  0.4733987468072485  0.5122106549798956  1.0000
  H   H1        1.0  0.7605587226043157  0.559876073390683  0.06168274182339668  1.0000
  H   H2        1.0  0.6929877222346549  0.33423108773859417  0.932941639938768  1.0000
  H   H3        1.0  0.47359070399915026  0.2890760070129019  0.9276714827280155  1.0000
  H   H4        1.0  0.2704625842396524  0.9879573157207345  0.5081914348029954  1.0000
  H   H5        1.0  0.6684489958077721  0.9848369272803977  0.4851835381751284  1.0000
  H   H6        1.0  0.011828540735045603  0.6026710935546973  0.4543538172978926  1.0000
  H   H7        1.0  0.30117793688516775  0.6833416129413267  0.9233129311394843  1.0000
  H   H8        1.0  0.24758825980941884  0.4897199388161441  0.9273796104727764  1.0000
  H   H9        1.0  0.6524822826190545  0.3217005945458808  0.07914501187779877  1.0000
  H   H10       1.0  0.43147155446064295  0.28457669861675333  0.07381582903381907  1.0000
  C   C1        1.0  0.4180027653758458  0.7747745131424753  0.49687603201492425  1.0000
  C   C2        1.0  0.5382763307834892  0.03130879809345541  0.49453346296579764  1.0000
  C   C3        1.0  0.5053818459822353  0.5003952501420272  0.33777956172585977  1.0000
  C   C4        1.0  0.5206455184029011  0.19726984955961774  0.49970217272789325  1.0000
  C   C5        1.0  0.5153861173235866  0.5042924316690431  0.6620851560425436  1.0000
  C   C6        1.0  0.6450153546746762  0.6256374758232327  0.04590880510331629  1.0000
  C   C7        1.0  0.3158937127499541  0.5711440218872356  0.04683068248520779  1.0000
  C   C8        1.0  0.3354356731130395  0.5720706144397099  0.9497717548707809  1.0000
  C   C9        1.0  0.5226769209590999  0.515505376569621  0.7514762364217515  1.0000
  C   C10       1.0  0.4908781824093893  0.522008202534586  0.08241959351983037  1.0000
  C   C11       1.0  0.6592649798143597  0.7679876240038086  0.08675974431293546  1.0000
  C   C12       1.0  0.6495308970913029  0.6415208144492084  0.9481999960179193  1.0000
  C   C13       1.0  0.17583442031095586  0.47147687292087437  0.07866484846976357  1.0000
  C   C14       1.0  0.5211554196074674  0.5275218713801237  0.9170375092072258  1.0000
  C   C15       1.0  0.5611261031763561  0.3668779258432906  0.954220198788384  1.0000
  C   C16       1.0  0.5352354029203141  0.3617123246030333  0.05055855452314969  1.0000
  C   C17       1.0  0.5282074061945182  0.5253629980237237  0.8264499397280927  1.0000
  C   C18       1.0  0.4841449154627426  0.516982798388689  0.17294653446784028  1.0000
  C   C19       1.0  0.4928580396573921  0.5086292480245547  0.2482167900327993  1.0000
  C   C20       1.0  0.4006611935065081  0.9410102937957918  0.5001141668174965  1.0000
  Br  Br1       1.0  0.5927089755903762  0.8476550525786238  0.9068289393443789  1.0000
  Br  Br2       1.0  0.8859146994705397  0.5985237470168983  0.9003027618130302  1.0000
  Br  Br3       1.0  0.9735608099016774  0.27579109236749844  0.5973564242757587  1.0000
  Br  Br4       1.0  0.23610022109242124  0.7721485785985748  0.08601702091601025  1.0000
  N   N1        1.0  0.05201545867752338  0.43912644622743363  0.5251084145499332  1.0000
  N   N2        1.0  0.9449742705822716  0.5174552069957699  0.48945459857514345  1.0000
  N   N3        1.0  0.6818572284702  0.8786614503042217  0.12059689020862405  1.0000
  N   N4        1.0  0.05890723016239009  0.3934797283474866  0.09871594598235586  1.0000
  O   O1        1.0  0.5691965735715243  0.7174362068358138  0.4946330721176792  1.0000
  O   O2        1.0  0.2773714292522201  0.7002013225913544  0.4984522561096936  1.0000
  O   O3        1.0  0.6546629829047177  0.5210523174819387  0.36277869323888007  1.0000
  O   O4        1.0  0.3664176105630689  0.4730679692425286  0.38287741470738  1.0000
  O   O5        1.0  0.657845175006244  0.27376954121287883  0.4836487992217825  1.0000
  O   O6        1.0  0.37130934377265135  0.2511170048184681  0.5201691260224449  1.0000
  O   O7        1.0  0.6588944547706959  0.5004903106663647  0.6184757920998364  1.0000
  O   O8        1.0  0.3653011191211278  0.49873847770712854  0.635600898612715  1.0000
