data_image0
_chemical_formula_structural       Al4H28C64O20F8
_chemical_formula_sum              "Al4 H28 C64 O20 F8"
_cell_length_a       6.65196149598441
_cell_length_b       24.577682400613327
_cell_length_c       25.04271303075987
_cell_angle_alpha    89.98126138619209
_cell_angle_beta     88.52282653594574
_cell_angle_gamma    87.85480598418604

_space_group_name_H-M_alt    "P 1"
_space_group_IT_number       1

loop_
  _space_group_symop_operation_xyz
  'x, y, z'

loop_
  _atom_site_type_symbol
  _atom_site_label
  _atom_site_symmetry_multiplicity
  _atom_site_fract_x
  _atom_site_fract_y
  _atom_site_fract_z
  _atom_site_occupancy
  Al  Al1       1.0  0.9868184882614414  0.0011165337153115995  0.49807672182779333  1.0000
  Al  Al2       1.0  0.48654721782534693  0.9995780708427018  0.4996023294393695  1.0000
  Al  Al3       1.0  0.013791279225927194  0.5004893788587808  0.0002713598067103001  1.0000
  Al  Al4       1.0  0.5134728691589104  0.4990154081482743  0.0018312008418632996  1.0000
  H   H1        1.0  0.22950039229831282  0.0698510864874393  0.5159258060680472  1.0000
  H   H2        1.0  0.7504885091134385  0.9318175134802689  0.5178882134202925  1.0000
  H   H3        1.0  0.2710166784421234  0.43014485536000535  0.9841550480550867  1.0000
  H   H4        1.0  0.7499756469382249  0.5683087084006359  0.9820464152359278  1.0000
  H   H5        1.0  0.4599201041667983  0.4040517306915348  0.1311144307466137  1.0000
  H   H6        1.0  0.44463413597441814  0.3335703859854036  0.20279248678109948  1.0000
  H   H7        1.0  0.07939391981815191  0.29553377385116875  0.17490751338997512  1.0000
  H   H8        1.0  0.42073081984707983  0.20435883556579876  0.3247945931045209  1.0000
  H   H9        1.0  0.04031841142430183  0.09600999931475226  0.3687601884794703  1.0000
  H   H10       1.0  0.05558090471136982  0.16644466466932786  0.297012330719852  1.0000
  H   H11       1.0  0.9583440759131535  0.5970695512402387  0.8665051594155601  1.0000
  H   H12       1.0  0.948281502236661  0.6674937225137825  0.794828695941135  1.0000
  H   H13       1.0  0.565179315985752  0.7032869037993592  0.8276039520472624  1.0000
  H   H14       1.0  0.9350094563489936  0.7970030717240915  0.6725360870472912  1.0000
  H   H15       1.0  0.5419572725637141  0.9031396928050552  0.6334428069890592  1.0000
  H   H16       1.0  0.5521082293758683  0.8327769316480625  0.7051624891231045  1.0000
  H   H17       1.0  0.5572976435512161  0.5954909565980772  0.13048829777188334  1.0000
  H   H18       1.0  0.5636724381988572  0.666673896077306  0.2013867165632064  1.0000
  H   H19       1.0  0.9311337252819812  0.7032682064357727  0.1770630363948342  1.0000
  H   H20       1.0  0.5689008040483118  0.7968736947821994  0.3227213940222171  1.0000
  H   H21       1.0  0.9427413383813462  0.9046065623453005  0.36945586031339434  1.0000
  H   H22       1.0  0.9362539084253572  0.8334437231590074  0.29855663244587305  1.0000
  H   H23       1.0  0.4689741344187795  0.40605759833729854  0.8702908269204884  1.0000
  H   H24       1.0  0.45328951751296404  0.33571750670045475  0.7990544170838234  1.0000
  H   H25       1.0  0.07859235005408041  0.2908786500122105  0.8251628759644093  1.0000
  H   H26       1.0  0.420562582814135  0.20844413279279186  0.675420734534491  1.0000
  H   H27       1.0  0.030765199913339817  0.09360489531075437  0.6300615080207878  1.0000
  H   H28       1.0  0.04580485149653412  0.16361371824262247  0.701619655862068  1.0000
  C   C1        1.0  0.7257386558327569  0.0679295990353168  0.5703328339691964  1.0000
  C   C2        1.0  0.7249618980215191  0.0663253217609565  0.4279609174536319  1.0000
  C   C3        1.0  0.24688727726525175  0.9344672734010899  0.4277660124307873  1.0000
  C   C4        1.0  0.24131049812266545  0.9329175497222265  0.570274377962818  1.0000
  C   C5        1.0  0.7744968608991984  0.43200028445009037  0.9297090113876794  1.0000
  C   C6        1.0  0.7753487305291883  0.4337471096562808  0.07191379644204692  1.0000
  C   C7        1.0  0.2533480765404974  0.5656556330477257  0.0721084298229115  1.0000
  C   C8        1.0  0.25893128688468897  0.5672170395232358  0.92966147415504  1.0000
  C   C9        1.0  0.7757492937760659  0.3913674847823502  0.1145411464677082  1.0000
  C   C10       1.0  0.5947211342129183  0.3805707045548203  0.1421393720153361  1.0000
  C   C11       1.0  0.5859255766943862  0.34108115471091327  0.18159321005165907  1.0000
  C   C12       1.0  0.760424358796442  0.30965368562028317  0.194282986203163  1.0000
  C   C13       1.0  0.9428583889014349  0.3196278690546421  0.1668153244764312  1.0000
  C   C14       1.0  0.9476542102214796  0.3599819472481728  0.12817279103875734  1.0000
  C   C15       1.0  0.7529341437362335  0.2680902918159731  0.23323445278922617  1.0000
  C   C16       1.0  0.7470265379376217  0.2318479833461424  0.2665128923249966  1.0000
  C   C17       1.0  0.7397521027168493  0.19030018785149141  0.3054887690927188  1.0000
  C   C18       1.0  0.5573046787466964  0.18030898028686695  0.33294689399949823  1.0000
  C   C19       1.0  0.5525541985056251  0.1399900774748915  0.3716276055083797  1.0000
  C   C20       1.0  0.7245468360476438  0.10864519950047219  0.3852837029971781  1.0000
  C   C21       1.0  0.9055647086857449  0.11945708840678293  0.3576899049172014  1.0000
  C   C22       1.0  0.9143404528864708  0.15892069380456061  0.3182165691653012  1.0000
  C   C23       1.0  0.264177720688238  0.6092589724976776  0.8865716976193099  1.0000
  C   C24       1.0  0.0905691338954853  0.6203805647786852  0.8568758973759075  1.0000
  C   C25       1.0  0.08461671606445263  0.6597608119921575  0.8172599246426488  1.0000
  C   C26       1.0  0.25544402861947907  0.6906535601154432  0.8059320543510682  1.0000
  C   C27       1.0  0.4311084277969855  0.6800360118102232  0.8349533813260379  1.0000
  C   C28       1.0  0.43286949838650923  0.6400741832785356  0.8740140468110839  1.0000
  C   C29       1.0  0.2514213051115279  0.7320909632090888  0.766768106505161  1.0000
  C   C30       1.0  0.24896307382750393  0.7682655042788299  0.7333525347143991  1.0000
  C   C31       1.0  0.24490918667106604  0.8096326637685962  0.6941252030054983  1.0000
  C   C32       1.0  0.06917228113812263  0.8202066267587682  0.6651113185967221  1.0000
  C   C33       1.0  0.06736427214116966  0.860146309950373  0.6260268562894283  1.0000
  C   C34       1.0  0.23608991898905182  0.8909357134348569  0.6134275574551964  1.0000
  C   C35       1.0  0.40975090059446034  0.8798504828326585  0.6431068002724203  1.0000
  C   C36       1.0  0.41574916629601694  0.8404944213788852  0.682734992313236  1.0000
  C   C37       1.0  0.24437087513740607  0.6079690817030965  0.11490624646489783  1.0000
  C   C38       1.0  0.4211995304515171  0.6190529932193911  0.1419688310341982  1.0000
  C   C39       1.0  0.42493188999453946  0.6588738892375903  0.1810447570198548  1.0000
  C   C40       1.0  0.24840166516038667  0.6901955504244199  0.19449789827017133  1.0000
  C   C41       1.0  0.06965698898594044  0.6796861123479018  0.16801817682249265  1.0000
  C   C42       1.0  0.07023432310251113  0.6393079782662455  0.12934227806147192  1.0000
  C   C43       1.0  0.2497008913633678  0.7318851818004075  0.23333972305971432  1.0000
  C   C44       1.0  0.2500679622063445  0.7682543159415829  0.26651796466105543  1.0000
  C   C45       1.0  0.25161242428747954  0.809948410438288  0.30535055289877994  1.0000
  C   C46       1.0  0.4304161847549823  0.8204551101119077  0.3317937289068666  1.0000
  C   C47       1.0  0.4299043082252183  0.8608211133082689  0.3704705996982014  1.0000
  C   C48       1.0  0.2558390029452725  0.8921588364712322  0.38495909868121464  1.0000
  C   C49       1.0  0.07893878131516634  0.8810720286338879  0.3579506746018311  1.0000
  C   C50       1.0  0.07510018613990614  0.8412496327299477  0.3188659318371734  1.0000
  C   C51       1.0  0.7793735100214293  0.38968102459472215  0.8867932211777544  1.0000
  C   C52       1.0  0.6016964247251977  0.3809148776732626  0.8591934968327309  1.0000
  C   C53       1.0  0.5926597422944299  0.3416012859979177  0.8198356075363833  1.0000
  C   C54       1.0  0.7643041627829704  0.3082576815591693  0.8066595139969479  1.0000
  C   C55       1.0  0.9438342887248296  0.31620631690089596  0.8337748502640141  1.0000
  C   C56       1.0  0.9485124110051476  0.3563231892464742  0.8726418130066236  1.0000
  C   C57       1.0  0.7551091126552266  0.2672812936954045  0.7673122711517807  1.0000
  C   C58       1.0  0.7433383905107221  0.23199466351471185  0.7333679868356031  1.0000
  C   C59       1.0  0.7346542866070324  0.1910734915974999  0.6939470864398204  1.0000
  C   C60       1.0  0.5553342345524757  0.18317670357165383  0.6667343758510429  1.0000
  C   C61       1.0  0.5509847713967561  0.1432107841398249  0.6277244944629318  1.0000
  C   C62       1.0  0.720388906051369  0.1099863142273065  0.6134926872822605  1.0000
  C   C63       1.0  0.897896239432825  0.11866826182272656  0.6412112133319355  1.0000
  C   C64       1.0  0.9065197417643419  0.1578093502599884  0.6807498545806753  1.0000
  O   O1        1.0  0.8999731038191431  0.04844736236422879  0.5568904324717111  1.0000
  O   O2        1.0  0.5594796756489658  0.045105598282859205  0.4407412066902411  1.0000
  O   O3        1.0  0.40908555969684113  0.9453282317382019  0.45056114232178157  1.0000
  O   O4        1.0  0.07659968976024353  0.9455898629289694  0.5479439994064279  1.0000
  O   O5        1.0  0.07402153915358411  0.9561397594139224  0.4389611694393097  1.0000
  O   O6        1.0  0.4123811387791535  0.9523006568405207  0.5588621896032607  1.0000
  O   O7        1.0  0.5603243636621755  0.055107432308275896  0.5501890876636324  1.0000
  O   O8        1.0  0.8943504453927603  0.054967530575687804  0.44867040585517515  1.0000
  O   O9        1.0  0.23298772451391167  0.033651470174284305  0.5005200526430471  1.0000
  O   O10       1.0  0.7421542744024878  0.967055258332415  0.5004958289746142  1.0000
  O   O11       1.0  0.9400526856739548  0.44492876828038425  0.9496945166064634  1.0000
  O   O12       1.0  0.6058483411685247  0.44520231518658443  0.051294143405272115  1.0000
  O   O13       1.0  0.42629943364978834  0.5440303288004954  0.0609093787099226  1.0000
  O   O14       1.0  0.0879496317134851  0.5477744782308562  0.9410290303294602  1.0000
  O   O15       1.0  0.09122513477165485  0.5547560428183544  0.049303457071822314  1.0000
  O   O16       1.0  0.4236724470945462  0.5545282959697602  0.9519785700936795  1.0000
  O   O17       1.0  0.6003260717809699  0.45155341652230163  0.9431320186064344  1.0000
  O   O18       1.0  0.9409140591551549  0.454902118174914  0.059093687957471316  1.0000
  O   O19       1.0  0.2673381116401287  0.466443190202142  0.9993358916018522  1.0000
  O   O20       1.0  0.7582268486269685  0.5330624288680782  0.9994267081717823  1.0000
  F   F1        1.0  0.12662743388604267  0.3668082239379374  0.1022061700725843  1.0000
  F   F2        1.0  0.37361279604279934  0.13315298327896127  0.3975905768159508  1.0000
  F   F3        1.0  0.6076170400413332  0.6328373120589176  0.9005942968551397  1.0000
  F   F4        1.0  0.8925669297127076  0.8674014138480503  0.5994694865137262  1.0000
  F   F5        1.0  0.8930777364397431  0.6319627233749897  0.1051754091902026  1.0000
  F   F6        1.0  0.6071347346749366  0.8681591554943895  0.3946275747274016  1.0000
  F   F7        1.0  0.12612844452633712  0.3612484551753496  0.8975784004560055  1.0000
  F   F8        1.0  0.37352590744496444  0.1383416241268591  0.6027071431344667  1.0000
