data_image0
_chemical_formula_structural       Zn4H30C54O15
_chemical_formula_sum              "Zn4 H30 C54 O15"
_cell_length_a       16.033552905324793
_cell_length_b       17.977545756001508
_cell_length_c       17.844379204857933
_cell_angle_alpha    63.78145742297482
_cell_angle_beta     75.95808221407745
_cell_angle_gamma    80.63973593027234

_space_group_name_H-M_alt    "P 1"
_space_group_IT_number       1

loop_
  _space_group_symop_operation_xyz
  'x, y, z'

loop_
  _atom_site_type_symbol
  _atom_site_label
  _atom_site_symmetry_multiplicity
  _atom_site_fract_x
  _atom_site_fract_y
  _atom_site_fract_z
  _atom_site_occupancy
  Zn  Zn1       1.0  0.564321006504791  0.4138102732585195  0.5834977502749937  1.0000
  Zn  Zn2       1.0  0.40686811338189  0.549200298139901  0.5645282713435408  1.0000
  Zn  Zn3       1.0  0.4502062844375204  0.44330348580054124  0.44950438584619695  1.0000
  Zn  Zn4       1.0  0.5719755726027955  0.5834927341257838  0.41360178087699506  1.0000
  H   H1        1.0  0.005998640889352199  0.5708798326165834  0.43031061281406124  1.0000
  H   H2        1.0  0.5079360735278016  0.6247160270873239  0.83074669512736  1.0000
  H   H3        1.0  0.4693265175733573  0.3907616505216182  0.1694046374810441  1.0000
  H   H4        1.0  0.4267131771521592  0.2571607746442055  0.007139253215577013  1.0000
  H   H5        1.0  0.6625835036610184  0.9080723482124282  0.6232913578799214  1.0000
  H   H6        1.0  0.317892808926061  0.8078800355419915  0.42718010619497454  1.0000
  H   H7        1.0  0.35002172401875253  0.09540327820614176  0.35437122717902986  1.0000
  H   H8        1.0  0.6958301131334611  0.025294709336030497  0.6408513473499724  1.0000
  H   H9        1.0  0.6634679869726697  0.17295801663703259  0.6214551857711541  1.0000
  H   H10       1.0  0.4933653376281201  0.21178890638466893  0.45469709644314094  1.0000
  H   H11       1.0  0.3950440842989239  0.21353564699357008  0.3182905329666  1.0000
  H   H12       1.0  0.5864665202308077  0.8494464170224559  0.5603789404433003  1.0000
  H   H13       1.0  0.22509719051385704  0.9172514330931419  0.3836297948091456  1.0000
  H   H14       1.0  0.7021518681433536  0.7710076534932282  0.15703432587359614  1.0000
  H   H15       1.0  0.7009498276502415  0.6618867650415439  0.19245971853967356  1.0000
  H   H16       1.0  0.7222730757812813  0.7275407780290237  0.08145164835099182  1.0000
  H   H17       1.0  0.5718818328202104  0.7942817835826473  0.09426830190317056  1.0000
  H   H18       1.0  0.5506218230029349  0.7293405645634647  0.20456876068940483  1.0000
  H   H19       1.0  0.6085744481931599  0.8188293091951093  0.3059465875367169  1.0000
  H   H20       1.0  0.6402908930536526  0.9135603006833788  0.29708736411567593  1.0000
  H   H21       1.0  0.7117088108992466  0.822848768944567  0.323989201766068  1.0000
  H   H22       1.0  0.6446696715637189  0.8495629843196182  0.4506643668973639  1.0000
  H   H23       1.0  0.5487556936248339  0.7204602048158363  0.8772162012105655  1.0000
  H   H24       1.0  0.6157643508814488  0.7532519012979645  0.4630159775098407  1.0000
  H   H25       1.0  0.4716364619024064  0.5486773215993421  0.7942839768574003  1.0000
  H   H26       1.0  0.43631413274025027  0.29630582954200685  0.8527207101694216  1.0000
  H   H27       1.0  0.4383778858842079  0.2926298260550553  0.12101778634016822  1.0000
  H   H28       1.0  0.5740291157263402  0.7512723195185983  0.9898346141039058  1.0000
  H   H29       1.0  0.4878655387797793  0.47324473116895394  0.20716684407300082  1.0000
  H   H30       1.0  0.9832875470393747  0.42128789766704233  0.6069591868597543  1.0000
  C   C1        1.0  0.46309755812704634  0.7172052656927405  0.4520376423345596  1.0000
  C   C2        1.0  0.5582580285439603  0.0879099429910113  0.4991255177163012  1.0000
  C   C3        1.0  0.6141301214245871  0.0349494628881928  0.5563173437500026  1.0000
  C   C4        1.0  0.5504818059665553  0.28527644893390647  0.5296962445276351  1.0000
  C   C5        1.0  0.519319335376295  0.054143995099835286  0.4564239803575277  1.0000
  C   C6        1.0  0.5330050187201252  0.9678594405954257  0.47629249398649165  1.0000
  C   C7        1.0  0.5839950959530642  0.9165078214960474  0.5384947419223992  1.0000
  C   C8        1.0  0.6247676557185147  0.9489102634464356  0.5753078657369103  1.0000
  C   C9        1.0  0.4590758149195438  0.10144587166901427  0.400599330946342  1.0000
  C   C10       1.0  0.4011618969755801  0.05998770265596678  0.3891097724204684  1.0000
  C   C11       1.0  0.40979828543300567  0.9726939034443515  0.4142225410768109  1.0000
  C   C12       1.0  0.8840859576271569  0.5184684062636364  0.495246015910908  1.0000
  C   C13       1.0  0.4866191445075003  0.9293640897506136  0.44338932250506263  1.0000
  C   C14       1.0  0.3484458796816342  0.928520363764825  0.4061631576670807  1.0000
  C   C15       1.0  0.3665897425995297  0.844497958412269  0.4260338581502979  1.0000
  C   C16       1.0  0.46014466690863304  0.44826575592997386  0.7238458943248319  1.0000
  C   C17       1.0  0.5129848642546974  0.8503754127435099  0.44034183024311363  1.0000
  C   C18       1.0  0.5321908920340235  0.5880779442704378  0.1830581783157967  1.0000
  C   C19       1.0  0.4539934685454981  0.4256248134401374  0.8157326115508212  1.0000
  C   C20       1.0  0.5566154217420451  0.6892748562032052  0.03779829751205449  1.0000
  C   C21       1.0  0.5585649393300472  0.6686187248105921  0.1220158627472686  1.0000
  C   C22       1.0  0.5080180058964744  0.533205424161224  0.1574295458506897  1.0000
  C   C23       1.0  0.10531800931319422  0.47264360435535474  0.5432054924242565  1.0000
  C   C24       1.0  0.5088802373775111  0.5530768371667419  0.07169705942934715  1.0000
  C   C25       1.0  0.5325314667565593  0.6343624701038308  0.010657507773331115  1.0000
  C   C26       1.0  0.4867235576563758  0.4954583510732958  0.043952760868897815  1.0000
  C   C27       1.0  0.4858887498971498  0.521642662976113  0.9564902592029085  1.0000
  C   C28       1.0  0.5266940793355984  0.5584055464050407  0.2763324340789028  1.0000
  C   C29       1.0  0.5078779019301509  0.6042227890487482  0.8980026384436925  1.0000
  C   C30       1.0  0.5309095092584218  0.6581512932108775  0.9235762150910819  1.0000
  C   C31       1.0  0.46781731185307524  0.41211393029609406  0.10232373340032548  1.0000
  C   C32       1.0  0.4508243430165067  0.3565702227457237  0.075520964207719  1.0000
  C   C33       1.0  0.45080387526596877  0.3797584868519905  0.9882869066105046  1.0000
  C   C34       1.0  0.8074100364841359  0.5157319164947793  0.49957615852152054  1.0000
  C   C35       1.0  0.4662512756251048  0.4635621536147098  0.9279898564189897  1.0000
  C   C36       1.0  0.43823682414552684  0.32074826410548934  0.9601341657896043  1.0000
  C   C37       1.0  0.44259648732109014  0.3421270162551408  0.8751457510061443  1.0000
  C   C38       1.0  0.4636879348492328  0.4851166434910254  0.8421971978190683  1.0000
  C   C39       1.0  0.2730818755818377  0.47972669919315786  0.530227588455169  1.0000
  C   C40       1.0  0.7184378761220033  0.5114783784467392  0.5008853133496487  1.0000
  C   C41       1.0  0.1821177719225205  0.47473161690179916  0.5387542696846808  1.0000
  C   C42       1.0  0.017085014363281907  0.46947372859874287  0.5493223385835152  1.0000
  C   C43       1.0  0.9723333189541634  0.5227244239500377  0.4880556547316744  1.0000
  C   C44       1.0  0.4569162999105175  0.19116216309568299  0.34215835068445705  1.0000
  C   C45       1.0  0.5754466344531224  0.19919291423797597  0.5366747222511422  1.0000
  C   C46       1.0  0.265226558930138  0.9646474217348666  0.3799763182066159  1.0000
  C   C47       1.0  0.5870839074272285  0.7323028780198653  0.14280003696312352  1.0000
  C   C48       1.0  0.68394702420661  0.7224688378314211  0.1434634093109182  1.0000
  C   C49       1.0  0.607014373196151  0.8208858505710664  0.4281470399267704  1.0000
  C   C50       1.0  0.6437960989957505  0.8456463047856885  0.3326610003643467  1.0000
  C   C51       1.0  0.4490550386577327  0.8065908110263533  0.43828107132812044  1.0000
  C   C52       1.0  0.6527464922495412  0.06699742202200547  0.5986146423254439  1.0000
  C   C53       1.0  0.634735406647309  0.14792448796889346  0.5887171997779745  1.0000
  C   C54       1.0  0.5385940325824451  0.16964975021296164  0.4931070863317403  1.0000
  O   O1        1.0  0.4970816836853018  0.498688921493098  0.5021729665806449  1.0000
  O   O2        1.0  0.2931775107378131  0.5163946621066343  0.5697957260591053  1.0000
  O   O3        1.0  0.6898866479514894  0.5643190122243239  0.4346417434416027  1.0000
  O   O4        1.0  0.32306174650560854  0.4473729320170816  0.4837923854682986  1.0000
  O   O5        1.0  0.6767855912608597  0.45585935875075717  0.5671824289456852  1.0000
  O   O6        1.0  0.5161038370655222  0.23743836907012647  0.31442697444442297  1.0000
  O   O7        1.0  0.23849304074420988  0.0379005894663109  0.3555200875332574  1.0000
  O   O8        1.0  0.4953236360152076  0.39267567849628177  0.6975477919046614  1.0000
  O   O9        1.0  0.5731358111191869  0.5917962939281692  0.30072648721983347  1.0000
  O   O10       1.0  0.40217895686431154  0.67156551576641  0.5033175990388018  1.0000
  O   O11       1.0  0.4933377409862347  0.3271251162919313  0.4853879614380859  1.0000
  O   O12       1.0  0.532293134241229  0.6941169736240197  0.4129741723713282  1.0000
  O   O13       1.0  0.5879852881268095  0.31027734706558613  0.5693182838600565  1.0000
  O   O14       1.0  0.4307584288147269  0.520819185388639  0.6775332728241708  1.0000
  O   O15       1.0  0.4755884983307794  0.5009087391799909  0.325606141396328  1.0000
