data_image0
_chemical_formula_structural       In16H80C128O80
_chemical_formula_sum              "In16 H80 C128 O80"
_cell_length_a       11.794157133042514
_cell_length_b       18.617392810821627
_cell_length_c       29.026489340456365
_cell_angle_alpha    90.02029474814637
_cell_angle_beta     90.00030403769537
_cell_angle_gamma    89.99996852866101

_space_group_name_H-M_alt    "P 1"
_space_group_IT_number       1

loop_
  _space_group_symop_operation_xyz
  'x, y, z'

loop_
  _atom_site_type_symbol
  _atom_site_label
  _atom_site_symmetry_multiplicity
  _atom_site_fract_x
  _atom_site_fract_y
  _atom_site_fract_z
  _atom_site_occupancy
  In  In1       1.0  0.0026552900902103993  0.0019377718697626003  0.8749248647566576  1.0000
  In  In2       1.0  0.003233140027120399  0.9998966390829834  0.7499245038886643  1.0000
  In  In3       1.0  0.5022897565521304  0.5020523165676067  0.8749982094289736  1.0000
  In  In4       1.0  0.5026510291156113  0.4980627239568634  0.6250753176951135  1.0000
  In  In5       1.0  0.5032478966949938  0.5001015748393981  0.7500751829457002  1.0000
  In  In6       1.0  0.0022954261381542998  0.9979528793337167  0.6249973420407147  1.0000
  In  In7       1.0  0.997356932456725  0.9980546564429029  0.1250699027706901  1.0000
  In  In8       1.0  0.9967646686019122  0.00010330917098139999  0.25007060904932393  1.0000
  In  In9       1.0  0.497708052088413  0.4979519292749118  0.12499897110842541  1.0000
  In  In10      1.0  0.4973501710721776  0.5019377633765886  0.37492737459592024  1.0000
  In  In11      1.0  0.4967702610359125  0.4998924665510245  0.2499261305291968  1.0000
  In  In12      1.0  0.99770831765192  0.0020449210989071003  0.37500052674607803  1.0000
  In  In13      1.0  0.499996211583408  0.5000089603079729  0.9999851732488241  1.0000
  In  In14      1.0  0.9999988054105413  0.9999992800515822  0.4999780413133338  1.0000
  In  In15      1.0  3.941256181900002e-06  9.38072490440008e-06  0.9999848788875527  1.0000
  In  In16      1.0  0.4999972087148592  0.5000050831249466  0.5000218452474314  1.0000
  H   H1        1.0  0.7603829842184311  0.8319340469361334  0.0094226694827739  1.0000
  H   H2        1.0  0.66014189420774  0.7128853529152649  0.012227594514030202  1.0000
  H   H3        1.0  0.6907413964933012  0.6942012769716753  0.8652189824101698  1.0000
  H   H4        1.0  0.7910189459287407  0.8132113242983362  0.8625184401343446  1.0000
  H   H5        1.0  0.28534152969173476  0.6856952410711513  0.7374166578304582  1.0000
  H   H6        1.0  0.18603977959101303  0.8051862693673753  0.7397272420420578  1.0000
  H   H7        1.0  0.16898907850144698  0.7925312265610102  0.8872902095894875  1.0000
  H   H8        1.0  0.26870289712958584  0.6732357209428201  0.885005488041344  1.0000
  H   H9        1.0  0.8138071912680616  0.20238797245220033  0.012310795745492004  1.0000
  H   H10       1.0  0.7140814734378439  0.32159907509961266  0.0101306197930882  1.0000
  H   H11       1.0  0.7387051227071024  0.3232259676134461  0.8625477535909667  1.0000
  H   H12       1.0  0.8384223613020152  0.2040159209924255  0.8646569600042113  1.0000
  H   H13       1.0  0.32933044456638777  0.3019584263156219  0.7397682508642447  1.0000
  H   H14       1.0  0.2299965499255805  0.18259095334259  0.7373837402879247  1.0000
  H   H15       1.0  0.22370626068358485  0.1776051755942518  0.885312834709808  1.0000
  H   H16       1.0  0.3230732221699597  0.29694738803237897  0.8876377415214591  1.0000
  H   H17       1.0  0.8426407194983411  0.9813401876980519  0.8126096956200186  1.0000
  H   H18       1.0  0.1445552010637243  0.952132538945143  0.9374906289673035  1.0000
  H   H19       1.0  0.66234743173559  0.4804517039891892  0.8130147874861535  1.0000
  H   H20       1.0  0.35820612227464466  0.45209288030920164  0.93667564232306  1.0000
  H   H21       1.0  0.2603801200411127  0.6680649007957414  0.4905799509503552  1.0000
  H   H22       1.0  0.1601363450769995  0.7871125537668318  0.4877710185330457  1.0000
  H   H23       1.0  0.19074821014926613  0.8058038552762737  0.6347793897555789  1.0000
  H   H24       1.0  0.2910233558837163  0.6867937746349567  0.637483594847687  1.0000
  H   H25       1.0  0.785342605669932  0.8142985802892112  0.7625863969917078  1.0000
  H   H26       1.0  0.6860375394081613  0.6948086606567967  0.760277664413067  1.0000
  H   H27       1.0  0.66899932718389  0.7074653203186398  0.6127132820083645  1.0000
  H   H28       1.0  0.768715613929089  0.8267624027049081  0.6149958086304607  1.0000
  H   H29       1.0  0.3137931530400023  0.29761001508635576  0.48768899202453053  1.0000
  H   H30       1.0  0.2140819824712068  0.1783957240099099  0.48987032916115686  1.0000
  H   H31       1.0  0.23871886775152967  0.17677283621836182  0.6374525966057263  1.0000
  H   H32       1.0  0.3384156248515069  0.2959844593445879  0.6353401617102108  1.0000
  H   H33       1.0  0.8293315924768974  0.19803766050630858  0.7602305731639876  1.0000
  H   H34       1.0  0.730009493870483  0.3174083910343483  0.7626183136325153  1.0000
  H   H35       1.0  0.7236867580112331  0.322402765313825  0.6146902401025969  1.0000
  H   H36       1.0  0.8230478593485913  0.20305944357142638  0.612361070199178  1.0000
  H   H37       1.0  0.3426374461541926  0.5186622075270008  0.6873907285271772  1.0000
  H   H38       1.0  0.6445513732630488  0.5478667020196396  0.5625131544115618  1.0000
  H   H39       1.0  0.16234839173995397  0.0195460515343413  0.6869850522904812  1.0000
  H   H40       1.0  0.8582141752297259  0.047903732467318605  0.5633180767695978  1.0000
  H   H41       1.0  0.2396190638356472  0.16806643995446535  0.9905783002446074  1.0000
  H   H42       1.0  0.33985252296483265  0.28711513459641935  0.9877757867954744  1.0000
  H   H43       1.0  0.3092555642935437  0.3057997469634159  0.134781642864013  1.0000
  H   H44       1.0  0.20897716698816277  0.1867929227840435  0.1374835635820233  1.0000
  H   H45       1.0  0.7146630619967453  0.3142955773515155  0.26258396621243923  1.0000
  H   H46       1.0  0.8139724430090709  0.1948072353346006  0.2602757939257287  1.0000
  H   H47       1.0  0.8309926204948893  0.20746120326205633  0.1127104146242814  1.0000
  H   H48       1.0  0.7312804976153088  0.32676100576019  0.1149944476703624  1.0000
  H   H49       1.0  0.18620333554440543  0.7976087538034805  0.9876874174310899  1.0000
  H   H50       1.0  0.28591972674913535  0.6783981893523077  0.9898717275935882  1.0000
  H   H51       1.0  0.2612867508114576  0.6767729076167723  0.1374521823909021  1.0000
  H   H52       1.0  0.1615813824811241  0.795982416306742  0.1353398753090715  1.0000
  H   H53       1.0  0.670669059852024  0.6980393747375115  0.2602320295083445  1.0000
  H   H54       1.0  0.7699978672400501  0.8174100710356311  0.2626186075480775  1.0000
  H   H55       1.0  0.7762974831295183  0.8224012200154858  0.11468916927580612  1.0000
  H   H56       1.0  0.676928825879763  0.7030579329591546  0.1123628842801736  1.0000
  H   H57       1.0  0.15735793701414738  0.018661372217884793  0.18738645105335655  1.0000
  H   H58       1.0  0.8554544778736497  0.04785881598903789  0.0625075835559485  1.0000
  H   H59       1.0  0.3376520726862394  0.5195434114916607  0.186985837073145  1.0000
  H   H60       1.0  0.641785751206875  0.5479038448871663  0.0633184366783013  1.0000
  H   H61       1.0  0.7396270152940828  0.33193397531728414  0.5094234301772289  1.0000
  H   H62       1.0  0.8398631593094306  0.21288685744321606  0.512224438854453  1.0000
  H   H63       1.0  0.8092529900040402  0.19420898494591654  0.3652188253680961  1.0000
  H   H64       1.0  0.7089761485530204  0.3132131585503757  0.36252013176313375  1.0000
  H   H65       1.0  0.21465181150568916  0.1857051301925381  0.23741767373507372  1.0000
  H   H66       1.0  0.3139636608158439  0.305190753828974  0.2397305399541239  1.0000
  H   H67       1.0  0.3310035687889368  0.2925276482267022  0.38729354352611983  1.0000
  H   H68       1.0  0.2312830426272682  0.173235936100312  0.38500688339684797  1.0000
  H   H69       1.0  0.68620211200286  0.7023915464238896  0.5123133558776303  1.0000
  H   H70       1.0  0.7859217613474383  0.8216031518380688  0.5101320184240024  1.0000
  H   H71       1.0  0.7612874197029098  0.823223354056907  0.3625500951689062  1.0000
  H   H72       1.0  0.6615796401815998  0.7040138789299702  0.3646604632359356  1.0000
  H   H73       1.0  0.17067639070683774  0.8019558430453556  0.23976798413130504  1.0000
  H   H74       1.0  0.2700027286743278  0.6825888714678001  0.2373764544819963  1.0000
  H   H75       1.0  0.2762974845797216  0.6775993315596478  0.3853052175945423  1.0000
  H   H76       1.0  0.17692875235286457  0.796940505040311  0.3876354207674595  1.0000
  H   H77       1.0  0.6573535795013612  0.4813393539839694  0.3126116193703795  1.0000
  H   H78       1.0  0.3554557620976411  0.45214023222687416  0.4374947063625215  1.0000
  H   H79       1.0  0.8376570477981032  0.9804522857645281  0.3130117830246419  1.0000
  H   H80       1.0  0.14179296004750339  0.9520897699334651  0.43667600185688127  1.0000
  C   C1        1.0  0.8453496685524015  0.8987112354461217  0.9347432673569004  1.0000
  C   C2        1.0  0.7812908683142225  0.8292802138792011  0.9358337608296098  1.0000
  C   C3        1.0  0.74444918351314  0.8012339914420181  0.9781251300052461  1.0000
  C   C4        1.0  0.6894457157377047  0.7351875439919268  0.9796280818339229  1.0000
  C   C5        1.0  0.6708277755498527  0.696348875227521  0.938915354992517  1.0000
  C   C6        1.0  0.7064374937603333  0.7248349914091036  0.8965551353287469  1.0000
  C   C7        1.0  0.7614977694127346  0.7908357852717672  0.8950625134037297  1.0000
  C   C8        1.0  0.6133383319814739  0.6246415301677358  0.9401757684861423  1.0000
  C   C9        1.0  0.3499850623109424  0.6047503748572183  0.8101194453650963  1.0000
  C   C10       1.0  0.28336137134388645  0.6731114474096385  0.8111029922802118  1.0000
  C   C11       1.0  0.2591219678338135  0.7095495989612814  0.7699911547400122  1.0000
  C   C12       1.0  0.20449320198611076  0.7756639128279231  0.7712359270757858  1.0000
  C   C13       1.0  0.17364937751685264  0.8060013038622033  0.8136663425333951  1.0000
  C   C14       1.0  0.19513572281169184  0.7686693452913858  0.8547019311708299  1.0000
  C   C15       1.0  0.2499145630182866  0.7025974674963463  0.8534674995393985  1.0000
  C   C16       1.0  0.11919187946519116  0.8786052248666393  0.8148199183435737  1.0000
  C   C17       1.0  0.8891047575618456  0.12458581028096917  0.9396071740411431  1.0000
  C   C18       1.0  0.8312464093462636  0.1961756040714917  0.9385839904554489  1.0000
  C   C19       1.0  0.7969796937721797  0.22931057766756865  0.9796938795207242  1.0000
  C   C20       1.0  0.7420795918087036  0.2953888327601817  0.9785725325575073  1.0000
  C   C21       1.0  0.7209027150453408  0.32918828141512796  0.9362573387813741  1.0000
  C   C22       1.0  0.755977457780666  0.2963696817134149  0.895159891484802  1.0000
  C   C23       1.0  0.8109335196123338  0.23029035057611943  0.896274348119981  1.0000
  C   C24       1.0  0.6573050850119415  0.3987708065578132  0.9352077221804722  1.0000
  C   C25       1.0  0.3860038750379786  0.37882360142447163  0.8148642359271747  1.0000
  C   C26       1.0  0.33072822474822766  0.306458209365438  0.8138022104108275  1.0000
  C   C27       1.0  0.3060225102610302  0.2740421199537407  0.7713466772468252  1.0000
  C   C28       1.0  0.25140989618469683  0.20790311539681025  0.7700969601546319  1.0000
  C   C29       1.0  0.22109771111297497  0.17340939999341734  0.8112417033803894  1.0000
  C   C30       1.0  0.24779085076930576  0.20518200942619558  0.8537154197278769  1.0000
  C   C31       1.0  0.3024585767469006  0.2713151001189402  0.8549441208744428  1.0000
  C   C32       1.0  0.15549999893560337  0.10462936272894299  0.8101639100340067  1.0000
  C   C33       1.0  0.3453447383344395  0.6012906223429225  0.5652595741944353  1.0000
  C   C34       1.0  0.28129010214606603  0.6707216655798262  0.5641682526369536  1.0000
  C   C35       1.0  0.24445123561699936  0.6987630662151287  0.5218761138727857  1.0000
  C   C36       1.0  0.189441754993986  0.764812217909359  0.5203723539324656  1.0000
  C   C37       1.0  0.17082685224284685  0.8036551897261999  0.5610836628302567  1.0000
  C   C38       1.0  0.20643714497003882  0.7751728214132285  0.6034443047684023  1.0000
  C   C39       1.0  0.2614974981551014  0.7091709347730841  0.6049380796305854  1.0000
  C   C40       1.0  0.11333902487039889  0.8753636280374975  0.5598207130762348  1.0000
  C   C41       1.0  0.8499910591302536  0.8952471839375491  0.689882027687361  1.0000
  C   C42       1.0  0.7833741986998957  0.8268861352575454  0.6889028148160394  1.0000
  C   C43       1.0  0.7591260338531923  0.7904496027511526  0.7300121883314006  1.0000
  C   C44       1.0  0.7044998537429664  0.724333695499375  0.7287648856202367  1.0000
  C   C45       1.0  0.6736538099316789  0.693993092103483  0.6863340582978597  1.0000
  C   C46       1.0  0.6951395901024071  0.7313255807440909  0.6452995499079109  1.0000
  C   C47       1.0  0.7499243232595348  0.7973963665649818  0.6465378899751784  1.0000
  C   C48       1.0  0.6191921215292026  0.6213918759535417  0.6851827761794738  1.0000
  C   C49       1.0  0.3890995226515344  0.3754161646093408  0.5603917804602007  1.0000
  C   C50       1.0  0.33123870716942594  0.3038199450548689  0.5614151821701654  1.0000
  C   C51       1.0  0.29697063971703125  0.2706860571446725  0.5203041853065002  1.0000
  C   C52       1.0  0.24207739355423996  0.20460835808426475  0.5214261021871281  1.0000
  C   C53       1.0  0.2209095741761899  0.17081106509042598  0.5637409057488441  1.0000
  C   C54       1.0  0.25598142952644304  0.2036291162291874  0.604840496197319  1.0000
  C   C55       1.0  0.3109306356480772  0.2697078914037404  0.6037258142791233  1.0000
  C   C56       1.0  0.15730269243904624  0.10122265362871019  0.5647921061243083  1.0000
  C   C57       1.0  0.8860007251830094  0.12117407737720494  0.685134366809976  1.0000
  C   C58       1.0  0.8307173939820343  0.19354432203653715  0.6861945503442045  1.0000
  C   C59       1.0  0.8060223761193509  0.225960420492278  0.7286524414772799  1.0000
  C   C60       1.0  0.7514071763589455  0.292097833341721  0.7299061739689067  1.0000
  C   C61       1.0  0.7210978187630771  0.32659531953924403  0.6887634324765132  1.0000
  C   C62       1.0  0.7477794131145359  0.29482270038473507  0.6462873624734868  1.0000
  C   C63       1.0  0.8024370068815473  0.22868636710482787  0.6450543009332392  1.0000
  C   C64       1.0  0.6555026035818513  0.3953743049115985  0.6898410832908795  1.0000
  C   C65       1.0  0.15464559645541698  0.1012887132509803  0.0652535681429001  1.0000
  C   C66       1.0  0.21870270095689648  0.17072403267236774  0.0641661758065055  1.0000
  C   C67       1.0  0.2555503209039642  0.19877186668211516  0.0218754958588647  1.0000
  C   C68       1.0  0.3105537886830447  0.2648150914277565  0.0203728881516625  1.0000
  C   C69       1.0  0.3291725767414206  0.30365429705856417  0.0610845815204826  1.0000
  C   C70       1.0  0.29356201065371584  0.2751676437449646  0.10344480111809423  1.0000
  C   C71       1.0  0.23849749562742062  0.20916685041426322  0.10493949011599572  1.0000
  C   C72       1.0  0.38666541180553077  0.3753632529830213  0.05982210114877521  1.0000
  C   C73       1.0  0.6500127463606659  0.395244203668831  0.1898818681529519  1.0000
  C   C74       1.0  0.716627958568516  0.3268836688698116  0.18890073288427806  1.0000
  C   C75       1.0  0.7408792323446959  0.2904465908721506  0.23000981446452334  1.0000
  C   C76       1.0  0.795507998177463  0.22433066498923174  0.2287626303426222  1.0000
  C   C77       1.0  0.8263501268880444  0.19399166238166285  0.1863315256616218  1.0000
  C   C78       1.0  0.8048612379668185  0.2313252326150276  0.14529697075589357  1.0000
  C   C79       1.0  0.7500739190136088  0.2973944258131881  0.1465355362068976  1.0000
  C   C80       1.0  0.8808101685838352  0.12139150183318752  0.1851800173883831  1.0000
  C   C81       1.0  0.11089559470614317  0.8754195096483672  0.06038931760367211  1.0000
  C   C82       1.0  0.16875733443981739  0.8038211219197251  0.0614131891750276  1.0000
  C   C83       1.0  0.20302913728902175  0.7706829258839534  0.020304677775484906  1.0000
  C   C84       1.0  0.25792499987176143  0.7046100424678698  0.021427403438167403  1.0000
  C   C85       1.0  0.2790976372397083  0.6708138163410026  0.06374156406239712  1.0000
  C   C86       1.0  0.24401865512672316  0.7036308050011185  0.10484038921030961  1.0000
  C   C87       1.0  0.1890685284305818  0.769710135871776  0.10372489904282393  1.0000
  C   C88       1.0  0.3426969630330987  0.6012248457005994  0.06479152439516872  1.0000
  C   C89       1.0  0.6139854548453627  0.6211817193921476  0.18513570083482025  1.0000
  C   C90       1.0  0.6692746711758985  0.6935438886558813  0.18619772597445217  1.0000
  C   C91       1.0  0.6939752984023284  0.7259610525098593  0.2286539482892422  1.0000
  C   C92       1.0  0.748586216730686  0.7920995202005371  0.2299046988530975  1.0000
  C   C93       1.0  0.778900945436078  0.8265953842206952  0.1887603004039776  1.0000
  C   C94       1.0  0.7522095015309063  0.7948211632140526  0.1462858948367796  1.0000
  C   C95       1.0  0.6975400797916862  0.7286880722559699  0.14505616014963615  1.0000
  C   C96       1.0  0.8444978097346977  0.8953732728681129  0.18983774897556321  1.0000
  C   C97       1.0  0.6546547661314434  0.39872114627144833  0.434748976184359  1.0000
  C   C98       1.0  0.7187136416857525  0.3292777479315632  0.4358361620909363  1.0000
  C   C99       1.0  0.7555584433396377  0.301235272322593  0.4781255446277441  1.0000
  C   C100      1.0  0.810560293051971  0.23519149150860122  0.4796275826476162  1.0000
  C   C101      1.0  0.8291735000299523  0.19635442752606738  0.438913862875225  1.0000
  C   C102      1.0  0.7935606636719112  0.224838407324512  0.3965535656429538  1.0000
  C   C103      1.0  0.7385020062478843  0.29083653421629657  0.3950604793517557  1.0000
  C   C104      1.0  0.8866698061662034  0.12464008022828212  0.4401747448433113  1.0000
  C   C105      1.0  0.15000844528639584  0.1047495427627183  0.3101179080418319  1.0000
  C   C106      1.0  0.216628697255274  0.17311650113551014  0.31110194481528464  1.0000
  C   C107      1.0  0.24087177483745145  0.20955249651061075  0.26999257122916026  1.0000
  C   C108      1.0  0.29550304221491064  0.275667866717896  0.2712402183935225  1.0000
  C   C109      1.0  0.32634993391742734  0.3060025621025417  0.3136727675637445  1.0000
  C   C110      1.0  0.30485906648169697  0.26867061059496666  0.3547072760134213  1.0000
  C   C111      1.0  0.25007518119709715  0.20260089886117777  0.3534682470517225  1.0000
  C   C112      1.0  0.38081840534710665  0.37860700139847137  0.3148254281325934  1.0000
  C   C113      1.0  0.6108881115102845  0.6245843232576644  0.4396129788935924  1.0000
  C   C114      1.0  0.6687506227507356  0.6961778572395616  0.4385899213721843  1.0000
  C   C115      1.0  0.7030254732010588  0.7293155042768901  0.4796978180836646  1.0000
  C   C116      1.0  0.7579238066092129  0.7953915911430726  0.47857280039660577  1.0000
  C   C117      1.0  0.7790958653716229  0.8291904954441377  0.43625765252229354  1.0000
  C   C118      1.0  0.7440197706582977  0.796368148134192  0.39516150667644473  1.0000
  C   C119      1.0  0.6890654772873005  0.7302899107124572  0.3962786002447558  1.0000
  C   C120      1.0  0.8426925725811286  0.8987746098502782  0.43520645161386545  1.0000
  C   C121      1.0  0.11399708345955867  0.8788204999978221  0.3148624680401824  1.0000
  C   C122      1.0  0.16927447949231578  0.8064534771585414  0.31379849524888936  1.0000
  C   C123      1.0  0.19397204100783227  0.7740416766450834  0.2713440497696524  1.0000
  C   C124      1.0  0.248594023806028  0.7079037273706489  0.2700930733234586  1.0000
  C   C125      1.0  0.2789016856667459  0.6734019448244268  0.31123857039540337  1.0000
  C   C126      1.0  0.25221161251857177  0.7051740259628116  0.3537111951948476  1.0000
  C   C127      1.0  0.19754977933463638  0.7713065980787163  0.3549394330930014  1.0000
  C   C128      1.0  0.3445011402213892  0.6046240331844357  0.3101588526386366  1.0000
  O   O1        1.0  0.9098693490286891  0.011675321142817599  0.8123634888621326  1.0000
  O   O2        1.0  0.09513410246118072  0.9940256828784938  0.9376882464173519  1.0000
  O   O3        1.0  0.5962231481680645  0.5117406427335282  0.8126474756977873  1.0000
  O   O4        1.0  0.40734145424158186  0.49412200033059867  0.9372564816168989  1.0000
  O   O5        1.0  0.8702130665122565  0.9263958580174145  0.9735257184468511  1.0000
  O   O6        1.0  0.870389765711529  0.9243319340015644  0.8951756542967146  1.0000
  O   O7        1.0  0.5915261048031225  0.5979261559769141  0.9797442856284065  1.0000
  O   O8        1.0  0.5910991152800377  0.5960539927621865  0.9014118142725495  1.0000
  O   O9        1.0  0.37745316381980115  0.5782244019396287  0.8489177081505305  1.0000
  O   O10       1.0  0.3752379994885615  0.5790781829921343  0.7705786756913896  1.0000
  O   O11       1.0  0.09779034029848789  0.9073291446643661  0.7760339870594919  1.0000
  O   O12       1.0  0.09968246400913469  0.9058775525680575  0.8544390930348555  1.0000
  O   O13       1.0  0.9145433860053132  0.09700271065746338  0.9008775003572609  1.0000
  O   O14       1.0  0.9079991276852508  0.0969975907098402  0.9791807970455936  1.0000
  O   O15       1.0  0.634778408052817  0.4251805463844959  0.8955857202874784  1.0000
  O   O16       1.0  0.6301444174853756  0.4258173036513994  0.9739070116833517  1.0000
  O   O17       1.0  0.4043386217974357  0.4065374386707461  0.8544576668550334  1.0000
  O   O18       1.0  0.40931176254667884  0.4069072527665867  0.7760810315088662  1.0000
  O   O19       1.0  0.1314793852786593  0.0786445594042746  0.7705882531025949  1.0000
  O   O20       1.0  0.12768903330371728  0.07804000303345758  0.8489052604882164  1.0000
  O   O21       1.0  0.40986312133671277  0.48832288700620546  0.6876365437974741  1.0000
  O   O22       1.0  0.5951320047720898  0.5059719635449724  0.5623154294807834  1.0000
  O   O23       1.0  0.09621437318986639  0.9882634469577167  0.6873486240560354  1.0000
  O   O24       1.0  0.9073724293640806  0.0058837258683083985  0.5627332111212767  1.0000
  O   O25       1.0  0.37020850555692425  0.5736033053652605  0.5264761432151985  1.0000
  O   O26       1.0  0.37038367551155454  0.5756699153360857  0.6048275861251327  1.0000
  O   O27       1.0  0.09151015127687151  0.9020757869659518  0.5202524926858132  1.0000
  O   O28       1.0  0.09111215602442259  0.9039522472015947  0.598584274642299  1.0000
  O   O29       1.0  0.8774654170851547  0.9217731481056359  0.651086236128869  1.0000
  O   O30       1.0  0.8752334641218055  0.9209199044124148  0.729423196748691  1.0000
  O   O31       1.0  0.5977800883083049  0.592668500057691  0.7239665939799096  1.0000
  O   O32       1.0  0.5996822162466201  0.5941217034347089  0.6455635593961732  1.0000
  O   O33       1.0  0.41453608547936227  0.40300032991001433  0.5991218540092548  1.0000
  O   O34       1.0  0.4079958988176315  0.40300169172106587  0.5208168200973305  1.0000
  O   O35       1.0  0.13477994416712846  0.07481829316006379  0.6044154378230929  1.0000
  O   O36       1.0  0.13015002558281447  0.0741745539579313  0.5260910349074805  1.0000
  O   O37       1.0  0.9043315913231567  0.09346184500925148  0.6455399423372725  1.0000
  O   O38       1.0  0.9093082925854502  0.09309202965937402  0.7239183110479319  1.0000
  O   O39       1.0  0.6314875675992297  0.42135696843032366  0.7294187548991857  1.0000
  O   O40       1.0  0.6276911120385477  0.4219668967967748  0.651099328340571  1.0000
  O   O41       1.0  0.09013269898859019  0.9883224785817716  0.18763162381949175  1.0000
  O   O42       1.0  0.9048925339915284  0.0059715792670261  0.06230514366114901  1.0000
  O   O43       1.0  0.40378398711727215  0.48825984282809276  0.18734832634139315  1.0000
  O   O44       1.0  0.592629222272599  0.505883855053689  0.0627334643155635  1.0000
  O   O45       1.0  0.12978219847827427  0.0736078499850521  0.0264687059192354  1.0000
  O   O46       1.0  0.1296122823094024  0.0756626430185747  0.104819802506384  1.0000
  O   O47       1.0  0.408481030495956  0.4020786272618082  0.020253928523104005  1.0000
  O   O48       1.0  0.40890378063244975  0.40394917908076167  0.0985863996786378  1.0000
  O   O49       1.0  0.6225480363724569  0.4217760855708973  0.1510856731663353  1.0000
  O   O50       1.0  0.6247606570683927  0.4209137101385778  0.22942367104011654  1.0000
  O   O51       1.0  0.9022227301473006  0.0926654330622227  0.22396422585888595  1.0000
  O   O52       1.0  0.9003187361661913  0.09412078570549198  0.1455615319177284  1.0000
  O   O53       1.0  0.0854552705138758  0.9029988495240886  0.09911967985485863  1.0000
  O   O54       1.0  0.09200292033519018  0.9030082662628303  0.0208153501533843  1.0000
  O   O55       1.0  0.36521685697876183  0.5748161804050298  0.1044145599500297  1.0000
  O   O56       1.0  0.36986102206138577  0.5741815711338062  0.0260912017486703  1.0000
  O   O57       1.0  0.5956591868661647  0.5934651966606949  0.14554295861579192  1.0000
  O   O58       1.0  0.5906767194576759  0.5930964565651422  0.22391856054357365  1.0000
  O   O59       1.0  0.8685201191605642  0.9213516310492267  0.22941512769050124  1.0000
  O   O60       1.0  0.8723079274899347  0.9219658554452721  0.15109674342479454  1.0000
  O   O61       1.0  0.5901304479413482  0.5116808226788265  0.3123644263121506  1.0000
  O   O62       1.0  0.40489887118209816  0.4940247659832408  0.43769553069573425  1.0000
  O   O63       1.0  0.903785131184918  0.011737038073960098  0.3126451108973711  1.0000
  O   O64       1.0  0.09266014220167308  0.9941189065353555  0.4372560454610976  1.0000
  O   O65       1.0  0.6297901510489295  0.4263993325337124  0.4735344731310748  1.0000
  O   O66       1.0  0.6296183725820085  0.4243423902329368  0.39518027529584293  1.0000
  O   O67       1.0  0.908491048877515  0.0979295333174051  0.4797453770115824  1.0000
  O   O68       1.0  0.9089026101454677  0.09605146070900619  0.401409805232035  1.0000
  O   O69       1.0  0.12254850125962238  0.07821820762468687  0.3489150770152278  1.0000
  O   O70       1.0  0.1247626487748903  0.07907950759508253  0.27057536125136045  1.0000
  O   O71       1.0  0.4022117852415334  0.4073303764120979  0.2760381651827686  1.0000
  O   O72       1.0  0.4003393330344449  0.40587717382688737  0.3544443004149471  1.0000
  O   O73       1.0  0.5854540923124816  0.5970055292781992  0.4008829059997155  1.0000
  O   O74       1.0  0.5919891917022965  0.5969950357785194  0.47918621623244934  1.0000
  O   O75       1.0  0.8652170166159576  0.9251811192014471  0.3955844982295389  1.0000
  O   O76       1.0  0.8698460873076497  0.9258237835196184  0.4739064894233493  1.0000
  O   O77       1.0  0.0956585864185016  0.9065311207935024  0.3544562032830498  1.0000
  O   O78       1.0  0.0906929075695402  0.9069068449494677  0.2760792133536611  1.0000
  O   O79       1.0  0.3685136325822214  0.5786376100951571  0.270582558622543  1.0000
  O   O80       1.0  0.37230839239137486  0.5780352018449121  0.3489030196314289  1.0000
