data_image0
_chemical_formula_structural       Zn2H24C42N24
_chemical_formula_sum              "Zn2 H24 C42 N24"
_cell_length_a       8.557752615154762
_cell_length_b       8.802729556114205
_cell_length_c       14.859888544028019
_cell_angle_alpha    90.00019493148456
_cell_angle_beta     90.00001872204957
_cell_angle_gamma    113.33459241726028

_space_group_name_H-M_alt    "P 1"
_space_group_IT_number       1

loop_
  _space_group_symop_operation_xyz
  'x, y, z'

loop_
  _atom_site_type_symbol
  _atom_site_label
  _atom_site_symmetry_multiplicity
  _atom_site_fract_x
  _atom_site_fract_y
  _atom_site_fract_z
  _atom_site_occupancy
  Zn  Zn1       1.0  0.6763466709398501  0.5381288806174922  0.9378972729233795  1.0000
  Zn  Zn2       1.0  0.3236504066466069  0.46187005725213476  0.4378961055023893  1.0000
  H   H1        1.0  0.3940580103373322  0.9598530960741984  0.1523621678958307  1.0000
  H   H2        1.0  0.605939747272984  0.040145047665639304  0.6523596325107803  1.0000
  H   H3        1.0  0.7083925949665825  0.048774421257903086  0.1306666394653533  1.0000
  H   H4        1.0  0.291604583158744  0.9512223309294116  0.6306638529841209  1.0000
  H   H5        1.0  0.8128348724553689  0.872696984896649  0.0374635454924146  1.0000
  H   H6        1.0  0.18716298981110677  0.12730157864090333  0.5374617803388588  1.0000
  H   H7        1.0  0.3224833073098381  0.5383740357181637  0.982509284368355  1.0000
  H   H8        1.0  0.6775167665013201  0.4616264567737646  0.4825075088967311  1.0000
  H   H9        1.0  0.6625088520621034  0.30873853983661087  0.1826746882188104  1.0000
  H   H10       1.0  0.3374883464570431  0.6912610567562609  0.6826774458106329  1.0000
  H   H11       1.0  0.44340737544085573  0.2580286461621527  0.3024803609755011  1.0000
  H   H12       1.0  0.5565914080873854  0.7419718027717721  0.8024832606819958  1.0000
  H   H13       1.0  0.590368921528075  0.7600066285873339  0.3481770480145556  1.0000
  H   H14       1.0  0.4096358635440894  0.23999414553463083  0.848177568669044  1.0000
  H   H15       1.0  0.8113494453735798  0.8331939479527152  0.22902012421989332  1.0000
  H   H16       1.0  0.18865508588942964  0.16680350407055042  0.7290197844116193  1.0000
  H   H17       1.0  0.10205640999389949  0.9512523216907098  0.2499981270566494  1.0000
  H   H18       1.0  0.8979456967062943  0.048747753921354296  0.7499970087752461  1.0000
  H   H19       1.0  0.19435271750379005  0.9903412560501649  0.4107840375082931  1.0000
  H   H20       1.0  0.8056527892666735  0.0096612006691288  0.9107828238376146  1.0000
  H   H21       1.0  0.2738451680222911  0.7737728474122818  0.4850353941838464  1.0000
  H   H22       1.0  0.7261624298756287  0.22622890038422128  0.9850352727900855  1.0000
  H   H23       1.0  0.16320151445230383  0.4866328167550051  0.2538644525406966  1.0000
  H   H24       1.0  0.8367971000750386  0.5133672863123024  0.7538662729394758  1.0000
  C   C1        1.0  0.44289329045040665  0.8867998028585263  0.11064173245131313  1.0000
  C   C2        1.0  0.5571053302651378  0.11320051848816348  0.6106400073993258  1.0000
  C   C3        1.0  0.6175108199314535  0.9368721514618413  0.09905490162394413  1.0000
  C   C4        1.0  0.3824867523717046  0.0631256130400288  0.5990523710010578  1.0000
  C   C5        1.0  0.676754885320264  0.8392495127883207  0.04719372043290801  1.0000
  C   C6        1.0  0.3232435148380262  0.16075035717978645  0.5471927204103652  1.0000
  C   C7        1.0  0.4041982769387004  0.6520939088962052  0.0163043123725402  1.0000
  C   C8        1.0  0.5958011843805123  0.34790574133824487  0.5163030648335081  1.0000
  C   C9        1.0  0.3330362210235549  0.7421013922158294  0.0675961669681584  1.0000
  C   C10       1.0  0.6669615855888508  0.25789986009244353  0.5675974440112981  1.0000
  C   C11       1.0  0.14801124370083582  0.6819320811804771  0.07393193791024541  1.0000
  C   C12       1.0  0.8519884179463304  0.3180679790325485  0.5739320238209943  1.0000
  C   C13       1.0  0.8901489237648192  0.6105279996930193  0.1284235953241364  1.0000
  C   C14       1.0  0.10985209584607965  0.389472448204323  0.6284236871912654  1.0000
  C   C15       1.0  0.752977470889938  0.5755057585252956  0.19477263201193304  1.0000
  C   C16       1.0  0.24702277123029154  0.42449268697853887  0.6947721464591368  1.0000
  C   C17       1.0  0.6471359859562965  0.4120913330374306  0.21578876685804  1.0000
  C   C18       1.0  0.35286366475150294  0.5879084991727908  0.7157906472141136  1.0000
  C   C19       1.0  0.5259844497439801  0.38361538282175184  0.283341050758402  1.0000
  C   C20       1.0  0.4740127550512838  0.6163812183315827  0.7833430105662489  1.0000
  C   C21       1.0  0.609464845742984  0.6642861454351561  0.30901717159043335  1.0000
  C   C22       1.0  0.39053762652716983  0.3357118756605431  0.809016534636939  1.0000
  C   C23       1.0  0.7329192605976189  0.7039068075023919  0.2424211646543597  1.0000
  C   C24       1.0  0.2670829801719279  0.2960907398187373  0.7424210984375537  1.0000
  C   C25       1.0  0.12333233067420225  0.714589294830219  0.24183632326239046  1.0000
  C   C26       1.0  0.8766685791153038  0.2854107226985789  0.7418356753343646  1.0000
  C   C27       1.0  0.1329772589059673  0.8583209506457266  0.285324008347871  1.0000
  C   C28       1.0  0.8670261391352059  0.14167937630469402  0.785323743544815  1.0000
  C   C29       1.0  0.1854412509722892  0.8801883958701424  0.37451178345904174  1.0000
  C   C30       1.0  0.8145646337761931  0.11981504001017382  0.8745114651408489  1.0000
  C   C31       1.0  0.23052010102692586  0.7613640001004001  0.41545612101558055  1.0000
  C   C32       1.0  0.7694844138585637  0.2386360154595053  0.9154587243041663  1.0000
  C   C33       1.0  0.1714482287193988  0.6007669516508897  0.2865128609956785  1.0000
  C   C34       1.0  0.8285551734541914  0.3992333837566804  0.7865124322827058  1.0000
  C   C35       1.0  0.9931242850210751  0.8312730494765859  0.8630760387764697  1.0000
  C   C36       1.0  0.00687102026041232  0.1687216444602058  0.363068168763462  1.0000
  C   C37       1.0  0.2838840718258737  0.9305345121738426  0.8329971122448117  1.0000
  C   C38       1.0  0.7161062943401292  0.0694624421041112  0.3329945579913273  1.0000
  C   C39       1.0  0.3685900170709218  0.26377694392580503  0.05184792816120171  1.0000
  C   C40       1.0  0.6314085825227593  0.7362291451468934  0.5518488113214702  1.0000
  C   C41       1.0  0.11050234952895013  0.22232412021521242  0.1167447156140611  1.0000
  C   C42       1.0  0.889492465975216  0.777681193279477  0.6167457295395808  1.0000
  N   N1        1.0  0.5723967785059756  0.6983395057395613  0.007375639719740001  1.0000
  N   N2        1.0  0.4276033162469303  0.30165884378659064  0.5073735954664187  1.0000
  N   N3        1.0  0.0398749286671106  0.6218529238892856  0.006695831791987001  1.0000
  N   N4        1.0  0.9601229870556409  0.3781429463796826  0.5066967310355466  1.0000
  N   N5        1.0  0.8788363683973304  0.5778345672602824  0.04089464122154851  1.0000
  N   N6        1.0  0.12116283474452426  0.42216154632077973  0.5408941277414457  1.0000
  N   N7        1.0  0.059320773008956086  0.6793475494764536  0.15199240493929267  1.0000
  N   N8        1.0  0.9406793203981463  0.32065059168046867  0.6519918394645003  1.0000
  N   N9        1.0  0.5082944898353857  0.5072544969068888  0.32937045499470236  1.0000
  N   N10       1.0  0.49170722831031094  0.4927473805678204  0.8293714973453634  1.0000
  N   N11       1.0  0.22653477730658986  0.6263781859823823  0.37179415050419357  1.0000
  N   N12       1.0  0.7734687609146247  0.3736252305205312  0.8717929873359015  1.0000
  N   N13       1.0  0.8458461824672411  0.7458754716818133  0.8674508041742544  1.0000
  N   N14       1.0  0.15414815274412058  0.2541254393619994  0.36744784319246554  1.0000
  N   N15       1.0  0.14506955423887308  0.9418834801229609  0.8616749840291079  1.0000
  N   N16       1.0  0.8549229278770267  0.05811862698494251  0.3616690679261865  1.0000
  N   N17       1.0  0.4195301265612841  0.9416270175875354  0.8089505221554918  1.0000
  N   N18       1.0  0.5804594915406794  0.05837100280346161  0.30894792060663434  1.0000
  N   N19       1.0  0.49568222475470236  0.3312099424626497  0.010575154169053701  1.0000
  N   N20       1.0  0.5043172166475145  0.668789667010927  0.5105731868876688  1.0000
  N   N21       1.0  0.23694992995287828  0.178840029155289  0.0994740292892118  1.0000
  N   N22       1.0  0.7630471625936436  0.8211651615133418  0.5994751069926353  1.0000
  N   N23       1.0  0.9907955543355127  0.25014797388057275  0.1369105211685522  1.0000
  N   N24       1.0  0.00920483030476057  0.7498537715796729  0.6369106437061661  1.0000
