data_image0
_chemical_formula_structural       Zn2H22C40N2O10
_chemical_formula_sum              "Zn2 H22 C40 N2 O10"
_cell_length_a       13.971841974306782
_cell_length_b       15.197964994299063
_cell_length_c       16.09466896715532
_cell_angle_alpha    89.49818272577039
_cell_angle_beta     89.92858712272623
_cell_angle_gamma    90.03478732350666

_space_group_name_H-M_alt    "P 1"
_space_group_IT_number       1

loop_
  _space_group_symop_operation_xyz
  'x, y, z'

loop_
  _atom_site_type_symbol
  _atom_site_label
  _atom_site_symmetry_multiplicity
  _atom_site_fract_x
  _atom_site_fract_y
  _atom_site_fract_z
  _atom_site_occupancy
  Zn  Zn1       1.0  0.6002306964271185  0.5016720203188784  0.49425107662361967  1.0000
  Zn  Zn2       1.0  0.3992439958879999  0.49798581823357335  0.4940384257727573  1.0000
  H   H1        1.0  0.40619454885797535  0.6265576086430331  0.0435469117225793  1.0000
  H   H2        1.0  0.6649845295918484  0.5134769605234554  0.04251340664806239  1.0000
  H   H3        1.0  0.6384173157345575  0.951041600286111  0.485905557731698  1.0000
  H   H4        1.0  0.364222447166924  0.050867639911423616  0.4861196044466354  1.0000
  H   H5        1.0  0.6403927263500723  0.7889367483224777  0.4642560691329649  1.0000
  H   H6        1.0  0.36437293477751365  0.21372520388890592  0.4649264986404731  1.0000
  H   H7        1.0  0.36747784617255524  0.7666315513481978  0.5861322058738168  1.0000
  H   H8        1.0  0.6361932348007289  0.23009843841561664  0.5884605085787058  1.0000
  H   H9        1.0  0.06679099820819093  0.5658768989518492  0.3788596522557058  1.0000
  H   H10       1.0  0.9300643164485438  0.3712428146522769  0.5549308078471853  1.0000
  H   H11       1.0  0.24619296480946673  0.5600851083017561  0.3812330784110642  1.0000
  H   H12       1.0  0.5918050310672955  0.37470224610565595  0.9443007271225595  1.0000
  H   H13       1.0  0.7508720115210752  0.3774619606373052  0.5498289900532285  1.0000
  H   H14       1.0  0.3606472504152905  0.003618205696582802  0.6515169746691143  1.0000
  H   H15       1.0  0.6403059076046915  0.9922500767834922  0.6531481307547082  1.0000
  H   H16       1.0  0.24855765635037136  0.436693500875329  0.6110019718197391  1.0000
  H   H17       1.0  0.7535115441693495  0.6262305235934849  0.44435906569494676  1.0000
  H   H18       1.0  0.06905195925191522  0.4348781377328948  0.6185252196262567  1.0000
  H   H19       1.0  0.9330300097936972  0.6318486367900534  0.4444153623483587  1.0000
  H   H20       1.0  0.5689969326102756  0.6367174362002006  0.9383908122406837  1.0000
  H   H21       1.0  0.42938775653642136  0.36426525065420634  0.0499642337309254  1.0000
  H   H22       1.0  0.33315288786972996  0.487372635490516  0.9456230283436752  1.0000
  C   C1        1.0  0.5026588599220861  0.6705399106838001  0.5043528467258653  1.0000
  C   C2        1.0  0.5757054256781377  0.1003535429165581  0.5806445069563608  1.0000
  C   C3        1.0  0.502821647630853  0.9508149816028751  0.5500279401434938  1.0000
  C   C4        1.0  0.4994068845713502  0.048258291217713606  0.5505424526681466  1.0000
  C   C5        1.0  0.10386046721055216  0.5370096328392364  0.4319455120366129  1.0000
  C   C6        1.0  0.8942918841388593  0.42962412726927823  0.5304974317207395  1.0000
  C   C7        1.0  0.2031816575834356  0.5341280189637274  0.4324622986633031  1.0000
  C   C8        1.0  0.7949364020257124  0.432128798315425  0.5278107851171115  1.0000
  C   C9        1.0  0.20442578825316107  0.4633769715778372  0.5609410525389222  1.0000
  C   C10       1.0  0.7964716973262542  0.5714356078123686  0.46755376692519235  1.0000
  C   C11       1.0  0.10503836842922003  0.4627727860526819  0.5643062470909115  1.0000
  C   C12       1.0  0.503849785398238  0.329233750414062  0.5049743865204732  1.0000
  C   C13       1.0  0.8958291282918298  0.573586501885309  0.4675835242479423  1.0000
  C   C14       1.0  0.05257720826082851  0.5004246785541682  0.49880900073286233  1.0000
  C   C15       1.0  0.9469133887367394  0.501292284530237  0.4993374705978511  1.0000
  C   C16       1.0  0.49645454234158154  0.5020897464804365  0.3331302379590468  1.0000
  C   C17       1.0  0.49569621795520663  0.4973019279543324  0.6555737352984536  1.0000
  C   C18       1.0  0.5380258112330696  0.5762490646196385  0.9641023530856714  1.0000
  C   C19       1.0  0.46008906299017854  0.42478298789914964  0.0241320781242109  1.0000
  C   C20       1.0  0.44733593586122583  0.5705086363002607  0.0207946167829292  1.0000
  C   C21       1.0  0.550722992336418  0.43059830250657444  0.9674444831927573  1.0000
  C   C22       1.0  0.49769851269876164  0.5025497139617201  0.2433765730415658  1.0000
  C   C23       1.0  0.5806434982349773  0.8199544291118032  0.49618717155313163  1.0000
  C   C24       1.0  0.4959415617279321  0.49697622480003645  0.7452017601898148  1.0000
  C   C25       1.0  0.5912800135790734  0.5077937031048522  0.020406279868303998  1.0000
  C   C26       1.0  0.40676256600959  0.49319435974330633  0.9679271750857339  1.0000
  C   C27       1.0  0.5006954969923427  0.5022011058826622  0.07963086952216258  1.0000
  C   C28       1.0  0.49717842325518563  0.49906278574548685  0.9087517816162958  1.0000
  C   C29       1.0  0.4998716365095037  0.5026254524212704  0.1675897331515941  1.0000
  C   C30       1.0  0.4966181418161498  0.49759428069150163  0.8209393027783918  1.0000
  C   C31       1.0  0.5800965919433171  0.9101913412006015  0.509660799986115  1.0000
  C   C32       1.0  0.4228719540975805  0.09059649065537913  0.5101338187421547  1.0000
  C   C33       1.0  0.34859927466209945  0.9348415289695354  0.6302879724248455  1.0000
  C   C34       1.0  0.4234346737061971  0.1811383242398534  0.4968784275003486  1.0000
  C   C35       1.0  0.6528724620476186  0.061377947410491615  0.6320920034040824  1.0000
  C   C36       1.0  0.5030369309273582  0.7675704849421409  0.5216034498873084  1.0000
  C   C37       1.0  0.5016966238391805  0.23204444592027337  0.5225254333533584  1.0000
  C   C38       1.0  0.4270985456908323  0.8066742293407362  0.5637548550666267  1.0000
  C   C39       1.0  0.5764494621368145  0.19130158470203185  0.5652796761693182  1.0000
  C   C40       1.0  0.42670255262164153  0.897355777934692  0.579314724899227  1.0000
  N   N1        1.0  0.2524303595096455  0.49809551236118216  0.49594220330772026  1.0000
  N   N2        1.0  0.7470365062341318  0.5017330110250954  0.49670517150661203  1.0000
  O   O1        1.0  0.5809011909858129  0.6364301754691937  0.4795498867255716  1.0000
  O   O2        1.0  0.7254196704815999  0.10086647817880133  0.6531611114456694  1.0000
  O   O3        1.0  0.4266958025067497  0.36472545422008557  0.47957224921191965  1.0000
  O   O4        1.0  0.4241645034685889  0.6299833995692766  0.5162574327795822  1.0000
  O   O5        1.0  0.5830292487082431  0.3685808928153876  0.5173060008360864  1.0000
  O   O6        1.0  0.5754622729523291  0.48536113130340663  0.36944097761602995  1.0000
  O   O7        1.0  0.4175403437729203  0.47556546460632637  0.6201490528956768  1.0000
  O   O8        1.0  0.41641773291254225  0.5183311905767881  0.3682650896261705  1.0000
  O   O9        1.0  0.5734691243025907  0.5194204751388442  0.6196596570069275  1.0000
  O   O10       1.0  0.27593809014979354  0.8947922137268665  0.6506926318213857  1.0000
