data_image0
_chemical_formula_structural       CoH18C18N2O6
_chemical_formula_sum              "Co1 H18 C18 N2 O6"
_cell_length_a       8.14929458730106
_cell_length_b       6.858339876891863
_cell_length_c       9.29637079573492
_cell_angle_alpha    107.06084670412045
_cell_angle_beta     98.49766362721834
_cell_angle_gamma    100.80288517187208

_space_group_name_H-M_alt    "P 1"
_space_group_IT_number       1

loop_
  _space_group_symop_operation_xyz
  'x, y, z'

loop_
  _atom_site_type_symbol
  _atom_site_label
  _atom_site_symmetry_multiplicity
  _atom_site_fract_x
  _atom_site_fract_y
  _atom_site_fract_z
  _atom_site_occupancy
  Co  Co1       1.0  4.133975849524736e-06  0.5000002217134066  3.110098162972191e-06  1.0000
  H   H1        1.0  0.6503688102948432  0.5870565275496205  0.6419464702272251  1.0000
  H   H2        1.0  0.3496234842630699  0.41293937822104704  0.3580361584681242  1.0000
  H   H3        1.0  0.15884277361126917  0.4424242587255164  0.4927412664993369  1.0000
  H   H4        1.0  0.8411459991099336  0.5575631051533206  0.507259645768201  1.0000
  H   H5        1.0  0.2528151803152596  0.12261688885170229  0.48478266879429555  1.0000
  H   H6        1.0  0.7471828542026416  0.877372097861837  0.5152196374669346  1.0000
  H   H7        1.0  0.584028186971274  0.6626241848281894  0.8870004737320444  1.0000
  H   H8        1.0  0.4159786894180897  0.3373823582946328  0.11298924185764751  1.0000
  H   H9        1.0  0.36836466483525504  0.6454765735767296  0.05106833939971273  1.0000
  H   H10       1.0  0.6316506579410941  0.3545286324168443  0.9489274477905384  1.0000
  H   H11       1.0  0.4664798939927053  0.8196260394738956  0.3424089295156421  1.0000
  H   H12       1.0  0.5335289088570718  0.1803903450990488  0.6575927172546585  1.0000
  H   H13       1.0  0.9653231937965786  0.44465039353007524  0.6729676243874964  1.0000
  H   H14       1.0  0.034679506749341685  0.5553494412718931  0.327042829553811  1.0000
  H   H15       1.0  0.09840731975854308  0.18728515761146977  0.1259015511640555  1.0000
  H   H16       1.0  0.9015929794447787  0.8127150725893981  0.8741076333181539  1.0000
  H   H17       1.0  0.08262499646962598  0.15469240825813557  0.9491261738435385  1.0000
  H   H18       1.0  0.9173727121961832  0.8453033926287786  0.0508828783445452  1.0000
  C   C1        1.0  0.5176037354128766  0.5365274659478132  0.5780232100447407  1.0000
  C   C2        1.0  0.4823844938424172  0.46346749058339737  0.42195768194042665  1.0000
  C   C3        1.0  0.39189583304312237  0.5482258816520014  0.673435093733687  1.0000
  C   C4        1.0  0.6080927852993413  0.451769511369953  0.32656099752619383  1.0000
  C   C5        1.0  0.2135052347327928  0.4916248728885505  0.6156164810163886  1.0000
  C   C6        1.0  0.7864845425930582  0.5083702756670833  0.38437861647931737  1.0000
  C   C7        1.0  0.2845363935972003  0.995052369389114  0.4004212123281619  1.0000
  C   C8        1.0  0.715463683270599  0.004947611388466582  0.5995792868542155  1.0000
  C   C9        1.0  0.4472119206681029  0.6116818535829508  0.8346848123974198  1.0000
  C   C10       1.0  0.5527866637130147  0.3883179975260164  0.16530365259937704  1.0000
  C   C11       1.0  0.1540453648914237  0.8915405105085128  0.2553184639169928  1.0000
  C   C12       1.0  0.8459622163668359  0.10846323349687742  0.7446890491276223  1.0000
  C   C13       1.0  0.3288959997975169  0.6035414580458819  0.9268355997720478  1.0000
  C   C14       1.0  0.6711125860653908  0.39647007063631173  0.0731660985007423  1.0000
  C   C15       1.0  0.4364661040450173  0.9457911805612298  0.4298195802824624  1.0000
  C   C16       1.0  0.5635350885951951  0.054216709604794744  0.5701794467779993  1.0000
  C   C17       1.0  0.1032371182784999  0.4910859271223201  0.715122399000002  1.0000
  C   C18       1.0  0.8967574238702198  0.5089119780228228  0.2848834958584803  1.0000
  N   N1        1.0  0.1579247371090275  0.5397655439595325  0.8693228828811216  1.0000
  N   N2        1.0  0.8420833036123768  0.4602361482295194  0.1306745757467241  1.0000
  O   O1        1.0  0.04246785450727224  0.9877743261252261  0.22195637746219177  1.0000
  O   O2        1.0  0.9575340129073525  0.012218938969688458  0.778048324316437  1.0000
  O   O3        1.0  0.1376716732902779  0.25869321217546565  0.054736033784692516  1.0000
  O   O4        1.0  0.8623275881678012  0.7413038086381576  0.9452691430045448  1.0000
  O   O5        1.0  0.16242965710305407  0.7064536493953496  0.17450995604623643  1.0000
  O   O6        1.0  0.8375752070308948  0.29355372561711585  0.825493689359071  1.0000
