data_image0
_chemical_formula_structural       Cu4H32C48N12O4
_chemical_formula_sum              "Cu4 H32 C48 N12 O4"
_cell_length_a       4.757574694919172
_cell_length_b       11.392712065157564
_cell_length_c       18.2385614491695
_cell_angle_alpha    90.00047672534514
_cell_angle_beta     91.22096831345829
_cell_angle_gamma    90.00241465286166

_space_group_name_H-M_alt    "P 1"
_space_group_IT_number       1

loop_
  _space_group_symop_operation_xyz
  'x, y, z'

loop_
  _atom_site_type_symbol
  _atom_site_label
  _atom_site_symmetry_multiplicity
  _atom_site_fract_x
  _atom_site_fract_y
  _atom_site_fract_z
  _atom_site_occupancy
  Cu  Cu1       1.0  0.19946910346843785  0.3382506862370888  0.7516178017262478  1.0000
  Cu  Cu2       1.0  0.30048599170667245  0.8382500751979899  0.7483884651305106  1.0000
  Cu  Cu3       1.0  0.8005289199356154  0.6617474410350963  0.2483776673946282  1.0000
  Cu  Cu4       1.0  0.6995222370146549  0.16174892995066864  0.25161476485732254  1.0000
  H   H1        1.0  0.6734870360990255  0.3451785255075207  0.6402713158281942  1.0000
  H   H2        1.0  0.8264708525241815  0.8451566653052891  0.8597211755505614  1.0000
  H   H3        1.0  0.3265153238163947  0.6548336458486756  0.3597208992901174  1.0000
  H   H4        1.0  0.17353752905670916  0.15483882880820934  0.14027821746132932  1.0000
  H   H5        1.0  0.6804950148014015  0.283120758126614  0.8617998700166256  1.0000
  H   H6        1.0  0.8194404303548949  0.7831535424371407  0.6382145414636755  1.0000
  H   H7        1.0  0.3194988258208014  0.7168756136006491  0.13819501618587546  1.0000
  H   H8        1.0  0.18057811353884287  0.21685599587002702  0.3617937087363502  1.0000
  H   H9        1.0  0.383441805280043  0.7444695448808503  0.8807447497583781  1.0000
  H   H10       1.0  0.11655992159884215  0.24448939293929323  0.6192564005193619  1.0000
  H   H11       1.0  0.6165390056832719  0.2555162937455221  0.11926044669949933  1.0000
  H   H12       1.0  0.8834464674655679  0.7555140009309932  0.3807402344443674  1.0000
  H   H13       1.0  0.831989732139455  0.4609125870649037  0.8148342461005458  1.0000
  H   H14       1.0  0.6679504230263476  0.9609399093382928  0.6851851183314752  1.0000
  H   H15       1.0  0.16800577269043515  0.5390697406666688  0.18517162019383457  1.0000
  H   H16       1.0  0.3320558786276066  0.039064362296777184  0.3148137091860051  1.0000
  H   H17       1.0  0.0211808476898483  0.4385887056677403  0.5570246600824263  1.0000
  H   H18       1.0  0.4787646651795327  0.9385368048289487  0.9429722647592983  1.0000
  H   H19       1.0  0.9788358348272725  0.5614278546261033  0.442977543240339  1.0000
  H   H20       1.0  0.5212291973557015  0.061460444649767985  0.05702207330858762  1.0000
  H   H21       1.0  0.4080252309368859  0.15484662936486868  0.942462141774428  1.0000
  H   H22       1.0  0.0919159331865913  0.6549038816867989  0.5575439969327293  1.0000
  H   H23       1.0  0.5919582075857547  0.8451488645099088  0.057529916800184815  1.0000
  H   H24       1.0  0.9081068812377707  0.34511267867938483  0.4424626436533004  1.0000
  H   H25       1.0  0.11985033121322888  0.7565152092001168  0.9984106758729896  1.0000
  H   H26       1.0  0.38017569307318405  0.25651525794314256  0.5015945864170348  1.0000
  H   H27       1.0  0.880128421397863  0.2434741404204174  0.0015934069344609994  1.0000
  H   H28       1.0  0.6198369590866618  0.7434881359834973  0.4984031969839224  1.0000
  H   H29       1.0  0.5880059577116299  0.4840093476483812  0.9352137011542684  1.0000
  H   H30       1.0  0.9119536892103283  0.9840156490995678  0.5648026742676252  1.0000
  H   H31       1.0  0.41196867795336084  0.51598263518985  0.064788154337073  1.0000
  H   H32       1.0  0.08806308013727458  0.01598950037999459  0.43519733646472514  1.0000
  C   C1        1.0  0.2919586862005801  0.5907357461404172  0.7703935893271352  1.0000
  C   C2        1.0  0.207985838855798  0.09074241047704847  0.7296143823758785  1.0000
  C   C3        1.0  0.7080244023902366  0.4092579922687561  0.22960723944414244  1.0000
  C   C4        1.0  0.7920226302805417  0.9092548391340426  0.27038281809143433  1.0000
  C   C5        1.0  0.5508003678429033  0.5129894393196677  0.6854611776523856  1.0000
  C   C6        1.0  0.9491687008384841  0.012973654926227594  0.8145442008002777  1.0000
  C   C7        1.0  0.44921423363566493  0.487015710150878  0.31454046010568965  1.0000
  C   C8        1.0  0.050839746626486694  0.9870271057040223  0.18545354781692686  1.0000
  C   C9        1.0  0.907573792092421  0.13647420256974385  0.8144061747050986  1.0000
  C   C10       1.0  0.5923813504995363  0.6364862689238533  0.6856047707019999  1.0000
  C   C11       1.0  0.09243465527588769  0.8635248025522557  0.18559157390599523  1.0000
  C   C12       1.0  0.40761636728205985  0.36352063592689604  0.3143983723768572  1.0000
  C   C13       1.0  0.12829318606855372  0.6021543534085578  0.8365703543404879  1.0000
  C   C14       1.0  0.37166304244408366  0.10216472113641117  0.6634394282168402  1.0000
  C   C15       1.0  0.8716898150151451  0.3978385072571483  0.1634326669784301  1.0000
  C   C16       1.0  0.6283454486052804  0.8978334062261336  0.3365572241158504  1.0000
  C   C17       1.0  0.7038284600582472  0.43990247842632596  0.6392477068050726  1.0000
  C   C18       1.0  0.796131253821997  0.939874874072664  0.8607503076751686  1.0000
  C   C19       1.0  0.296177863750394  0.5601070597308248  0.3607505725930623  1.0000
  C   C20       1.0  0.20386876253350283  0.06012325322985387  0.1392479195213667  1.0000
  C   C21       1.0  0.7155694967349645  0.18867030615103175  0.8614815896940871  1.0000
  C   C22       1.0  0.7843913073996872  0.6886990184932952  0.6385319116907695  1.0000
  C   C23       1.0  0.28442432207086904  0.8113269433330139  0.1385138446491467  1.0000
  C   C24       1.0  0.21563360881631163  0.3113087643486523  0.3614747462520001  1.0000
  C   C25       1.0  0.205918944889106  0.6862440985341461  0.8896987728203811  1.0000
  C   C26       1.0  0.2940635809780687  0.18625705519464458  0.6103062528679148  1.0000
  C   C27       1.0  0.7940576178915891  0.31374349557178494  0.11030748514436793  1.0000
  C   C28       1.0  0.7059428081830035  0.8137480941838927  0.3896903821019181  1.0000
  C   C29       1.0  0.9043771963993661  0.5277034378209534  0.8536991956247848  1.0000
  C   C30       1.0  0.595587122149638  0.027722351333579785  0.646307877632971  1.0000
  C   C31       1.0  0.09561850559945378  0.47228591191962715  0.1463017374549764  1.0000
  C   C32       1.0  0.40441705541300615  0.972282798041277  0.3536914806379415  1.0000
  C   C33       1.0  0.8952998822938268  0.49277003236592504  0.5929709407385959  1.0000
  C   C34       1.0  0.604654923014749  0.9927319266477779  0.9070328361888542  1.0000
  C   C35       1.0  0.1047210044831886  0.5072412614371868  0.4070312973404172  1.0000
  C   C36       1.0  0.39534511525378246  0.007267078406201196  0.09296484287306583  1.0000
  C   C37       1.0  0.5644860461785726  0.11535228145533685  0.9072967206878604  1.0000
  C   C38       1.0  0.9354648663328716  0.6153908498587269  0.5927091271424773  1.0000
  C   C39       1.0  0.43551618182369367  0.8846467236049801  0.09269878321065761  1.0000
  C   C40       1.0  0.06455799143424198  0.3846186884691247  0.40729641714376913  1.0000
  C   C41       1.0  0.06590256157451789  0.6949084982789412  0.9548390526527657  1.0000
  C   C42       1.0  0.43408284561211724  0.19491776640266778  0.5451704358295759  1.0000
  C   C43       1.0  0.9340614969766744  0.3050808512198768  0.0451643603059608  1.0000
  C   C44       1.0  0.5659171492653383  0.8050873829355109  0.4548283395290725  1.0000
  C   C45       1.0  0.7642832593345119  0.538964233626899  0.9188366486141678  1.0000
  C   C46       1.0  0.7356905112767292  0.03897682667383858  0.581175505803131  1.0000
  C   C47       1.0  0.2357040116998377  0.4610251160483258  0.08116476305409043  1.0000
  C   C48       1.0  0.2643158997490431  0.9610283227020343  0.4188205810290314  1.0000
  N   N1        1.0  0.3565992012150474  0.48630881623461863  0.7387355679196193  1.0000
  N   N2        1.0  0.1433533879342406  0.9863128320709931  0.7612688325027721  1.0000
  N   N3        1.0  0.6433945083639613  0.513690188771008  0.2612626071180842  1.0000
  N   N4        1.0  0.856659220447881  0.013689684106850593  0.2387300471704777  1.0000
  N   N5        1.0  0.07528159910707899  0.18383171750252095  0.7607055963373173  1.0000
  N   N6        1.0  0.42466246981581424  0.6838356439977599  0.7393078697569708  1.0000
  N   N7        1.0  0.9247204978036692  0.8161690430820413  0.23929319639335492  1.0000
  N   N8        1.0  0.5753414669451757  0.3161642388816687  0.2606975180100122  1.0000
  N   N9        1.0  0.8426741409901196  0.6230337823996802  0.9692325441803719  1.0000
  N   N10       1.0  0.6573049010363688  0.12303142514259237  0.530774679293316  1.0000
  N   N11       1.0  0.1572879028415812  0.37695732257972725  0.030768658846476213  1.0000
  N   N12       1.0  0.3427119337119962  0.8769702133124747  0.4692236870137947  1.0000
  O   O1        1.0  0.7081607546259362  0.6351408378108158  0.029907062700552007  1.0000
  O   O2        1.0  0.7918154473105474  0.13512413376737697  0.4700982965370245  1.0000
  O   O3        1.0  0.29179511405244096  0.3648590446428271  0.970090799368926  1.0000
  O   O4        1.0  0.2081950588932884  0.8648801379017139  0.5299005657550424  1.0000
