data_image0
_chemical_formula_structural       Mn8As8H32C48S20N8
_chemical_formula_sum              "Mn8 As8 H32 C48 S20 N8"
_cell_length_a       11.811654474
_cell_length_b       12.352
_cell_length_c       12.36820197245471
_cell_angle_alpha    112.2700493467099
_cell_angle_beta     90.0
_cell_angle_gamma    90.0

_space_group_name_H-M_alt    "P 1"
_space_group_IT_number       1

loop_
  _space_group_symop_operation_xyz
  'x, y, z'

loop_
  _atom_site_type_symbol
  _atom_site_label
  _atom_site_symmetry_multiplicity
  _atom_site_fract_x
  _atom_site_fract_y
  _atom_site_fract_z
  _atom_site_occupancy
  Mn  Mn1       1.0  0.7925604343241305  0.2770995074799103  0.1387463744710828  1.0000
  Mn  Mn2       1.0  0.292560200402626  0.22289263299072812  0.8612525415346397  1.0000
  Mn  Mn3       1.0  0.2074324139258579  0.7228900962642797  0.8612586574046546  1.0000
  Mn  Mn4       1.0  0.7074385741974966  0.7771048430374279  0.1387455007753715  1.0000
  Mn  Mn5       1.0  0.6544459979773052  0.012149008192807299  0.0041718970435198  1.0000
  Mn  Mn6       1.0  0.1544483039201339  0.487853510385598  0.9958287663536324  1.0000
  Mn  Mn7       1.0  0.3455519300013705  0.9878502720436302  0.9958287663536324  1.0000
  Mn  Mn8       1.0  0.8455555504086618  0.5121473890218269  0.0041718970435198  1.0000
  As  As1       1.0  0.200794055161424  0.2574008261419181  0.12226148370309178  1.0000
  As  As2       1.0  0.700805295161736  0.2425929334997079  0.8777374323026379  1.0000
  As  As3       1.0  0.7991954066027844  0.7425908362841582  0.8777383059983491  1.0000
  As  As4       1.0  0.2992002524099604  0.7574041030175493  0.12226585218166969  1.0000
  As  As5       1.0  0.4995235860469549  0.2551163877726381  0.126966335133325  1.0000
  As  As6       1.0  0.9995356726687136  0.24488366351563678  0.8730299597852564  1.0000
  As  As7       1.0  0.5004624892314666  0.7448812347591556  0.8730299597852564  1.0000
  As  As8       1.0  0.0004707215244295  0.7551188550627684  0.126970703611903  1.0000
  H   H1        1.0  0.9882806871548198  0.0825819268037122  0.1091272160056533  1.0000
  H   H2        1.0  0.48828468634054906  0.41740506314670967  0.8908751947829359  1.0000
  H   H3        1.0  0.0117147009595158  0.9174104372378834  0.8908786895657954  1.0000
  H   H4        1.0  0.5117234010954874  0.5825899841249722  0.10912284752707539  1.0000
  H   H5        1.0  0.1183737640715563  0.030506042634243585  0.239645997919915  1.0000
  H   H6        1.0  0.6183756912359542  0.4694848872736586  0.760362528738689  1.0000
  H   H7        1.0  0.881628397014353  0.9694936076767816  0.7603599076515408  1.0000
  H   H8        1.0  0.381633242821529  0.5305067751524177  0.23963726096275198  1.0000
  H   H9        1.0  0.1228202199102029  0.1573468063774541  0.4550294658087068  1.0000
  H   H10       1.0  0.6228196072102605  0.3426546096081893  0.5449746923713192  1.0000
  H   H11       1.0  0.8771870209043868  0.8426575164092327  0.5449738186756008  1.0000
  H   H12       1.0  0.3771834004970884  0.6573461047619347  0.455023349938692  1.0000
  H   H13       1.0  0.0438456781088519  0.3316249203199604  0.6207791537717497  1.0000
  H   H14       1.0  0.5438391390587825  0.1683774517548073  0.37922325701683945  1.0000
  H   H15       1.0  0.9561590228413905  0.6683792559630816  0.37922587810398767  1.0000
  H   H16       1.0  0.4561554024340992  0.8316279736246412  0.6207765326846015  1.0000
  H   H17       1.0  0.9102814532601968  0.4973560071599294  0.6898203366352433  1.0000
  H   H18       1.0  0.4102795260957919  0.0026471359666757938  0.3101777056747679  1.0000
  H   H19       1.0  0.0897215544471592  0.5026463649148454  0.3101820741533459  1.0000
  H   H20       1.0  0.5897209417472169  0.9973571097526914  0.6898168418523838  1.0000
  H   H21       1.0  0.759432983731898  0.6199134405039075  0.6433554510711446  1.0000
  H   H22       1.0  0.2594327498103866  0.8800880834517102  0.3566425912388667  1.0000
  H   H23       1.0  0.24057171721835152  0.3800925014537597  0.3566478334131631  1.0000
  H   H24       1.0  0.7405711045184091  0.11991229937748933  0.6433545773754261  1.0000
  H   H25       1.0  0.6497828070482754  0.6615430188626162  0.4924358741901358  1.0000
  H   H26       1.0  0.1497825731267639  0.8384521363790469  0.5075560522498606  1.0000
  H   H27       1.0  0.35022104728052744  0.3384583585893708  0.5075639155113052  1.0000
  H   H28       1.0  0.8502229744449252  0.1615433504035408  0.4924367478858541  1.0000
  H   H29       1.0  0.6748995255107886  0.5313577434799157  0.2803803132832883  1.0000
  H   H30       1.0  0.1748942118606038  0.9686367872135407  0.7196142342438562  1.0000
  H   H31       1.0  0.3251017889536669  0.4686386299554783  0.7196212238095895  1.0000
  H   H32       1.0  0.825102869496618  0.0313653612902769  0.2803811869789996  1.0000
  C   C1        1.0  0.9922013910749996  0.137006953072877  0.20213736713972  1.0000
  C   C2        1.0  0.4922028503963816  0.36298327521950563  0.7978650436488692  1.0000
  C   C3        1.0  0.0077973835251228  0.8629914096080852  0.7978694121274543  1.0000
  C   C4        1.0  0.5078010039324141  0.6370142008086503  0.20213299866113488  1.0000
  C   C5        1.0  0.0650679379160479  0.10784358532321647  0.2771231756543315  1.0000
  C   C6        1.0  0.565069018458999  0.3921477840955915  0.7228801088299689  1.0000
  C   C7        1.0  0.9349359164127549  0.8921534511940334  0.7228801088299689  1.0000
  C   C8        1.0  0.4349356824912505  0.6078469316351658  0.2771170597843238  1.0000
  C   C9        1.0  0.0674367847242223  0.17774014401689436  0.39466058662144116  1.0000
  C   C10       1.0  0.5674353254028333  0.3222588432122677  0.6053435715585778  1.0000
  C   C11       1.0  0.9325687628474739  0.8222635542215855  0.6053453189500146  1.0000
  C   C12       1.0  0.4325651424401826  0.6777410615723695  0.3946544707514335  1.0000
  C   C13       1.0  0.995856255860879  0.2766611517818234  0.4375800149703366  1.0000
  C   C14       1.0  0.495848402346347  0.22333956258830767  0.5624180273396746  1.0000
  C   C15       1.0  0.004150138332264  0.7233407422483821  0.562423269513971  1.0000
  C   C16       1.0  0.5041461391465347  0.7766666338429715  0.4375773938831884  1.0000
  C   C17       1.0  0.9253267629914603  0.2995838009324032  0.3555696928997136  1.0000
  C   C18       1.0  0.4253214493412685  0.20041643539315854  0.6444292231060089  1.0000
  C   C19       1.0  0.0746762447158957  0.7004168054677463  0.6444344652803053  1.0000
  C   C20       1.0  0.5746713989087198  0.799590902164546  0.3555670718125654  1.0000
  C   C21       1.0  0.9894507179943091  0.3505277335646326  0.5586392933683157  1.0000
  C   C22       1.0  0.489446250965571  0.1494788329412344  0.4413613700288366  1.0000
  C   C23       1.0  0.0105505964701464  0.6494788714748907  0.4413657385074217  1.0000
  C   C24       1.0  0.5105474439058639  0.850526553904551  0.5586340511940193  1.0000
  C   C25       1.0  0.9154407643570579  0.4423130813655547  0.596991040514375  1.0000
  C   C26       1.0  0.415435450706866  0.057690061761050494  0.4030070017956291  1.0000
  C   C27       1.0  0.0845647832146383  0.5576863839081767  0.4030122439699255  1.0000
  C   C28       1.0  0.5845607840289091  0.9423184169230723  0.5969901668186637  1.0000
  C   C29       1.0  0.8444109182125743  0.4687942449060003  0.5166949094383924  1.0000
  C   C30       1.0  0.3444039113194961  0.031207279049617384  0.48330313287161886  1.0000
  C   C31       1.0  0.1555920894947747  0.5312087902506306  0.48330924874162656  1.0000
  C   C32       1.0  0.655589783551946  0.9688003900490115  0.5166940357426739  1.0000
  C   C33       1.0  0.8510755222418638  0.3990229024914811  0.3953272164526922  1.0000
  C   C34       1.0  0.3510668221058921  0.10097828992321208  0.6046699521616077  1.0000
  C   C35       1.0  0.1489291787083786  0.600975421655825  0.604675194335897  1.0000
  C   C36       1.0  0.6489243329012098  0.8990300037236167  0.395324595365544  1.0000
  C   C37       1.0  0.768286104201188  0.5638471032886867  0.5512128797829945  1.0000
  C   C38       1.0  0.2682799439295565  0.9361490465757568  0.4487816677441572  1.0000
  C   C39       1.0  0.23171775012760784  0.43615526878608074  0.4487895310055947  1.0000
  C   C40       1.0  0.7317196772920127  0.0638511512161486  0.5512128797829945  1.0000
  C   C41       1.0  0.7071710418203025  0.587277115642685  0.4673756599703793  1.0000
  C   C42       1.0  0.2071674214130113  0.9127188491844646  0.532616266469617  1.0000
  C   C43       1.0  0.2928328125085002  0.4127249248911582  0.5326258771224914  1.0000
  C   C44       1.0  0.7928364329157915  0.0872811635701467  0.4673756599703793  1.0000
  C   C45       1.0  0.7210564801694375  0.514986338311246  0.3490545439460959  1.0000
  C   C46       1.0  0.2210503198977989  0.9850080073449233  0.6509373824939075  1.0000
  C   C47       1.0  0.2789456809164719  0.4850116542951355  0.650946993146782  1.0000
  C   C48       1.0  0.778946761459423  0.01499347807703799  0.3490562913375257  1.0000
  S   S1        1.0  0.3489367225457158  0.1735420497890487  0.1948455026946405  1.0000
  S   S2        1.0  0.848943729438794  0.32645642086189497  0.8051551607025117  1.0000
  S   S3        1.0  0.6510552790828257  0.8264538456017831  0.8051569080939486  1.0000
  S   S4        1.0  0.1510575850256615  0.6735415717444865  0.194846376390359  1.0000
  S   S5        1.0  0.1854879860245404  0.1021902314485033  0.9502978615098527  1.0000
  S   S6        1.0  0.6854932996747252  0.397803821200398  0.0496975597130032  1.0000
  S   S7        1.0  0.8145057088468944  0.89780577191231  0.0496984334087216  1.0000
  S   S8        1.0  0.3145105546540705  0.6021896454339597  0.950304851075586  1.0000
  S   S9        1.0  0.304009908849288  0.377229836471031  0.060015032422313694  1.0000
  S   S10       1.0  0.8040203022281531  0.12276477128975222  0.939988252061994  1.0000
  S   S11       1.0  0.6959812461578139  0.6227634836596961  0.9399891257577052  1.0000
  S   S12       1.0  0.1959843987220893  0.8772306460565173  0.060015032422313694  1.0000
  S   S13       1.0  0.6410719189820426  0.1721161733398446  0.1975950231126475  1.0000
  S   S14       1.0  0.141081844517899  0.3278881109131788  0.8024038928930821  1.0000
  S   S15       1.0  0.3589158495392653  0.8278832534002233  0.8024038928930821  1.0000
  S   S16       1.0  0.8589228564323506  0.6721156952952825  0.1975958968083589  1.0000
  S   S17       1.0  0.4946216478699199  0.11776407238252061  0.941193952149959  1.0000
  S   S18       1.0  0.9946261148986579  0.3822346912756913  0.05880321646433369  1.0000
  S   S19       1.0  0.5053737402444085  0.8822330721047107  0.05880321646433369  1.0000
  S   S20       1.0  0.0053777394301378  0.61776911493277  0.9411965732371073  1.0000
  N   N1        1.0  0.9237452741288195  0.2299275892272092  0.23981986336738  1.0000
  N   N2        1.0  0.42374165372152117  0.2700671650372044  0.7601816737254907  1.0000
  N   N3        1.0  0.0762560403356431  0.7700689692454787  0.7601842948126389  1.0000
  N   N4        1.0  0.5762537343928074  0.7299353150075445  0.23981462119308358  1.0000
  N   N5        1.0  0.789912202438508  0.4225828324037336  0.3137546159357427  1.0000
  N   N6        1.0  0.2899060421668764  0.07741788196639021  0.6862434263742614  1.0000
  N   N7        1.0  0.21008911202594763  0.5774166328699906  0.6862486685485578  1.0000
  N   N8        1.0  0.7100884993260125  0.9225904116804385  0.3137511211528832  1.0000
