data_image0
_chemical_formula_structural       CuH20C22N4O6
_chemical_formula_sum              "Cu1 H20 C22 N4 O6"
_cell_length_a       5.016882696685681
_cell_length_b       10.349581833372097
_cell_length_c       11.35360207769393
_cell_angle_alpha    61.78977472844613
_cell_angle_beta     78.58601296478962
_cell_angle_gamma    85.69209964906739

_space_group_name_H-M_alt    "P 1"
_space_group_IT_number       1

loop_
  _space_group_symop_operation_xyz
  'x, y, z'

loop_
  _atom_site_type_symbol
  _atom_site_label
  _atom_site_symmetry_multiplicity
  _atom_site_fract_x
  _atom_site_fract_y
  _atom_site_fract_z
  _atom_site_occupancy
  Cu  Cu1       1.0  3.3722668106904534e-06  0.9999976860644538  0.9999994637932305  1.0000
  H   H1        1.0  0.5311326403381996  0.014989519554909202  0.39660504106259253  1.0000
  H   H2        1.0  0.4688337819677884  0.985037642247775  0.6033887162026449  1.0000
  H   H3        1.0  0.24278969926661625  0.10193459079050632  0.3253155930263603  1.0000
  H   H4        1.0  0.757186564610393  0.8980882467093636  0.6746755133011961  1.0000
  H   H5        1.0  0.4552867526044082  0.0007847813902514988  0.2555098302745762  1.0000
  H   H6        1.0  0.544674868985922  0.9992314177115847  0.7444896736484952  1.0000
  H   H7        1.0  0.7909915813628956  0.4535525845051042  0.6463153079114078  1.0000
  H   H8        1.0  0.2089976495802759  0.5464499832103159  0.35369342402155723  1.0000
  H   H9        1.0  0.6891611914133692  0.5561378434233292  0.48361168424336415  1.0000
  H   H10       1.0  0.31083188232352643  0.4438629256114978  0.5163868586260068  1.0000
  H   H11       1.0  0.5167646501860331  0.5779596284795901  0.6253790954192696  1.0000
  H   H12       1.0  0.4832292022813433  0.4220518875311115  0.37462031504363585  1.0000
  H   H13       1.0  0.014926619151026397  0.16784004379503156  0.14740035529968057  1.0000
  H   H14       1.0  0.9851149153096799  0.8321560880062576  0.8525922238806348  1.0000
  H   H15       1.0  0.8233400182109918  0.39373857659974487  0.147489661781755  1.0000
  H   H16       1.0  0.1766992303001231  0.6062544612542737  0.8524999672286597  1.0000
  H   H17       1.0  0.3296823806878351  0.4156228014358802  0.8645139311968324  1.0000
  H   H18       1.0  0.6703260822006527  0.5843645771270828  0.13549130550548955  1.0000
  H   H19       1.0  0.5485021843089726  0.1939568173089228  0.8733030130723732  1.0000
  H   H20       1.0  0.45151509511050153  0.8060417752034468  0.12668896764350288  1.0000
  C   C1        1.0  0.9504639299554827  0.8320501034587906  0.2782008130884536  1.0000
  C   C2        1.0  0.049534815024962604  0.16794393352476797  0.7218025936685919  1.0000
  C   C3        1.0  0.012673490711385701  0.796146147704512  0.41238440741426546  1.0000
  C   C4        1.0  0.9873082404052129  0.20386656313815624  0.5876155988936632  1.0000
  C   C5        1.0  0.19797843034363888  0.8696796777709465  0.44390745689234046  1.0000
  C   C6        1.0  0.801999723947887  0.13034091571183382  0.5560852707311029  1.0000
  C   C7        1.0  0.9088820376392663  0.6793291225027217  0.5355239537740532  1.0000
  C   C8        1.0  0.0911212237118946  0.32067142208759947  0.46447729762761025  1.0000
  C   C9        1.0  0.36849234640866513  0.0040045325178610066  0.35031742769376  1.0000
  C   C10       1.0  0.6314755274547608  0.9960137736737451  0.6496815476665604  1.0000
  C   C11       1.0  0.7157924975642516  0.5587207353921856  0.5757302110270784  1.0000
  C   C12       1.0  0.2842051295623307  0.441286328107921  0.42427154695036523  1.0000
  C   C13       1.0  0.8667114832510378  0.22928857286766666  0.08407474649624194  1.0000
  C   C14       1.0  0.1333069695507731  0.7706966734159552  0.9159269386944118  1.0000
  C   C15       1.0  0.755482516760381  0.35653771520198774  0.08318300120667742  1.0000
  C   C16       1.0  0.2445443135821534  0.6434506111423632  0.9168202160106207  1.0000
  C   C17       1.0  0.5598131378306733  0.43132467259710683  0.002601054683509716  1.0000
  C   C18       1.0  0.4401824990145045  0.5686527275389892  0.997414651197211  1.0000
  C   C19       1.0  0.48258454932948075  0.36806280685327414  0.9284235717396289  1.0000
  C   C20       1.0  0.517398935315768  0.6319159657326878  0.07158825459990241  1.0000
  C   C21       1.0  0.6045365179552533  0.24118864884438557  0.9330527358280561  1.0000
  C   C22       1.0  0.39547001119671416  0.7587997001060388  0.06695580525157409  1.0000
  N   N1        1.0  0.20513075699654593  0.8033955138523085  0.5749486449108688  1.0000
  N   N2        1.0  0.7948691067209878  0.1966149277837062  0.4250489026185349  1.0000
  N   N3        1.0  0.7962719406849177  0.17293694132753498  0.008861917268554006  1.0000
  N   N4        1.0  0.2037286700307277  0.8270549937332563  0.9911395304754151  1.0000
  O   O1        1.0  0.0906089138294277  0.9442762910319686  0.17653188493050467  1.0000
  O   O2        1.0  0.9093953603552906  0.05571030864796709  0.8234669901515375  1.0000
  O   O3        1.0  0.7800340265060086  0.7592617512410841  0.2656346001370693  1.0000
  O   O4        1.0  0.21998840495896846  0.24072243713788308  0.7343653964754252  1.0000
  O   O5        1.0  0.01944412309845231  0.6806177322279298  0.6344589503218645  1.0000
  O   O6        1.0  0.9805753742693  0.31938282269640433  0.36553732592814475  1.0000
