data_image0
_chemical_formula_structural       H36Pb2C56N4O8
_chemical_formula_sum              "H36 Pb2 C56 N4 O8"
_cell_length_a       8.122493758271903
_cell_length_b       10.869084473169208
_cell_length_c       12.771874310202454
_cell_angle_alpha    89.41283157557056
_cell_angle_beta     84.76761858481525
_cell_angle_gamma    85.185523518069

_space_group_name_H-M_alt    "P 1"
_space_group_IT_number       1

loop_
  _space_group_symop_operation_xyz
  'x, y, z'

loop_
  _atom_site_type_symbol
  _atom_site_label
  _atom_site_symmetry_multiplicity
  _atom_site_fract_x
  _atom_site_fract_y
  _atom_site_fract_z
  _atom_site_occupancy
  H   H1        1.0  0.4651458968944482  0.8679672859371977  0.47087419853441764  1.0000
  H   H2        1.0  0.5348428774801591  0.13201762767363326  0.529125847899813  1.0000
  H   H3        1.0  0.9078475826175847  0.047725813053844476  0.1046555661792823  1.0000
  H   H4        1.0  0.09219151468382582  0.9523034797928887  0.8953502851173951  1.0000
  H   H5        1.0  0.3167669530968383  0.3057591914332817  0.3570306702007001  1.0000
  H   H6        1.0  0.6832868935607619  0.6942555152981099  0.6429628691392892  1.0000
  H   H7        1.0  0.16306363112079944  0.5021866425971665  0.42570733866138255  1.0000
  H   H8        1.0  0.8370306784547951  0.4978463628677827  0.5742919350862223  1.0000
  H   H9        1.0  0.44876610064760314  0.17533628085147504  0.8760511295607003  1.0000
  H   H10       1.0  0.5511833523011518  0.8246405184024749  0.1239383346317027  1.0000
  H   H11       1.0  0.3719038392185965  0.3148577407216279  0.732846020476117  1.0000
  H   H12       1.0  0.6280781649513756  0.6851483435168787  0.2671557167313381  1.0000
  H   H13       1.0  0.17370681635700438  0.6991372285780455  0.9217253345963953  1.0000
  H   H14       1.0  0.8262499137180583  0.3008739529814477  0.07827051011607009  1.0000
  H   H15       1.0  0.11018960807223269  0.7454418772885916  0.1067387823146291  1.0000
  H   H16       1.0  0.8897738743155017  0.25452964756077273  0.8932625926955778  1.0000
  H   H17       1.0  0.47363639276713343  0.4813827791783041  0.65176686840055  1.0000
  H   H18       1.0  0.526354733484368  0.5186355205658302  0.34824450070671276  1.0000
  H   H19       1.0  0.43197831249322854  0.6214088706637922  0.5011934306577928  1.0000
  H   H20       1.0  0.5680045447200256  0.3785824254240352  0.4988091870400098  1.0000
  H   H21       1.0  0.18755859491759713  0.7776009989119358  0.5082775235880774  1.0000
  H   H22       1.0  0.8124685438631049  0.2224160708866094  0.49173292626510795  1.0000
  H   H23       1.0  0.9855353932585093  0.7888607811948416  0.6684906342698013  1.0000
  H   H24       1.0  0.01450372325456331  0.21117775372594133  0.3315112144729468  1.0000
  H   H25       1.0  0.024370175474629732  0.6489150328798983  0.8157913605205067  1.0000
  H   H26       1.0  0.975611563999145  0.35110214148008356  0.1842071534752421  1.0000
  H   H27       1.0  0.2521318354927971  0.8219330842770627  0.2430063057702014  1.0000
  H   H28       1.0  0.7478688625103517  0.17804738920033708  0.7569869500410037  1.0000
  H   H29       1.0  0.10771241352421158  0.012081103178132898  0.31897433523764823  1.0000
  H   H30       1.0  0.8923421537148004  0.9879041201008503  0.6810585988542783  1.0000
  H   H31       1.0  0.8472871192349061  0.0035887778254136034  0.43890874924790074  1.0000
  H   H32       1.0  0.15272642037356832  0.996413216773021  0.5610899592210146  1.0000
  H   H33       1.0  0.7366097970983463  0.8021312400861189  0.48251243886102196  1.0000
  H   H34       1.0  0.26338162144299554  0.197879609535164  0.5174809750722815  1.0000
  H   H35       1.0  0.8789003522159576  0.6089917658388301  0.40172029728427816  1.0000
  H   H36       1.0  0.12107543873543139  0.39101694878301874  0.5982683987341417  1.0000
  Pb  Pb1       1.0  0.4774793973499812  0.1448497199743812  0.14338260166957176  1.0000
  Pb  Pb2       1.0  0.5225624048137123  0.855013838771313  0.8565737675309464  1.0000
  C   C1        1.0  0.469910439618701  0.016566065168099397  0.3515456924768471  1.0000
  C   C2        1.0  0.530062598338624  0.9834333901653806  0.6484573163673203  1.0000
  C   C3        1.0  0.48204314690089944  0.9659182962825167  0.45966035521960436  1.0000
  C   C4        1.0  0.5179342631607824  0.034068272817307794  0.5403402165844682  1.0000
  C   C5        1.0  0.180388760096335  0.0469826139615748  0.07618993987494349  1.0000
  C   C6        1.0  0.8196292481027356  0.9530231517817566  0.923806171509696  1.0000
  C   C7        1.0  0.012650326572995103  0.0229574448008876  0.0468911868997282  1.0000
  C   C8        1.0  0.9873774947114599  0.9770568287471092  0.9531082934788699  1.0000
  C   C9        1.0  0.27996065895904815  0.3799351754566444  0.303830552648293  1.0000
  C   C10       1.0  0.7200814394603725  0.6200645564661329  0.696174648622332  1.0000
  C   C11       1.0  0.19524388114862032  0.4902675393623709  0.3415001435692487  1.0000
  C   C12       1.0  0.8047580681838654  0.509731441377937  0.6584858322749412  1.0000
  C   C13       1.0  0.1579349461031256  0.5859075032369246  0.2724902701829137  1.0000
  C   C14       1.0  0.8420553117344126  0.4140839199336241  0.7275119941385526  1.0000
  C   C15       1.0  0.20079260900342885  0.5647038200190906  0.16280388258573447  1.0000
  C   C16       1.0  0.7991801196638375  0.4353049083380894  0.8372076682949086  1.0000
  C   C17       1.0  0.2785482397725261  0.4468468525623165  0.1313250846163783  1.0000
  C   C18       1.0  0.7214387499212406  0.5531694660537596  0.8686661398103722  1.0000
  C   C19       1.0  0.30823983485321094  0.4168273793949524  0.020454050387009193  1.0000
  C   C20       1.0  0.6917365177433582  0.5831943061823708  0.9795368470872816  1.0000
  C   C21       1.0  0.39682076633857116  0.2692839234448455  0.8941607476929221  1.0000
  C   C22       1.0  0.603143022817946  0.730701507022644  0.1058475306472175  1.0000
  C   C23       1.0  0.35483393287899634  0.3501035849921407  0.8129543634616141  1.0000
  C   C24       1.0  0.6451306727990911  0.6498938817681574  0.18705141446033482  1.0000
  C   C25       1.0  0.28989375845705473  0.47091676287804046  0.834917157733031  1.0000
  C   C26       1.0  0.7101256969930674  0.5290880932518006  0.1650757609552826  1.0000
  C   C27       1.0  0.2649751474153207  0.5068357399611471  0.9433118086513163  1.0000
  C   C28       1.0  0.7350149580844841  0.4931519175752753  0.056669354959240095  1.0000
  C   C29       1.0  0.1996412565586425  0.6271538032067524  0.9789955584644829  1.0000
  C   C30       1.0  0.8002850629978154  0.3728439222786334  0.021008906740291895  1.0000
  C   C31       1.0  0.16542678986683518  0.6540351782802529  0.08335800526855049  1.0000
  C   C32       1.0  0.8345304392494625  0.34596398042945953  0.9166371448184518  1.0000
  C   C33       1.0  0.2553868249531702  0.5557347442288216  0.746731028702925  1.0000
  C   C34       1.0  0.7446224719096364  0.4442634579468389  0.2532616524443654  1.0000
  C   C35       1.0  0.365367338796645  0.5479370769904932  0.6547500615207015  1.0000
  C   C36       1.0  0.6346239323759308  0.452067274579754  0.3452371554448206  1.0000
  C   C37       1.0  0.3420541073385834  0.6272008639045623  0.5701378432446518  1.0000
  C   C38       1.0  0.6579502858160354  0.37282133977281257  0.42986424421073377  1.0000
  C   C39       1.0  0.20635316974566115  0.7154987708456628  0.5744154350103088  1.0000
  C   C40       1.0  0.7936605896553247  0.2845245601502242  0.42560029159349705  1.0000
  C   C41       1.0  0.09395137161634184  0.722396683113075  0.6638458152288252  1.0000
  C   C42       1.0  0.9060330101225631  0.27760111866576404  0.33615745228240707  1.0000
  C   C43       1.0  0.11772707343794048  0.6435096547978318  0.7489344617528603  1.0000
  C   C44       1.0  0.8822738684202207  0.35649397410914924  0.2510648309819459  1.0000
  C   C45       1.0  0.07236251345970149  0.7023514835399636  0.3148208695388561  1.0000
  C   C46       1.0  0.9276259503051492  0.2976519471029633  0.6851845004148274  1.0000
  C   C47       1.0  0.13608190708689694  0.8167061695214458  0.2922571184594318  1.0000
  C   C48       1.0  0.8639306397179  0.18328289474293766  0.7077558533285284  1.0000
  C   C49       1.0  0.0559646744356144  0.924413354779773  0.3375223781851274  1.0000
  C   C50       1.0  0.9440549635852875  0.07558041896600538  0.6624768998624901  1.0000
  C   C51       1.0  0.911199978026417  0.9193395864256427  0.4047292793982393  1.0000
  C   C52       1.0  0.08883301046085279  0.08065353013257948  0.5952826817674008  1.0000
  C   C53       1.0  0.8481603118276909  0.8057557256117889  0.42865519853637574  1.0000
  C   C54       1.0  0.1518542934361662  0.19424448467544406  0.5713599205060689  1.0000
  C   C55       1.0  0.9284212493088475  0.6979118836889028  0.38422305173894955  1.0000
  C   C56       1.0  0.07155554073489158  0.30209778484169897  0.6157695032205766  1.0000
  N   N1        1.0  0.32197393687109604  0.35857740596811266  0.2021536041392196  1.0000
  N   N2        1.0  0.6780611064259644  0.6414203450214583  0.7978488190548134  1.0000
  N   N3        1.0  0.3743189020521598  0.3012065392459178  0.9949507382350048  1.0000
  N   N4        1.0  0.6256759691053375  0.6988136411373558  0.005048688935907782  1.0000
  O   O1        1.0  0.4446375489850709  0.13410569038936865  0.3412663114138609  1.0000
  O   O2        1.0  0.555312927236649  0.865878572430489  0.6587379129088475  1.0000
  O   O3        1.0  0.4872445656261136  0.9416410450350764  0.2748596321932055  1.0000
  O   O4        1.0  0.5127435369562932  0.05835681835077369  0.7251426745929592  1.0000
  O   O5        1.0  0.18379747137514357  0.12010139919885889  0.1545317531280332  1.0000
  O   O6        1.0  0.8162215774069426  0.8798757635928353  0.8454865018493862  1.0000
  O   O7        1.0  0.31073270738200154  0.9996564225542313  0.02463539187358071  1.0000
  O   O8        1.0  0.6893017569598355  0.00036442399741080326  0.9753574464021071  1.0000
