data_image0
_chemical_formula_structural       Li2H18C12O16
_chemical_formula_sum              "Li2 H18 C12 O16"
_cell_length_a       6.583436504910635
_cell_length_b       7.419958348378783
_cell_length_c       9.032013524184212
_cell_angle_alpha    85.34748339185717
_cell_angle_beta     79.54116566482381
_cell_angle_gamma    72.38303632181562

_space_group_name_H-M_alt    "P 1"
_space_group_IT_number       1

loop_
  _space_group_symop_operation_xyz
  'x, y, z'

loop_
  _atom_site_type_symbol
  _atom_site_label
  _atom_site_symmetry_multiplicity
  _atom_site_fract_x
  _atom_site_fract_y
  _atom_site_fract_z
  _atom_site_occupancy
  Li  Li1       1.0  0.9655549082935765  0.7116653006450662  0.49373042060194877  1.0000
  Li  Li2       1.0  0.03822414967959991  0.289440577613533  0.5066755970506518  1.0000
  H   H1        1.0  0.4993365772761392  0.17327841724969062  0.2518460032222122  1.0000
  H   H2        1.0  0.16287988026753195  0.9453260496396186  0.3345394803558505  1.0000
  H   H3        1.0  0.004378787209937159  0.964182309777769  0.005735785936863582  1.0000
  H   H4        1.0  0.7167742157214718  0.6265882789902618  0.2127782649721438  1.0000
  H   H5        1.0  0.6172959138865083  0.6273946572993199  0.40622015766521696  1.0000
  H   H6        1.0  0.3288407710717465  0.8918651084493164  0.07865488102774522  1.0000
  H   H7        1.0  0.4898379972796505  0.6605174325522543  0.028414232804088585  1.0000
  H   H8        1.0  0.9773552280763909  0.4884653179488226  0.9911324010934375  1.0000
  H   H9        1.0  0.5057949724550852  0.8287507476488828  0.749086924207205  1.0000
  H   H10       1.0  0.8404915596546089  0.05632990188802009  0.6689490979928576  1.0000
  H   H11       1.0  0.2869607860545358  0.3760650727693502  0.7870919905532785  1.0000
  H   H12       1.0  0.38818986686444384  0.37412567327103835  0.5937057754669296  1.0000
  H   H13       1.0  0.6584729611175533  0.11405538591868243  0.9257383304577401  1.0000
  H   H14       1.0  0.5098369829344875  0.3493390151520543  0.9723267340653617  1.0000
  H   H15       1.0  0.004200685896350362  0.7848303600405446  0.7782382840799681  1.0000
  H   H16       1.0  0.14626808848456815  0.8726246426218297  0.6513542490827999  1.0000
  H   H17       1.0  0.003815518608547612  0.21226036049753821  0.22147785722901853  1.0000
  H   H18       1.0  0.8589865356706596  0.12805391208894432  0.3487993184095328  1.0000
  C   C1        1.0  0.6069381821120315  0.8973740480032363  0.3102144502284005  1.0000
  C   C2        1.0  0.5849444112226649  0.7021865234484324  0.2992279967743059  1.0000
  C   C3        1.0  0.3665278565139828  0.6911927013526694  0.26733536917527084  1.0000
  C   C4        1.0  0.3423234120258272  0.7416008060232359  0.10020390804648827  1.0000
  C   C5        1.0  0.3573984796224892  0.4859129352051284  0.30791392226311126  1.0000
  C   C6        1.0  0.159970146134512  0.6917134666229572  0.051368077464665894  1.0000
  C   C7        1.0  0.3974652327306457  0.10459103253651143  0.6904147793325704  1.0000
  C   C8        1.0  0.41926833347660164  0.29995909954480726  0.7011214921160158  1.0000
  C   C9        1.0  0.6369671528913798  0.3109879110294926  0.7347389373646178  1.0000
  C   C10       1.0  0.6556893218382599  0.2618228864258186  0.9027283368253687  1.0000
  C   C11       1.0  0.6467997980296404  0.5157105148909055  0.6936836300533428  1.0000
  C   C12       1.0  0.8446280744161283  0.2949047291102361  0.9554176141056699  1.0000
  O   O1        1.0  0.7387376083396546  0.9207254567235313  0.3848451580053832  1.0000
  O   O2        1.0  0.48478223700212203  0.033792015473508706  0.23601614233174922  1.0000
  O   O3        1.0  0.1930126326311879  0.8090888512489514  0.3649425550365563  1.0000
  O   O4        1.0  0.5195767823220478  0.35479039231336873  0.24823093984666394  1.0000
  O   O5        1.0  0.1954441616308741  0.4653910044111458  0.39836858370638584  1.0000
  O   O6        1.0  0.15624210749992778  0.5243777138050164  0.05416898216428479  1.0000
  O   O7        1.0  0.002571426778096956  0.8247091125993011  0.9992831249149957  1.0000
  O   O8        1.0  0.265864208298794  0.0806831759234257  0.6159537654867291  1.0000
  O   O9        1.0  0.5202253724526996  0.9683632046689187  0.7644707201098412  1.0000
  O   O10       1.0  0.8119155885115815  0.19232117229409343  0.6386424081940163  1.0000
  O   O11       1.0  0.48575139343709134  0.6471919534934047  0.7543726629957843  1.0000
  O   O12       1.0  0.8081304683697111  0.5360091133646351  0.602462909151775  1.0000
  O   O13       1.0  0.8481530459832453  0.47124701992540013  0.9466236520684101  1.0000
  O   O14       1.0  0.9881083417208671  0.1673812528731489  0.00963540535324369  1.0000
  O   O15       1.0  0.018340634898493025  0.8252496973066318  0.6722503244846008  1.0000
  O   O16       1.0  0.9871922185993753  0.174999185717887  0.32837180641407554  1.0000
