data_image0
_chemical_formula_structural       Tb4H60C52N24O32
_chemical_formula_sum              "Tb4 H60 C52 N24 O32"
_cell_length_a       13.124671793676184
_cell_length_b       13.12467572585642
_cell_length_c       14.537817613113448
_cell_angle_alpha    72.55199409167612
_cell_angle_beta     72.552023220391
_cell_angle_gamma    78.6342023700548

_space_group_name_H-M_alt    "P 1"
_space_group_IT_number       1

loop_
  _space_group_symop_operation_xyz
  'x, y, z'

loop_
  _atom_site_type_symbol
  _atom_site_label
  _atom_site_symmetry_multiplicity
  _atom_site_fract_x
  _atom_site_fract_y
  _atom_site_fract_z
  _atom_site_occupancy
  Tb  Tb1       1.0  0.9743069136612449  0.3899582915185533  0.9453253584595629  1.0000
  Tb  Tb2       1.0  0.6100417509120248  0.025694159688185905  0.5546738450910524  1.0000
  Tb  Tb3       1.0  0.025695023121826904  0.610042240149781  0.05467454349271611  1.0000
  Tb  Tb4       1.0  0.38995776034860086  0.9743050602428912  0.44532570926729415  1.0000
  H   H1        1.0  0.4065074972445545  0.7296189498168744  0.891529259751472  1.0000
  H   H2        1.0  0.27038084569529275  0.5934924812123868  0.6084707635569159  1.0000
  H   H3        1.0  0.5934928364643284  0.27038337336504276  0.10847059035864248  1.0000
  H   H4        1.0  0.7296170607225606  0.40650693722460585  0.3915298655771267  1.0000
  H   H5        1.0  0.5033783324411162  0.7447172087754909  0.7730746459291141  1.0000
  H   H6        1.0  0.2552833530878189  0.49662258051235164  0.7269249308379458  1.0000
  H   H7        1.0  0.4966219948869083  0.25528431240643107  0.22692473869814472  1.0000
  H   H8        1.0  0.7447161645536654  0.5033774414187137  0.27307508900324257  1.0000
  H   H9        1.0  0.38438928090871377  0.6846315596013782  0.796332773963769  1.0000
  H   H10       1.0  0.3153688153165319  0.6156104089397517  0.7036671753226501  1.0000
  H   H11       1.0  0.6156102467780046  0.3153692679937806  0.20366839722146318  1.0000
  H   H12       1.0  0.6846306959440936  0.38438881099131833  0.29633237903569654  1.0000
  H   H13       1.0  0.6832291031354744  0.09200777300285524  0.9069074442167988  1.0000
  H   H14       1.0  0.9079906701985578  0.31677127317061615  0.5930937686149278  1.0000
  H   H15       1.0  0.3167712389772674  0.9079905804842809  0.09309762295217178  1.0000
  H   H16       1.0  0.09200722794264493  0.6832289326099429  0.40690458255720324  1.0000
  H   H17       1.0  0.6686262770321747  0.20686116331470572  0.952339392881136  1.0000
  H   H18       1.0  0.7931353522286175  0.33137324247601907  0.5476646157687455  1.0000
  H   H19       1.0  0.33137325716261057  0.7931372839292263  0.047665182883896824  1.0000
  H   H20       1.0  0.2068609493464564  0.668626374466889  0.45233708814100027  1.0000
  H   H21       1.0  0.7086892247975811  0.07752843725923954  0.02458323208855253  1.0000
  H   H22       1.0  0.9224683129838241  0.2913127841341421  0.47541701503901385  1.0000
  H   H23       1.0  0.2913151312542936  0.9224694217951566  0.9754194910717617  1.0000
  H   H24       1.0  0.07752797121726471  0.7086860198164616  0.5245821658043041  1.0000
  H   H25       1.0  0.3946129752970435  0.9203281400439922  0.7876319235445237  1.0000
  H   H26       1.0  0.0796718644953174  0.6053874215464676  0.71236787418227  1.0000
  H   H27       1.0  0.6053889532093776  0.07967317896790861  0.2123657004458366  1.0000
  H   H28       1.0  0.9203268571692432  0.39461191046194  0.28763461807809426  1.0000
  H   H29       1.0  0.8374591983587791  0.1904831638511553  0.8160956140843112  1.0000
  H   H30       1.0  0.8095160637631124  0.16253841970068095  0.6839061563488116  1.0000
  H   H31       1.0  0.1625387107755571  0.8095170529217198  0.18390479467139198  1.0000
  H   H32       1.0  0.1904826478562143  0.8374601066436256  0.3160951845675157  1.0000
  H   H33       1.0  0.0355819662145009  0.3107470002543807  0.6451777086989522  1.0000
  H   H34       1.0  0.6892533941111341  0.9644189428567245  0.8548212184950046  1.0000
  H   H35       1.0  0.9644183611135234  0.6892545209275412  0.35482167592830643  1.0000
  H   H36       1.0  0.3107469250674484  0.035580183317556205  0.1451788272672729  1.0000
  H   H37       1.0  0.14723756923054757  0.38522525954280706  0.5961171242857688  1.0000
  H   H38       1.0  0.6147742693577385  0.8527632424637729  0.9038827653941938  1.0000
  H   H39       1.0  0.8527627580974767  0.6147762616391149  0.40388226034149  1.0000
  H   H40       1.0  0.3852244449780642  0.14723608221642348  0.09611835514379412  1.0000
  H   H41       1.0  0.3314590424770358  0.21375589995819413  0.7004735949860929  1.0000
  H   H42       1.0  0.7862427533139142  0.6685409017195526  0.7995275551239092  1.0000
  H   H43       1.0  0.668541275753647  0.7862440208878567  0.2995255445366496  1.0000
  H   H44       1.0  0.21375676893984522  0.3314583292038408  0.20047405681800975  1.0000
  H   H45       1.0  0.3097618430875216  0.3153877015465127  0.5944082665574087  1.0000
  H   H46       1.0  0.6846128160108693  0.6902379936507403  0.9055937437394234  1.0000
  H   H47       1.0  0.6902384751431612  0.6846122192995385  0.40559087296534097  1.0000
  H   H48       1.0  0.3153875178252222  0.30976114717996234  0.09440904546762849  1.0000
  H   H49       1.0  0.053740006473191215  0.8911886646481265  0.9235526220983556  1.0000
  H   H50       1.0  0.10881103888721812  0.9462586797126279  0.5764469596748257  1.0000
  H   H51       1.0  0.9462603108095992  0.1088120508697017  0.07644561118485887  1.0000
  H   H52       1.0  0.8911884797021659  0.05374054754665987  0.42355396640590465  1.0000
  H   H53       1.0  0.20983739486591452  0.7931411070577212  0.8486974624332645  1.0000
  H   H54       1.0  0.20685890345617966  0.7901624698135807  0.6513024649968173  1.0000
  H   H55       1.0  0.7901629324621099  0.2068604141242077  0.15130192219398714  1.0000
  H   H56       1.0  0.7931406178496871  0.2098375557815899  0.34869824070556643  1.0000
  H   H57       1.0  0.8800360102095653  0.9796086909067302  0.9489538447670255  1.0000
  H   H58       1.0  0.020390707723990403  0.11996467548576821  0.5510454637282294  1.0000
  H   H59       1.0  0.11996431073760053  0.020392028275203703  0.05104507437737739  1.0000
  H   H60       1.0  0.9796072041268219  0.88003633962299  0.4489547246491341  1.0000
  C   C1        1.0  0.3792507648231904  0.8875792434961983  0.659039890412579  1.0000
  C   C2        1.0  0.1124215350841098  0.6207492827217609  0.8409597950090486  1.0000
  C   C3        1.0  0.6207495561239754  0.11242147568573556  0.34095902873183087  1.0000
  C   C4        1.0  0.8875787968561896  0.37925144745248945  0.15904118171893322  1.0000
  C   C5        1.0  0.4172380274599945  0.7474552455426464  0.8106664795759357  1.0000
  C   C6        1.0  0.2525442577361972  0.5827609194877966  0.689333906050642  1.0000
  C   C7        1.0  0.5827623008159222  0.2525454809675055  0.18933381129085794  1.0000
  C   C8        1.0  0.7474544529352299  0.41723840152828745  0.31066652862615035  1.0000
  C   C9        1.0  0.7163231736021842  0.1289919232299326  0.9483154516157414  1.0000
  C   C10       1.0  0.8710059915832746  0.2836766904222046  0.551686734375842  1.0000
  C   C11       1.0  0.2836771548009409  0.8710056209289972  0.051687778347989904  1.0000
  C   C12       1.0  0.12899191483457886  0.7163227280147882  0.44831389475820765  1.0000
  C   C13       1.0  0.872488013641707  0.22674131791928437  0.9330563341114485  1.0000
  C   C14       1.0  0.7732596151910087  0.1275127515044687  0.5669427252469745  1.0000
  C   C15       1.0  0.12751150848484372  0.7732610953553236  0.06694233873353266  1.0000
  C   C16       1.0  0.22673909548041854  0.8724865695116221  0.43305770942981786  1.0000
  C   C17       1.0  0.0732141188141782  0.3648914737581067  0.7543773335900782  1.0000
  C   C18       1.0  0.635107798158984  0.9267865148186518  0.7456212859829917  1.0000
  C   C19       1.0  0.9267878143045112  0.6351090542461223  0.24562188250101258  1.0000
  C   C20       1.0  0.3648917167660244  0.07321270877653066  0.25437895423654316  1.0000
  C   C21       1.0  0.3653052699871254  0.15949021834929772  0.5692669152911664  1.0000
  C   C22       1.0  0.8405117597554651  0.6346952485226397  0.9307331851596174  1.0000
  C   C23       1.0  0.63469585887799  0.8405104070758398  0.4307324952571818  1.0000
  C   C24       1.0  0.15949098222908023  0.36530439105301593  0.06926742857494615  1.0000
  C   C25       1.0  0.3600333447780599  0.8589361513362165  0.7727242920699596  1.0000
  C   C26       1.0  0.14106396722539222  0.6399653494397061  0.7272752618322755  1.0000
  C   C27       1.0  0.6399661691990488  0.14106386693073603  0.2272750419100404  1.0000
  C   C28       1.0  0.8589363492367069  0.3600329783986853  0.2727250043083417  1.0000
  C   C29       1.0  0.8327125762202031  0.14823058257938024  0.8948334613589923  1.0000
  C   C30       1.0  0.8517695277114399  0.1672860105445082  0.605166433790515  1.0000
  C   C31       1.0  0.1672869514665223  0.8517702450157785  0.10516770982624724  1.0000
  C   C32       1.0  0.1482291802435114  0.8327125121356929  0.39483422126461687  1.0000
  C   C33       1.0  0.10851776251940493  0.32350005334243553  0.6599866476616681  1.0000
  C   C34       1.0  0.6765009492436675  0.8914825768186746  0.8400129725569768  1.0000
  C   C35       1.0  0.8914825694208945  0.6765006768318216  0.3400143290663136  1.0000
  C   C36       1.0  0.32349937536788076  0.10851814602737161  0.15998663244862138  1.0000
  C   C37       1.0  0.2974208835385213  0.23201469369871572  0.6360929659058028  1.0000
  C   C38       1.0  0.7679854259573844  0.7025791290211317  0.863906372550389  1.0000
  C   C39       1.0  0.702579426415511  0.7679860144909015  0.36390389565502795  1.0000
  C   C40       1.0  0.2320149069308073  0.29742080648134833  0.13609551041712817  1.0000
  C   C41       1.0  0.18142374825593782  0.9565188565545882  0.8078390463245952  1.0000
  C   C42       1.0  0.0434804644336637  0.8185751204680473  0.692159918898895  1.0000
  C   C43       1.0  0.8185765663103695  0.04348106062735728  0.19215940733695902  1.0000
  C   C44       1.0  0.9565174456485649  0.18142430163305084  0.3078413960963361  1.0000
  C   C45       1.0  0.006442271685791901  0.04763704314058972  0.842224915852782  1.0000
  C   C46       1.0  0.9523628104877346  0.9935577924964678  0.6577737658391174  1.0000
  C   C47       1.0  0.9935580465448909  0.9523628777054611  0.15777422366996768  1.0000
  C   C48       1.0  0.047635095930118616  0.006441625940524903  0.3422268632949327  1.0000
  C   C49       1.0  0.1461150479233169  0.1333238795597822  0.7322830501164788  1.0000
  C   C50       1.0  0.8666758298168988  0.8538844580308763  0.7677158389505792  1.0000
  C   C51       1.0  0.8538852629786079  0.8666760339580578  0.26771471768388716  1.0000
  C   C52       1.0  0.13332449302605912  0.14611467180750284  0.23228489267289376  1.0000
  N   N1        1.0  0.07429349941756411  0.9541682208525942  0.8587598280565629  1.0000
  N   N2        1.0  0.045831312627669304  0.9257063656795594  0.6412387771989428  1.0000
  N   N3        1.0  0.925706817865219  0.04583249466523404  0.1412384052266518  1.0000
  N   N4        1.0  0.9541682150590562  0.07429446191559923  0.3587623939862894  1.0000
  N   N5        1.0  0.0386117969928179  0.13592610904475322  0.7744356797445705  1.0000
  N   N6        1.0  0.8640737437122183  0.9613873576507573  0.7255632377380223  1.0000
  N   N7        1.0  0.9613877160363913  0.8640747038939768  0.22556274799589457  1.0000
  N   N8        1.0  0.1359257712127828  0.038611865944425  0.27443700248151265  1.0000
  N   N9        1.0  0.21987029655798554  0.04619165640497161  0.7482645330954868  1.0000
  N   N10       1.0  0.9538074911413191  0.780129276633673  0.7517338462280418  1.0000
  N   N11       1.0  0.7801300143439464  0.9538082571128687  0.25173323470487935  1.0000
  N   N12       1.0  0.0461920247315817  0.219869152289732  0.2482673002310278  1.0000
  N   N13       1.0  0.2458674193676416  0.863447053332635  0.8233146469513457  1.0000
  N   N14       1.0  0.13655351369011023  0.7541316109954154  0.6766846600676216  1.0000
  N   N15       1.0  0.7541329079603827  0.13655446784928674  0.17668473767590592  1.0000
  N   N16       1.0  0.8634467991076138  0.2458667131788701  0.3233149202118071  1.0000
  N   N17       1.0  0.9038601512444658  0.04801097473548311  0.8976029612375879  1.0000
  N   N18       1.0  0.951989142241871  0.09614091186556808  0.6023962956085  1.0000
  N   N19       1.0  0.09614178825508903  0.9519903552687341  0.1023967203363512  1.0000
  N   N20       1.0  0.04801036901875481  0.9038583080655015  0.3976032587498467  1.0000
  N   N21       1.0  0.18235418870870035  0.22500668457711012  0.6690600075221483  1.0000
  N   N22       1.0  0.7749923161617573  0.817646688779959  0.8309386846781166  1.0000
  N   N23       1.0  0.8176469264468054  0.7749931315198283  0.33093756582096023  1.0000
  N   N24       1.0  0.22500800668120755  0.1823524410584199  0.1690620469453563  1.0000
  O   O1        1.0  0.3150109676954714  0.8664501012801299  0.6189060991507771  1.0000
  O   O2        1.0  0.13355031551716226  0.6849900151468592  0.8810934172188212  1.0000
  O   O3        1.0  0.6849885499460129  0.13354992065093543  0.38109392069041803  1.0000
  O   O4        1.0  0.8664500181917205  0.31501230803505836  0.11890643289128629  1.0000
  O   O5        1.0  0.4619028452204433  0.9332789597449249  0.6052504679650569  1.0000
  O   O6        1.0  0.06672221079170271  0.5380956927643725  0.8947495345834611  1.0000
  O   O7        1.0  0.5380966650922901  0.06672105485792912  0.39474818015375496  1.0000
  O   O8        1.0  0.9332789300144457  0.4619041489813042  0.10525283978799381  1.0000
  O   O9        1.0  0.8252135716520429  0.3210927148237345  0.9220261735496534  1.0000
  O   O10       1.0  0.6789077332093144  0.17478637961678342  0.5779732061355817  1.0000
  O   O11       1.0  0.17478675472808192  0.6789096010299643  0.0779723048380702  1.0000
  O   O12       1.0  0.3210917799471106  0.8252112509707389  0.4220281607018278  1.0000
  O   O13       1.0  0.9552591179426031  0.19749986424498905  0.9693936447098821  1.0000
  O   O14       1.0  0.8024998631631207  0.04474260156220577  0.530606200959994  1.0000
  O   O15       1.0  0.04474121304979661  0.8025016606010381  0.03060642577856497  1.0000
  O   O16       1.0  0.19749885294127276  0.9552583161256437  0.4693937929601189  1.0000
  O   O17       1.0  0.12342445961188989  0.32496761395297824  0.8220349010637449  1.0000
  O   O18       1.0  0.6750309516253524  0.8765759410505325  0.6779646883674673  1.0000
  O   O19       1.0  0.8765758559023098  0.6750315085571901  0.17796445883734432  1.0000
  O   O20       1.0  0.324968566016132  0.12342408088053247  0.32203533147372815  1.0000
  O   O21       1.0  0.9918155388029747  0.4356682818741292  0.7627030242407216  1.0000
  O   O22       1.0  0.5643294180066434  0.00818631064807819  0.7372966028828644  1.0000
  O   O23       1.0  0.0081888134573092  0.5643327558673691  0.2372960739614527  1.0000
  O   O24       1.0  0.4356676814411531  0.9918124068739402  0.26270444108677543  1.0000
  O   O25       1.0  0.46519234758222444  0.1549165633441305  0.5605736577779085  1.0000
  O   O26       1.0  0.8450857466719272  0.5348079806846259  0.9394257431336186  1.0000
  O   O27       1.0  0.5348071718278504  0.8450850515945947  0.43942523544541257  1.0000
  O   O28       1.0  0.1549161873946616  0.4651917526478257  0.060574379197007026  1.0000
  O   O29       1.0  0.3213332805846676  0.11302446425299452  0.5290933890156565  1.0000
  O   O30       1.0  0.8869767195024069  0.6786674873596183  0.9709068619990192  1.0000
  O   O31       1.0  0.6786678455639717  0.8869753628362604  0.47090624191103087  1.0000
  O   O32       1.0  0.1130260151533804  0.32133214488782624  0.02909238001315365  1.0000
