data_image0
_chemical_formula_structural       U2H16C28Br4O12
_chemical_formula_sum              "U2 H16 C28 Br4 O12"
_cell_length_a       5.141887612348367
_cell_length_b       8.785343822901906
_cell_length_c       17.68532734601771
_cell_angle_alpha    89.99995179242438
_cell_angle_beta     90.00015650649384
_cell_angle_gamma    94.76475807488033

_space_group_name_H-M_alt    "P 1"
_space_group_IT_number       1

loop_
  _space_group_symop_operation_xyz
  'x, y, z'

loop_
  _atom_site_type_symbol
  _atom_site_label
  _atom_site_symmetry_multiplicity
  _atom_site_fract_x
  _atom_site_fract_y
  _atom_site_fract_z
  _atom_site_occupancy
  U   U1        1.0  0.9999984951086632  1.0578774834007241e-06  0.9999999831490953  1.0000
  U   U2        1.0  1.8478727170800175e-06  0.5000025898373721  0.5000002730797773  1.0000
  H   H1        1.0  0.9009887114583891  0.7304680210113048  0.6721263299152439  1.0000
  H   H2        1.0  0.09901401308884768  0.7695307059146616  0.1721250805004075  1.0000
  H   H3        1.0  0.09901188274404402  0.26953215929138  0.3278746147663724  1.0000
  H   H4        1.0  0.9009867342107823  0.23047061658290605  0.8278752987405935  1.0000
  H   H5        1.0  0.838810176164472  0.7729877066169878  0.8108548581702877  1.0000
  H   H6        1.0  0.16119171747647704  0.7270096549287288  0.3108525418348407  1.0000
  H   H7        1.0  0.1611922104841099  0.22701133677863078  0.1891472173931987  1.0000
  H   H8        1.0  0.838812920899507  0.27299167814627606  0.6891467065267489  1.0000
  H   H9        1.0  0.22155824921892991  0.06106563337059609  0.7604066984766646  1.0000
  H   H10       1.0  0.7784449754148073  0.4389326955620589  0.2604064986627677  1.0000
  H   H11       1.0  0.7784417325766312  0.9389299781556493  0.23959254988403697  1.0000
  H   H12       1.0  0.22155787052020068  0.5610697744191173  0.7395927496979198  1.0000
  H   H13       1.0  0.6295948011820869  0.8535220086183273  0.5789483949473819  1.0000
  H   H14       1.0  0.37041290849806063  0.6464768805260234  0.07894627264492018  1.0000
  H   H15       1.0  0.37040743236413226  0.14647589258329674  0.4210531151757593  1.0000
  H   H16       1.0  0.6295858932530509  0.35352443668460154  0.921052410273873  1.0000
  C   C1        1.0  0.41006981719542773  0.965051292595369  0.664182786670338  1.0000
  C   C2        1.0  0.5899349334016506  0.5349485942901637  0.16418144255311518  1.0000
  C   C3        1.0  0.589932722547772  0.0349488929955797  0.3358181580120528  1.0000
  C   C4        1.0  0.4100638683520402  0.4650527229200207  0.8358178058061512  1.0000
  C   C5        1.0  0.7523252795517764  0.8022414303549752  0.6921875213378073  1.0000
  C   C6        1.0  0.24767972696388094  0.6977584125434007  0.19218698016517516  1.0000
  C   C7        1.0  0.24767531464549108  0.19775874994859066  0.30781229246284875  1.0000
  C   C8        1.0  0.7523211734381123  0.30224405214816846  0.8078139645161784  1.0000
  C   C9        1.0  0.5242660963470769  0.9178887339930029  0.793689631598788  1.0000
  C   C10       1.0  0.47573384800406876  0.5821097914179774  0.2936898768078535  1.0000
  C   C11       1.0  0.4757265625847611  0.08211028296347679  0.20630961675842485  1.0000
  C   C12       1.0  0.5242646475500622  0.4178892414033228  0.7063093715516757  1.0000
  C   C13       1.0  0.7188302360225124  0.8261996005237932  0.7692655230905173  1.0000
  C   C14       1.0  0.2811769610841992  0.6737967000162611  0.269262754969091  1.0000
  C   C15       1.0  0.2811742492666128  0.1738005903545385  0.23073655247361555  1.0000
  C   C16       1.0  0.718825119349326  0.32620005899314464  0.7307359279517768  1.0000
  C   C17       1.0  0.36749360684719795  0.9872047466859188  0.7409356568330878  1.0000
  C   C18       1.0  0.6325098995953838  0.5127950143574155  0.24093378871341287  1.0000
  C   C19       1.0  0.6325029431687528  0.0127942808466628  0.2590641569661472  1.0000
  C   C20       1.0  0.3674929463344513  0.48720745562464174  0.7590643287663069  1.0000
  C   C21       1.0  0.5990269164762553  0.8713156953040907  0.6390784513755392  1.0000
  C   C22       1.0  0.40097745160477427  0.6286830888189527  0.13907579402196285  1.0000
  C   C23       1.0  0.40097741571050705  0.1286833533802465  0.3609230587482415  1.0000
  C   C24       1.0  0.5990195577053541  0.37131936529785053  0.8609228888959207  1.0000
  C   C25       1.0  0.4871486851327873  0.9460753354315015  0.8753058564917919  1.0000
  C   C26       1.0  0.5128479608633967  0.553921909016232  0.3753050099498195  1.0000
  C   C27       1.0  0.5128459193449828  0.053923686812368005  0.1246945227471485  1.0000
  C   C28       1.0  0.4871539664729241  0.446073707798277  0.6246942384116636  1.0000
  Br  Br1       1.0  0.21887263563174736  0.0704895566277344  0.591879422229958  1.0000
  Br  Br2       1.0  0.7811311475917435  0.4295101844907947  0.09187866230798389  1.0000
  Br  Br3       1.0  0.78112795856552  0.9295106236758315  0.4081203915706979  1.0000
  Br  Br4       1.0  0.2188695997053003  0.5704911380072203  0.908121151492537  1.0000
  O   O1        1.0  0.2787460494429014  0.002588370346522601  0.8971285431388124  1.0000
  O   O2        1.0  0.7212506424289914  0.4974097226865766  0.39712827793492517  1.0000
  O   O3        1.0  0.7212487081320661  0.9974117940922298  0.10287127065952008  1.0000
  O   O4        1.0  0.27875159110431014  0.5025881785172642  0.6028704049858078  1.0000
  O   O5        1.0  0.9391705850728796  0.19463453102249417  0.9778250466059432  1.0000
  O   O6        1.0  0.0608299698010271  0.3053577348676626  0.47782318918142846  1.0000
  O   O7        1.0  0.06082611804544059  0.805365638704089  0.022175332633643997  1.0000
  O   O8        1.0  0.9391719575352936  0.6946378819468534  0.5221760591800544  1.0000
  O   O9        1.0  0.6663451857466569  0.9147021999527  0.921640953428792  1.0000
  O   O10       1.0  0.3336502443329579  0.5852972508176323  0.4216405188727349  1.0000
  O   O11       1.0  0.33365167047143984  0.08529911196832529  0.0783594258106604  1.0000
  O   O12       1.0  0.6663516830059494  0.4146983659964363  0.5783592949292212  1.0000
