data_image0
_chemical_formula_structural       Al6H16C67O29F4
_chemical_formula_sum              "Al6 H16 C67 O29 F4"
_cell_length_a       12.13768453952041
_cell_length_b       12.186715988925458
_cell_length_c       27.052429071967147
_cell_angle_alpha    82.32880153990698
_cell_angle_beta     82.28408731434818
_cell_angle_gamma    63.7587830472462

_space_group_name_H-M_alt    "P 1"
_space_group_IT_number       1

loop_
  _space_group_symop_operation_xyz
  'x, y, z'

loop_
  _atom_site_type_symbol
  _atom_site_label
  _atom_site_symmetry_multiplicity
  _atom_site_fract_x
  _atom_site_fract_y
  _atom_site_fract_z
  _atom_site_occupancy
  Al  Al1       1.0  0.40241315728957977  0.4025870910093943  0.5116013395869532  1.0000
  Al  Al2       1.0  0.6598223475670512  0.42291645361971314  0.4957340747966868  1.0000
  Al  Al3       1.0  0.4253518729627289  0.6577485127729686  0.4971337856128813  1.0000
  Al  Al4       1.0  0.9280142267750262  0.9394719978016253  0.9789121202939486  1.0000
  Al  Al5       1.0  0.9142655886232876  0.6797411458064885  0.9955006891408332  1.0000
  Al  Al6       1.0  0.675598140633376  0.909676294330481  0.9942291831667094  1.0000
  H   H1        1.0  0.11667730567308619  0.8810571296279335  0.20841885982157046  1.0000
  H   H2        1.0  0.21716861335271184  0.46249115531924895  0.28517820195070004  1.0000
  H   H3        1.0  0.4475004741283115  0.22748364121494555  0.22761223692091911  1.0000
  H   H4        1.0  0.5825552631927806  0.04044630940081358  0.30042877110951605  1.0000
  H   H5        1.0  0.5340791773781178  0.38628772257926874  0.26025622969459766  1.0000
  H   H6        1.0  0.9708508898796567  0.0756151220664236  0.2258702430489948  1.0000
  H   H7        1.0  0.7417740314984445  0.2990005438614389  0.18931193667127394  1.0000
  H   H8        1.0  0.7896499695744694  0.9557816050614748  0.22958776463142538  1.0000
  H   H9        1.0  0.6753881712246256  0.8437115981114899  0.6958005477130772  1.0000
  H   H10       1.0  0.6790334410473522  0.4748850375335323  0.7953861441053861  1.0000
  H   H11       1.0  0.856611811881237  0.4768794993036209  0.7160378416615318  1.0000
  H   H12       1.0  0.8670143512100453  0.6767609552870439  0.7552370255582803  1.0000
  H   H13       1.0  0.3363541112177942  0.724953875105122  0.2542862063619254  1.0000
  H   H14       1.0  0.3551542365772208  0.5274265366194442  0.2024733989302591  1.0000
  H   H15       1.0  0.3052768826769707  0.2855628938398524  0.5549268111588362  1.0000
  H   H16       1.0  0.04221255283046332  0.039070298948253396  0.9970146161459897  1.0000
  C   C1        1.0  0.6143617107471331  0.28377919284273645  0.43569361780090804  1.0000
  C   C2        1.0  0.14985226804240184  0.6790811422471209  0.196642966813677  1.0000
  C   C3        1.0  0.19575029137782718  0.554808360620413  0.2675070160669151  1.0000
  C   C4        1.0  0.6177796048244846  0.6155689400365603  0.4176541066826546  1.0000
  C   C5        1.0  0.1856792221465113  0.6643018345534771  0.2966272737841109  1.0000
  C   C6        1.0  0.2721855632319717  0.5913815840383877  0.22270033006910245  1.0000
  C   C7        1.0  0.2614245792945198  0.7010505457443659  0.2503266800010025  1.0000
  C   C8        1.0  0.128406745744968  0.6877291366400442  0.1459723545431828  1.0000
  C   C9        1.0  0.20621907600207828  0.656673498779341  0.3473535624067596  1.0000
  C   C10       1.0  0.6163485722349834  0.09886741842569789  0.2752151857657311  1.0000
  C   C11       1.0  0.5420670195354519  0.2023707451379124  0.23553446033756142  1.0000
  C   C12       1.0  0.6637571189903185  0.6651017735693329  0.26888528918795634  1.0000
  C   C13       1.0  0.6758741954838854  0.10670942123566361  0.10208058449042312  1.0000
  C   C14       1.0  0.6439722489430864  0.23533657232523097  0.3876886210443546  1.0000
  C   C15       1.0  0.7312733488859495  0.0516147102935562  0.23657125140463364  1.0000
  C   C16       1.0  0.27899300155810647  0.6197697906963242  0.43836606155797153  1.0000
  C   C17       1.0  0.6575074267689162  0.1546378762868201  0.19559186980937684  1.0000
  C   C18       1.0  0.7786213021520965  0.13972402713998378  0.25480188392543823  1.0000
  C   C19       1.0  0.6630101738218244  0.1872920588912734  0.29420578646467294  1.0000
  C   C20       1.0  0.704524505609385  0.24274504099749086  0.21415955412221174  1.0000
  C   C21       1.0  0.5895811768853039  0.29016700396361733  0.25280687240132244  1.0000
  C   C22       1.0  0.6627268555593631  0.1318724867778656  0.14525790926907695  1.0000
  C   C23       1.0  0.6531109765521068  0.6542827684118178  0.31909215608620667  1.0000
  C   C24       1.0  0.6577253317982114  0.2099815266958913  0.34456252141021093  1.0000
  C   C25       1.0  0.677416469944788  0.7615428809474807  0.7182899568742799  1.0000
  C   C26       1.0  0.5795256625301092  0.7599361897055277  0.761545964304425  1.0000
  C   C27       1.0  0.7013537850040312  0.6859641977896587  0.8898840028774732  1.0000
  C   C28       1.0  0.6180679003987138  0.2793479920336566  0.577177089954205  1.0000
  C   C29       1.0  0.6484205037716962  0.6376297294325893  0.6013327524455863  1.0000
  C   C30       1.0  0.7831779219650773  0.6684624597299516  0.7504806125343537  1.0000
  C   C31       1.0  0.684724738641805  0.6672427240104142  0.7956545715261714  1.0000
  C   C32       1.0  0.7775131833145893  0.5579602628251761  0.7293687253296429  1.0000
  C   C33       1.0  0.6721763263097672  0.6503479583125369  0.6953982786999122  1.0000
  C   C34       1.0  0.642023096072009  0.6428575804723664  0.3650226768050545  1.0000
  C   C35       1.0  0.6792731641824191  0.556046430440226  0.7727733837642036  1.0000
  C   C36       1.0  0.5739126023177691  0.648460233513859  0.7406987813273604  1.0000
  C   C37       1.0  0.6933297980665216  0.6754700894667068  0.8464402563747699  1.0000
  C   C38       1.0  0.6610628511612618  0.6441921204074176  0.644666103250451  1.0000
  C   C39       1.0  0.10558509909423462  0.6994326128196419  0.863578679933241  1.0000
  C   C40       1.0  0.6208649830547373  0.6157734172053324  0.5547941743128748  1.0000
  C   C41       1.0  0.13210558037143016  0.6866689257068472  0.81867941517816  1.0000
  C   C42       1.0  0.1586308179220169  0.6743131647227258  0.7694945718530379  1.0000
  C   C43       1.0  0.1810031800555905  0.6647215283793813  0.7240161127747557  1.0000
  C   C44       1.0  0.20808497228761527  0.6525337813724832  0.6748340157280168  1.0000
  C   C45       1.0  0.06361034133541921  0.7520020957834531  0.27045094317445983  1.0000
  C   C46       1.0  0.2346451228816734  0.6403723371699355  0.6298933780378918  1.0000
  C   C47       1.0  0.6920738089903299  0.10320212430971047  0.862095395367952  1.0000
  C   C48       1.0  0.681943274660604  0.12910903242131866  0.8170289691280889  1.0000
  C   C49       1.0  0.6722120843446078  0.155085458783887  0.7676702793364358  1.0000
  C   C50       1.0  0.664884694549194  0.1765538576218759  0.7220482694785064  1.0000
  C   C51       1.0  0.655058311052592  0.20248169151209794  0.672685915394361  1.0000
  C   C52       1.0  0.2852008859347067  0.6115740623732436  0.5795973681910385  1.0000
  C   C53       1.0  0.6447950779074958  0.22843550932589102  0.6276239253185028  1.0000
  C   C54       1.0  0.054339406570505865  0.7257042160391903  0.05505746822488794  1.0000
  C   C55       1.0  0.7202047516928334  0.7193081842775156  0.07385311256964402  1.0000
  C   C56       1.0  0.1396704835272686  0.7882720217376615  0.22581567079573978  1.0000
  C   C57       1.0  0.7091241493469485  0.056530688410610715  0.05427457658116451  1.0000
  C   C58       1.0  0.0544199451987312  0.7278443120564049  0.9137921720286644  1.0000
  C   C59       1.0  0.7239895712723909  0.7122742024283824  0.936474907808581  1.0000
  C   C60       1.0  0.7179479120204987  0.05325157844735878  0.9126654269970589  1.0000
  C   C61       1.0  0.6948346530872557  0.6936808008456481  0.12648992447823562  1.0000
  C   C62       1.0  0.6836578689483022  0.6832345031767062  0.17244969069860624  1.0000
  C   C63       1.0  0.672447387033202  0.6731282509021669  0.22266769967073705  1.0000
  C   C64       1.0  0.9091195455833586  0.10475688620400089  0.26120824798039893  1.0000
  C   C65       1.0  0.10448813250013701  0.6984191989504112  0.10278492849508322  1.0000
  C   C66       1.0  0.22912723310989244  0.647459887165553  0.39057281660039683  1.0000
  C   C67       1.0  0.07461681100000557  0.6415779201416428  0.24300687386278955  1.0000
  O   O1        1.0  0.29739338994300385  0.5166883148520326  0.4611265772043042  1.0000
  O   O2        1.0  0.6421119965115665  0.8187429853133421  0.05304734152635154  1.0000
  O   O3        1.0  0.6286219779319708  0.032856922769823896  0.036714337456132326  1.0000
  O   O4        1.0  0.5073255918349063  0.3087205331441822  0.45638523947749143  1.0000
  O   O5        1.0  0.8190056631600059  0.0387697632283022  0.9264829562499772  1.0000
  O   O6        1.0  0.029541212866391338  0.8335933986740327  0.9254068274784405  1.0000
  O   O7        1.0  0.033997178259603904  0.6433286718652338  0.9419290553670765  1.0000
  O   O8        1.0  0.8255368630027818  0.6386103047447094  0.9549918509367503  1.0000
  O   O9        1.0  0.6443016016652692  0.810985893026526  0.955234546315886  1.0000
  O   O10       1.0  0.6366972683547374  0.023339751951979792  0.938643957378844  1.0000
  O   O11       1.0  0.8382536894021013  0.8416249880689578  0.9899422806883609  1.0000
  O   O12       1.0  0.6972063034386908  0.5176892748512429  0.5347578228715266  1.0000
  O   O13       1.0  0.6983580438453175  0.3024454879895089  0.4530589031077953  1.0000
  O   O14       1.0  0.6941903099833413  0.5132684243667143  0.4371850372297389  1.0000
  O   O15       1.0  0.5190145740286597  0.6925511169145792  0.4393970682068869  1.0000
  O   O16       1.0  0.3061457472854557  0.7010966498626985  0.4528013296136991  1.0000
  O   O17       1.0  0.3080124671576743  0.5061726380792209  0.5681523317022794  1.0000
  O   O18       1.0  0.5156716532432243  0.29629651879037777  0.5638460457842741  1.0000
  O   O19       1.0  0.6998921977813384  0.3078111196844588  0.5509268899002537  1.0000
  O   O20       1.0  0.9505148649564533  0.1065245932730434  0.2995951439200725  1.0000
  O   O21       1.0  0.5185443347546014  0.6927218627079769  0.5377643651206938  1.0000
  O   O22       1.0  0.306949989208576  0.6950083583969259  0.5513152835000386  1.0000
  O   O23       1.0  0.4970865676435423  0.49573541864421605  0.5016839904046294  1.0000
  O   O24       1.0  0.8159037593396762  0.03501602145320961  0.03412782078314082  1.0000
  O   O25       1.0  0.031625738745624785  0.8303096098331296  0.03275429731647959  1.0000
  O   O26       1.0  0.03177330469956987  0.6419189756822872  0.04011200752649561  1.0000
  O   O27       1.0  0.8216757294188995  0.6437088965258937  0.05314498841567431  1.0000
  O   O28       1.0  0.31515149468214076  0.3187661166881171  0.5210186104176417  1.0000
  O   O29       1.0  0.0090555870062516  0.029364447233390902  0.9682227982153224  1.0000
  F   F1        1.0  0.4807400094689955  0.86142806895419  0.777454730554162  1.0000
  F   F2        1.0  0.46932772465382305  0.6374659139395291  0.7357072453059816  1.0000
  F   F3        1.0  0.9577791582969583  0.8321724658691212  0.29444066860568807  1.0000
  F   F4        1.0  0.9797776508496412  0.6128626982619706  0.2390462213321031  1.0000
