data_image0
_chemical_formula_structural       Li16H16C16N64
_chemical_formula_sum              "Li16 H16 C16 N64"
_cell_length_a       9.898567007332053
_cell_length_b       9.898567322054387
_cell_length_c       13.945980010039584
_cell_angle_alpha    90.00022608369629
_cell_angle_beta     89.99983581695987
_cell_angle_gamma    93.86950695562423

_space_group_name_H-M_alt    "P 1"
_space_group_IT_number       1

loop_
  _space_group_symop_operation_xyz
  'x, y, z'

loop_
  _atom_site_type_symbol
  _atom_site_label
  _atom_site_symmetry_multiplicity
  _atom_site_fract_x
  _atom_site_fract_y
  _atom_site_fract_z
  _atom_site_occupancy
  Li  Li1       1.0  0.5262179244879165  0.47378299623088815  0.7500012030443984  1.0000
  Li  Li2       1.0  0.47377992073599984  0.5262165972086522  0.2500020462089623  1.0000
  Li  Li3       1.0  0.08360559506804323  0.9163925027506825  0.2500001137381815  1.0000
  Li  Li4       1.0  0.9163972355823021  0.08360608756339624  0.7499981161411711  1.0000
  Li  Li5       1.0  0.9762804148824032  0.9762792749279968  0.49999965529097784  1.0000
  Li  Li6       1.0  0.023720211925557098  0.023716600790820105  0.9999985742283003  1.0000
  Li  Li7       1.0  0.5896262331116587  0.979180122240429  0.5000158243215651  1.0000
  Li  Li8       1.0  0.4103744940357217  0.020817124992682103  1.68244371537e-05  1.0000
  Li  Li9       1.0  0.979178685845703  0.5896267109545194  0.4999826227115278  1.0000
  Li  Li10      1.0  0.020820119616004714  0.4103721985663358  0.999984773555788  1.0000
  Li  Li11      1.0  0.5905111586026736  0.5905120979153511  0.5000002250755884  1.0000
  Li  Li12      1.0  0.4094875478587454  0.40948514545476683  1.5632211610000011e-07  1.0000
  Li  Li13      1.0  0.9128615853504344  0.47276929702413645  0.7496465878618538  1.0000
  Li  Li14      1.0  0.08714030268356508  0.5272303020678921  0.24964606234794223  1.0000
  Li  Li15      1.0  0.47276822838997407  0.9128605388492308  0.2503539403974457  1.0000
  Li  Li16      1.0  0.5272316362746635  0.08713906024866704  0.7503527373682672  1.0000
  H   H1        1.0  0.6725982684512957  0.2932762939344188  0.4288337014299728  1.0000
  H   H2        1.0  0.327402755324691  0.7067212261570861  0.9288346238050309  1.0000
  H   H3        1.0  0.2932719159682833  0.6726175854555906  0.5711659495628041  1.0000
  H   H4        1.0  0.7067215937866534  0.3273972407365947  0.0711657702557673  1.0000
  H   H5        1.0  0.7744502219763802  0.8309810265807589  0.17905053766261864  1.0000
  H   H6        1.0  0.22555293838965437  0.16901819671274151  0.6790516047009517  1.0000
  H   H7        1.0  0.8309825844261381  0.7744541057462445  0.8209500745115931  1.0000
  H   H8        1.0  0.16901519687326066  0.22554890492688884  0.3209485452103991  1.0000
  H   H9        1.0  0.21986278881162497  0.5101709902643778  0.6721920432592086  1.0000
  H   H10       1.0  0.7801362089731042  0.48984135006918467  0.1721842799399909  1.0000
  H   H11       1.0  0.5101557738147164  0.21986387613723227  0.3278146882099904  1.0000
  H   H12       1.0  0.4898297910945715  0.7801381360408116  0.8278104677622479  1.0000
  H   H13       1.0  0.2871255223232154  0.011958378614153303  0.5785090892684579  1.0000
  H   H14       1.0  0.7128777453382542  0.9880362565583103  0.07850786596021211  1.0000
  H   H15       1.0  0.011967478568642807  0.2871232043337103  0.42148887302245436  1.0000
  H   H16       1.0  0.9880393689080481  0.712870237580063  0.9214906314904425  1.0000
  C   C1        1.0  0.7759671560805331  0.8714640256188847  0.2512520439541319  1.0000
  C   C2        1.0  0.22403560347132156  0.12853355884723072  0.7512530015062353  1.0000
  C   C3        1.0  0.8714637664453805  0.7759682321211586  0.7487471501468335  1.0000
  C   C4        1.0  0.128532873718278  0.22402831505731777  0.24874713236363993  1.0000
  C   C5        1.0  0.21917941681935826  0.4802394585426841  0.7469210639977177  1.0000
  C   C6        1.0  0.7808179610486619  0.5197682169482506  0.2469176848207439  1.0000
  C   C7        1.0  0.4802288945502511  0.21918003774745648  0.253081353463557  1.0000
  C   C8        1.0  0.5197589019639041  0.7808205658391503  0.7530813768803598  1.0000
  C   C9        1.0  0.6324209623772532  0.28874164598058644  0.5011334233789455  1.0000
  C   C10       1.0  0.36757989351955445  0.7112576323368817  0.0011335610101995003  1.0000
  C   C11       1.0  0.2887366584776956  0.6324316614856119  0.49886549348077114  1.0000
  C   C12       1.0  0.7112587741124232  0.36757736004234703  0.9988675671762621  1.0000
  C   C13       1.0  0.2838189775589939  0.9832161594826946  0.5035383002005744  1.0000
  C   C14       1.0  0.7161848340875068  0.016782124809012103  0.0035372383304093  1.0000
  C   C15       1.0  0.9832197906308265  0.2838147230866996  0.4964593145645111  1.0000
  C   C16       1.0  0.016780849308091202  0.7161811337001965  0.9964616066602119  1.0000
  N   N1        1.0  0.6032920958496746  0.3977006937893038  0.5522092546393793  1.0000
  N   N2        1.0  0.39671039192322866  0.6022958239000008  0.0522090306194087  1.0000
  N   N3        1.0  0.3976987224564184  0.6032979985747391  0.4477947120540832  1.0000
  N   N4        1.0  0.6022985881603021  0.3967056907182924  0.9477920670861053  1.0000
  N   N5        1.0  0.6654576370351536  0.8991389194610877  0.30110526974777235  1.0000
  N   N6        1.0  0.33454500397341747  0.10085994427431193  0.8011059275233166  1.0000
  N   N7        1.0  0.8991369999343065  0.6654564374484837  0.6988960438863927  1.0000
  N   N8        1.0  0.1008621117530879  0.33454389700988696  0.19889352092304344  1.0000
  N   N9        1.0  0.282950768974601  0.41839427570303694  0.8848918558002623  1.0000
  N   N10       1.0  0.7170484635675863  0.5816040180626275  0.3848880600808684  1.0000
  N   N11       1.0  0.4183931711163424  0.28294941703446613  0.11511056238406779  1.0000
  N   N12       1.0  0.5816020106358623  0.7170474239622637  0.6151110008695966  1.0000
  N   N13       1.0  0.7129073069255228  0.9430822284612294  0.38682460849586414  1.0000
  N   N14       1.0  0.28709494955530346  0.05691608132157462  0.8868252397900989  1.0000
  N   N15       1.0  0.9430791807957988  0.7129058624482811  0.6131753059241446  1.0000
  N   N16       1.0  0.05692308075358451  0.28709098140509337  0.1131727396519651  1.0000
  N   N17       1.0  0.8891536228133602  0.8975007560649647  0.30258718947231966  1.0000
  N   N18       1.0  0.11084989017471261  0.10249609237892801  0.8025875858276378  1.0000
  N   N19       1.0  0.8975032660232926  0.8891527257609086  0.6974113407202721  1.0000
  N   N20       1.0  0.10249989266092292  0.11084760831360546  0.1974110607899746  1.0000
  N   N21       1.0  0.8462989113672067  0.9419637406850189  0.3875881333747984  1.0000
  N   N22       1.0  0.15370428620800422  0.05803356251416862  0.8875876026545839  1.0000
  N   N23       1.0  0.9419616132768027  0.8462964266631802  0.612411114486747  1.0000
  N   N24       1.0  0.05804166147656531  0.15370041499675585  0.11241104334256849  1.0000
  N   N25       1.0  0.3298628260008342  0.454786428677892  0.7973332938854368  1.0000
  N   N26       1.0  0.6701390844309998  0.545216463190066  0.29732877454450346  1.0000
  N   N27       1.0  0.454779328259825  0.32985973338212216  0.20266987315714863  1.0000
  N   N28       1.0  0.5452094663483608  0.6701375647276253  0.7026695375584708  1.0000
  N   N29       1.0  0.39350016044793534  0.9608225680964042  0.4511467166902747  1.0000
  N   N30       1.0  0.6064997701623085  0.03917506947564682  0.9511452204795958  1.0000
  N   N31       1.0  0.9608316205854024  0.39350216014894823  0.5488516484533505  1.0000
  N   N32       1.0  0.039179228415768805  0.6064984049044924  0.048853591184261795  1.0000
  N   N33       1.0  0.34486666234228386  0.9248256276661311  0.3642012303855751  1.0000
  N   N34       1.0  0.6551327798676354  0.07517458051763982  0.8641997361816962  1.0000
  N   N35       1.0  0.9248300935010716  0.3448688625443739  0.6357963854020312  1.0000
  N   N36       1.0  0.07517740175379123  0.6551321620013513  0.1357983907412432  1.0000
  N   N37       1.0  0.10667009047357111  0.46141479656126466  0.8000066998975797  1.0000
  N   N38       1.0  0.8933299221892954  0.5385901309371165  0.30000099501488353  1.0000
  N   N39       1.0  0.46140965772384857  0.10666987524027863  0.1999978185767048  1.0000
  N   N40       1.0  0.5385823108160538  0.8933294393423103  0.6999959656607401  1.0000
  N   N41       1.0  0.6080903830541899  0.17424215982430982  0.5512982825023727  1.0000
  N   N42       1.0  0.39191109772497873  0.8257543511046209  0.0512986893766652  1.0000
  N   N43       1.0  0.17424156921845932  0.6080984322097082  0.44870129840214895  1.0000
  N   N44       1.0  0.8257569477410058  0.3919083014953132  0.94870320885925  1.0000
  N   N45       1.0  0.5603739117683092  0.3482131355438086  0.6373663854616467  1.0000
  N   N46       1.0  0.43962738253235056  0.6517858609581496  0.1373662124780495  1.0000
  N   N47       1.0  0.3482115566691704  0.5603734369426975  0.3626382629983667  1.0000
  N   N48       1.0  0.6517879577887058  0.43962777543178083  0.8626363546174289  1.0000
  N   N49       1.0  0.21176869364713727  0.9262929430590038  0.3645806873997586  1.0000
  N   N50       1.0  0.7882305478141876  0.07370422949102821  0.864578203668799  1.0000
  N   N51       1.0  0.9262992126994761  0.21177053200877077  0.6354168781343718  1.0000
  N   N52       1.0  0.07370821751680272  0.7882294779519301  0.1354185393972287  1.0000
  N   N53       1.0  0.15006908975088615  0.42240319626643  0.8863067399567086  1.0000
  N   N54       1.0  0.8499301375402483  0.5775951050700743  0.3863033821897375  1.0000
  N   N55       1.0  0.42240204559840316  0.15006641575175914  0.1136956290275322  1.0000
  N   N56       1.0  0.5775920645858078  0.849929403230128  0.6136950109079821  1.0000
  N   N57       1.0  0.5631383073035751  0.21491676475753252  0.6369832913501909  1.0000
  N   N58       1.0  0.4368619780450231  0.7850822278075287  0.1369834945075823  1.0000
  N   N59       1.0  0.21491391489753653  0.5631393262686047  0.3630191561239187  1.0000
  N   N60       1.0  0.7850847206654805  0.4368639113678015  0.8630191224209725  1.0000
  N   N61       1.0  0.16992679917030531  0.9629438960611769  0.45208986910964916  1.0000
  N   N62       1.0  0.8300729286026254  0.03705070888858592  0.9520857650055204  1.0000
  N   N63       1.0  0.9629522494571745  0.16992826686414736  0.5479091285452  1.0000
  N   N64       1.0  0.03705550547537943  0.8300712749277968  0.047910980039773704  1.0000
