data_image0
_chemical_formula_structural       AlH12C27N7O12
_chemical_formula_sum              "Al1 H12 C27 N7 O12"
_cell_length_a       3.9293251229363757
_cell_length_b       18.054321092327235
_cell_length_c       18.136198713098022
_cell_angle_alpha    119.82443591695382
_cell_angle_beta     91.15856744014337
_cell_angle_gamma    90.81273165619776

_space_group_name_H-M_alt    "P 1"
_space_group_IT_number       1

loop_
  _space_group_symop_operation_xyz
  'x, y, z'

loop_
  _atom_site_type_symbol
  _atom_site_label
  _atom_site_symmetry_multiplicity
  _atom_site_fract_x
  _atom_site_fract_y
  _atom_site_fract_z
  _atom_site_occupancy
  Al  Al1       1.0  0.008796416962546504  0.0004508818199226989  0.5001182144195438  1.0000
  H   H1        1.0  0.7990603771580425  0.30150151166700584  0.40374931026081384  1.0000
  H   H2        1.0  0.7909169279003191  0.09492414738184611  0.8969125834886215  1.0000
  H   H3        1.0  0.7503938346672709  0.6072792367344989  0.19720361903168288  1.0000
  H   H4        1.0  0.2658193734186795  0.3021265582532139  0.8925455708191877  1.0000
  H   H5        1.0  0.23326619681939312  0.600581359141472  0.4025547268393267  1.0000
  H   H6        1.0  0.23223918954864323  0.09154466483493452  0.19542164884995833  1.0000
  H   H7        1.0  0.15049134756289814  0.9850160633398559  0.31303535616729766  1.0000
  H   H8        1.0  0.8688183109889207  0.18660510441123537  0.513584032188966  1.0000
  H   H9        1.0  0.15690785735547047  0.8247510379092872  0.5122511623189112  1.0000
  H   H10       1.0  0.8255364611974085  0.8320777650861332  0.31449327065674043  1.0000
  H   H11       1.0  0.18986560684949433  0.18658207934294782  0.6687832499107742  1.0000
  H   H12       1.0  0.8660216096736942  0.9871497327180521  0.6740127715050833  1.0000
  C   C1        1.0  0.5084456303391532  0.06727392272069471  0.43266596838890353  1.0000
  C   C2        1.0  0.523456456710008  0.06736139668874588  0.6336125034382152  1.0000
  C   C3        1.0  0.4951099106646166  0.8663111648572794  0.4328896441913983  1.0000
  C   C4        1.0  0.6753360229352763  0.23864595848985462  0.3760867424821868  1.0000
  C   C5        1.0  0.5153332510107161  0.20079419502280874  0.2954403348630095  1.0000
  C   C6        1.0  0.6781445873041175  0.12281691083057213  0.8613289449472318  1.0000
  C   C7        1.0  0.5280488844512161  0.20270137878593184  0.9031553621315  1.0000
  C   C8        1.0  0.49197609551154625  0.5955362158300235  0.2956757890416172  1.0000
  C   C9        1.0  0.637663413491701  0.640687474056982  0.2594350662938752  1.0000
  C   C10       1.0  0.3801489563094405  0.23977308920016333  0.8588386567000157  1.0000
  C   C11       1.0  0.3637901821099731  0.19404086391809736  0.7704421277416245  1.0000
  C   C12       1.0  0.527920555787041  0.1137488604942902  0.7253861567171002  1.0000
  C   C13       1.0  0.6943038879163124  0.08023197911942502  0.7731103538588258  1.0000
  C   C14       1.0  0.6534467676897648  0.7294833286141157  0.3057948617865095  1.0000
  C   C15       1.0  0.4908259976482794  0.774110136279013  0.3858957194447399  1.0000
  C   C16       1.0  0.3271450090648925  0.725588963316092  0.4186713289727992  1.0000
  C   C17       1.0  0.3440691572437088  0.636943758744728  0.375410486073541  1.0000
  C   C18       1.0  0.3546940598083096  0.12003145564522551  0.2583376304122922  1.0000
  C   C19       1.0  0.33626272283410674  0.07785875649385332  0.3048635952545596  1.0000
  C   C20       1.0  0.5116015656075986  0.11257336604295888  0.3857644546472727  1.0000
  C   C21       1.0  0.6900007769838509  0.19320112754150645  0.4194238561379109  1.0000
  C   C22       1.0  0.5048216803277723  0.377481886381716  0.254188087262726  1.0000
  C   C23       1.0  0.5197301888323196  0.24282807706056533  0.11975927603514692  1.0000
  C   C24       1.0  0.5143868594482865  0.24803283752110872  0.2483136352333233  1.0000
  C   C25       1.0  0.4971547948660697  0.5012220973884497  0.24852695890555054  1.0000
  C   C26       1.0  0.5098253693216249  0.37819460933641846  0.11989482941203282  1.0000
  C   C27       1.0  0.5233644978405464  0.2493525987377652  0.9970135650796906  1.0000
  N   N1        1.0  0.5113996010689305  0.3328283497223623  0.16461291989500637  1.0000
  N   N2        1.0  0.5120423933492756  0.20087506750027023  0.1629657945367882  1.0000
  N   N3        1.0  0.5156228012511335  0.3337433676768526  0.29559038943715166  1.0000
  N   N4        1.0  0.487607789850095  0.4623925582491495  0.2954283191082112  1.0000
  N   N5        1.0  0.5123218086132438  0.4633411216096519  0.16339110405662893  1.0000
  N   N6        1.0  0.5357684889484773  0.20181941813363125  0.035226709919527435  1.0000
  N   N7        1.0  0.50605719686164  0.3348778714407246  0.03514370034987734  1.0000
  O   O1        1.0  0.27021917112053717  0.9061771294952692  0.4900492953703265  1.0000
  O   O2        1.0  0.26988597362216626  0.0101578461934082  0.41644863281024413  1.0000
  O   O3        1.0  0.2912691015493463  0.08358391426692441  0.5919048775275328  1.0000
  O   O4        1.0  0.7261577838349991  0.9084086284000394  0.41713541286268474  1.0000
  O   O5        1.0  0.7494136926058415  0.010153558881462701  0.5937563619513  1.0000
  O   O6        1.0  0.7444098169331141  0.0842164312626394  0.49061542142661807  1.0000
  O   O7        1.0  0.1593251128558605  0.0027997144682814  0.2696410209256328  1.0000
  O   O8        1.0  0.8651182177768317  0.22928974777268962  0.49459837090886083  1.0000
  O   O9        1.0  0.16508356392252918  0.7631395200974751  0.493070745245312  1.0000
  O   O10       1.0  0.8154805401203404  0.7707343028958463  0.271167410979075  1.0000
  O   O11       1.0  0.19965962880538507  0.22950047470505552  0.7300231677478805  1.0000
  O   O12       1.0  0.8583965201907016  0.0056778873128636  0.7351800382009515  1.0000
