data_image0
_chemical_formula_structural       Zn4H18C32N4O23
_chemical_formula_sum              "Zn4 H18 C32 N4 O23"
_cell_length_a       10.856653737863766
_cell_length_b       19.204600384778924
_cell_length_c       19.193974892659387
_cell_angle_alpha    94.6735607214041
_cell_angle_beta     95.7334405261772
_cell_angle_gamma    92.34074314572997

_space_group_name_H-M_alt    "P 1"
_space_group_IT_number       1

loop_
  _space_group_symop_operation_xyz
  'x, y, z'

loop_
  _atom_site_type_symbol
  _atom_site_label
  _atom_site_symmetry_multiplicity
  _atom_site_fract_x
  _atom_site_fract_y
  _atom_site_fract_z
  _atom_site_occupancy
  Zn  Zn1       1.0  0.6101319844873955  0.5644643157873618  0.5647220957875021  1.0000
  Zn  Zn2       1.0  0.3860688614762323  0.5532479415708238  0.4419076345317449  1.0000
  Zn  Zn3       1.0  0.4108788015753291  0.4362471724159463  0.5512153255803155  1.0000
  Zn  Zn4       1.0  0.59606333743978  0.44097563875673984  0.4379429101003892  1.0000
  H   H1        1.0  0.9987331740966138  0.5812346445471164  0.49239774372605166  1.0000
  H   H2        1.0  0.48448412168736604  0.22869512390191463  0.5973969450878086  1.0000
  H   H3        1.0  0.07730526301210008  0.38293575069240404  0.505050040576961  1.0000
  H   H4        1.0  0.6495941928144262  0.4638951506391821  0.23070512275129565  1.0000
  H   H5        1.0  0.6504572590201789  0.4720856934134546  0.04557927509717531  1.0000
  H   H6        1.0  0.7436040411101459  0.5240579219455342  0.9674029755531705  1.0000
  H   H7        1.0  0.8108173873346941  0.5330218858346641  0.8198380133369979  1.0000
  H   H8        1.0  0.2677950035467305  0.5317185517380453  0.2727989498101521  1.0000
  H   H9        1.0  0.33366369384871314  0.4714040841954131  0.8922585178115057  1.0000
  H   H10       1.0  0.26792201548554573  0.5257717927301615  0.08753068536508121  1.0000
  H   H11       1.0  0.319923536081795  0.4664141228382165  0.7075834506894125  1.0000
  H   H12       1.0  0.45004542742533715  0.7128832927742152  0.3922471723586796  1.0000
  H   H13       1.0  0.5006909611595561  0.9546723642486016  0.40925585834238376  1.0000
  H   H14       1.0  0.5417252112751996  0.09177965865853822  0.372129861394093  1.0000
  H   H15       1.0  0.5445548757349458  0.22302323890276202  0.3780799211481777  1.0000
  H   H16       1.0  0.5251548722170583  0.7741106953600865  0.6258740668101126  1.0000
  H   H17       1.0  0.5001371112382885  0.0426909910512734  0.5930077112991085  1.0000
  H   H18       1.0  0.5332986929356593  0.885908718897305  0.6841435840650547  1.0000
  C   C1        1.0  0.468007411040098  0.49364353436108394  0.3096637739267862  1.0000
  C   C2        1.0  0.46115806994193775  0.4948179742462244  0.23244263182493088  1.0000
  C   C3        1.0  0.3514878108774441  0.5133301418635626  0.1921269190952302  1.0000
  C   C4        1.0  0.5185540398405025  0.5030713994425897  0.6866077169009513  1.0000
  C   C5        1.0  0.3509676615533692  0.5127456870522877  0.1195845168770262  1.0000
  C   C6        1.0  0.5137186606250309  0.23303769116827067  0.4880464212462384  1.0000
  C   C7        1.0  0.4982644566606069  0.19894331016696037  0.5482686337644863  1.0000
  C   C8        1.0  0.5025548394268641  0.1260362903222898  0.5467057653510636  1.0000
  C   C9        1.0  0.5165539446219327  0.087132635524334  0.481316077179649  1.0000
  C   C10       1.0  0.5306536389846954  0.12294751741232093  0.4209935402429749  1.0000
  C   C11       1.0  0.5316628566475927  0.1950374751437138  0.4240853015986018  1.0000
  C   C12       1.0  0.4144405078337456  0.4834005694592848  0.795888680176027  1.0000
  C   C13       1.0  0.4944554037434656  0.8709669646006263  0.4537697973722671  1.0000
  C   C14       1.0  0.4824568483386074  0.7967926558612818  0.44967029380494944  1.0000
  C   C15       1.0  0.5091531409135328  0.9101671025943788  0.5205754586885263  1.0000
  C   C16       1.0  0.49399160217113547  0.686300785984379  0.5100481898948741  1.0000
  C   C17       1.0  0.49620649103682973  0.7632365789860459  0.5124720036879251  1.0000
  C   C18       1.0  0.5148014993716713  0.802474758957338  0.5788545161818561  1.0000
  C   C19       1.0  0.5178014699654483  0.8744424140683126  0.583346926797496  1.0000
  C   C20       1.0  0.510246930183115  0.31068461029740757  0.4913261599202413  1.0000
  C   C21       1.0  0.173017487158539  0.48623785170802597  0.49092044119959855  1.0000
  C   C22       1.0  0.8249901594518575  0.5195392751530151  0.49832431683994827  1.0000
  C   C23       1.0  0.41790267165328737  0.48319061868665614  0.8683658425672289  1.0000
  C   C24       1.0  0.9586203091787766  0.5284754815438505  0.4926927970639169  1.0000
  C   C25       1.0  0.035637765475691204  0.47474660083956627  0.4928127936466282  1.0000
  C   C26       1.0  0.5246640057973054  0.4997952409775196  0.7632167954900595  1.0000
  C   C27       1.0  0.5308967784248395  0.4959886632086494  0.9105086550444739  1.0000
  C   C28       1.0  0.640533592825534  0.5099160556075121  0.8797711937429112  1.0000
  C   C29       1.0  0.6377992102500158  0.5129099565158557  0.8067786771063864  1.0000
  C   C30       1.0  0.5681645889887647  0.480094336187527  0.12711384776484635  1.0000
  C   C31       1.0  0.5666367529454489  0.4777804747727218  0.19921387347370964  1.0000
  C   C32       1.0  0.45744498628741337  0.49741747458313773  0.08625126701721797  1.0000
  N   N1        1.0  0.5450328876625292  0.49502270108266805  0.9836064407572562  1.0000
  N   N2        1.0  0.44513782357790177  0.5005168895034942  0.013960585036386412  1.0000
  N   N3        1.0  0.5162322755415544  0.014885869448804103  0.47260719225619136  1.0000
  N   N4        1.0  0.5134327909148766  0.9821361387544488  0.5288902921514661  1.0000
  O   O1        1.0  0.4998493689485101  0.50014159067905  0.49851427487632083  1.0000
  O   O2        1.0  0.215967973544835  0.5429514053639866  0.47098355546729204  1.0000
  O   O3        1.0  0.7699369518552287  0.4627242214016079  0.4698191982023302  1.0000
  O   O4        1.0  0.23485551865559978  0.43396127863174877  0.5092195951540858  1.0000
  O   O5        1.0  0.7747121769748802  0.5699059667955739  0.5315751987097314  1.0000
  O   O6        1.0  0.3034243987679445  0.4687670062204958  0.7579199666388376  1.0000
  O   O7        1.0  0.4622352868737066  0.7632712795692029  0.3847216475226033  1.0000
  O   O8        1.0  0.4883716993664961  0.9022505372455072  0.3939162016294019  1.0000
  O   O9        1.0  0.49189553098561584  0.09470547352057682  0.605888087314902  1.0000
  O   O10       1.0  0.5304109814409442  0.9158190472098228  0.6454686380834075  1.0000
  O   O11       1.0  0.9996734917198111  0.4076821839624927  0.49887551021306104  1.0000
  O   O12       1.0  0.5351435314983276  0.657381090495683  0.5644488606923871  1.0000
  O   O13       1.0  0.6723426967243141  0.46541787615461055  0.09692492396924018  1.0000
  O   O14       1.0  0.7544686534888922  0.5231400084972717  0.9173837063768601  1.0000
  O   O15       1.0  0.7461031924109135  0.5273974649509796  0.7800876504357175  1.0000
  O   O16       1.0  0.2471169214894928  0.5308071587689369  0.22113199385473334  1.0000
  O   O17       1.0  0.5512623720363125  0.34127563014767043  0.4410137135325981  1.0000
  O   O18       1.0  0.3773479596286791  0.5200623211464546  0.3408616234286653  1.0000
  O   O19       1.0  0.4184380413240306  0.47507542599655744  0.6496162693369172  1.0000
  O   O20       1.0  0.5613952788680336  0.4675169054357583  0.34108909415631666  1.0000
  O   O21       1.0  0.6068581597871584  0.5325754649154674  0.6595813317490735  1.0000
  O   O22       1.0  0.4493391793581195  0.6517909517116395  0.4510436390363352  1.0000
  O   O23       1.0  0.46512418010774326  0.3409894583114763  0.5444285244435959  1.0000
