data_image0
_chemical_formula_structural       Cu2H44C34N4O10
_chemical_formula_sum              "Cu2 H44 C34 N4 O10"
_cell_length_a       6.3109353114890645
_cell_length_b       10.780143710149114
_cell_length_c       13.787911549853328
_cell_angle_alpha    100.13510790437789
_cell_angle_beta     89.9991088388467
_cell_angle_gamma    89.99905366911483

_space_group_name_H-M_alt    "P 1"
_space_group_IT_number       1

loop_
  _space_group_symop_operation_xyz
  'x, y, z'

loop_
  _atom_site_type_symbol
  _atom_site_label
  _atom_site_symmetry_multiplicity
  _atom_site_fract_x
  _atom_site_fract_y
  _atom_site_fract_z
  _atom_site_occupancy
  Cu  Cu1       1.0  0.1493298668349965  0.9335783958001965  0.8876943658202949  1.0000
  Cu  Cu2       1.0  0.6493161159073538  0.0664146370747289  0.11230700942221723  1.0000
  H   H1        1.0  0.4453617492333066  0.674753131758777  0.7491129025877901  1.0000
  H   H2        1.0  0.9453517818948286  0.32525532857027883  0.25089791175275183  1.0000
  H   H3        1.0  0.47309383073486794  0.8031309659964735  0.6849625992072819  1.0000
  H   H4        1.0  0.9730900834723427  0.1968837702701123  0.3150496048015442  1.0000
  H   H5        1.0  0.6307708020602688  0.7969958178174605  0.791120445018713  1.0000
  H   H6        1.0  0.1307665762616992  0.20301156646763732  0.20888738495644796  1.0000
  H   H7        1.0  0.3183438649687673  0.10669190542727587  0.6798015527755655  1.0000
  H   H8        1.0  0.8183391749969003  0.89330011290761  0.320192677292063  1.0000
  H   H9        1.0  0.28093382344273715  0.9876667949455324  0.5248942120625915  1.0000
  H   H10       1.0  0.78093304784921  0.012326600414674297  0.4751055504310602  1.0000
  H   H11       1.0  0.491389632460205  0.5259659042929101  0.6031022675224239  1.0000
  H   H12       1.0  0.991384737625985  0.4740514462130534  0.3969072641339368  1.0000
  H   H13       1.0  0.7116579496968002  0.5198865909249476  0.5233126281927414  1.0000
  H   H14       1.0  0.2116525969218017  0.4801226838212073  0.4766919842877827  1.0000
  H   H15       1.0  0.5209870721739945  0.6433210821906242  0.5280690763005043  1.0000
  H   H16       1.0  0.020977464304714002  0.3566951100007145  0.471940019880627  1.0000
  H   H17       1.0  0.8593907736536222  0.6722295787668529  0.4678259910230695  1.0000
  H   H18       1.0  0.3593846935574589  0.3277742189288873  0.5321782677388429  1.0000
  H   H19       1.0  0.9274521195893043  0.6255034076096635  0.7796344535401263  1.0000
  H   H20       1.0  0.42744897066430815  0.37449394720590584  0.22036408403985777  1.0000
  H   H21       1.0  0.9638986536329383  0.5180303573065288  0.6669321168251232  1.0000
  H   H22       1.0  0.46389337546966664  0.48197034480863016  0.33306517036766803  1.0000
  H   H23       1.0  0.7329856947181738  0.5075221899315352  0.738625600678539  1.0000
  H   H24       1.0  0.23298889258489197  0.49248118321646916  0.2613758735677934  1.0000
  H   H25       1.0  0.4908026945502612  0.19120013636170086  0.8281491881863022  1.0000
  H   H26       1.0  0.9907911855213598  0.8087889472564953  0.17184776234454804  1.0000
  H   H27       1.0  0.010628468111207202  0.4022224529350709  0.8241086606665109  1.0000
  H   H28       1.0  0.510627569576904  0.5977674696443742  0.17588747294725962  1.0000
  H   H29       1.0  0.9879685557561758  0.24094977024915212  0.7717490639248512  1.0000
  H   H30       1.0  0.4879637228456771  0.7590431163553718  0.22825060487028295  1.0000
  H   H31       1.0  0.21731333166523106  0.3283126319514906  0.7478372267982042  1.0000
  H   H32       1.0  0.717309326283278  0.6716777273403592  0.25215676963263434  1.0000
  H   H33       1.0  0.2501188918180048  0.48138613786122153  0.95776635667675  1.0000
  H   H34       1.0  0.7501168614321259  0.5186066681703351  0.0422255663292574  1.0000
  H   H35       1.0  0.47138459823170104  0.4140756881309571  0.8875789243004067  1.0000
  H   H36       1.0  0.9713846089361909  0.5859164424300403  0.11240770383293619  1.0000
  H   H37       1.0  0.4284047845147115  0.38173926128281016  0.00841097845836463  1.0000
  H   H38       1.0  0.9284041055713458  0.6182543095255965  0.9915783293727717  1.0000
  H   H39       1.0  0.10689115341821057  0.2491657281577844  0.04207802440312492  1.0000
  H   H40       1.0  0.6068862679957191  0.750835332582632  0.95792112918047  1.0000
  H   H41       1.0  0.9400750280649744  0.18017663596674538  0.9433562103176247  1.0000
  H   H42       1.0  0.44006637780869806  0.8198234023447879  0.05664840811253673  1.0000
  H   H43       1.0  0.9320858347534794  0.34425709339923577  0.9860224700742325  1.0000
  H   H44       1.0  0.43208012608267415  0.6557477477479309  0.013979963748717229  1.0000
  C   C1        1.0  0.5600003294665186  0.740267946248771  0.7254618505556751  1.0000
  C   C2        1.0  0.0599938454762565  0.25974119874334173  0.27454672522424073  1.0000
  C   C3        1.0  0.13764934037810408  0.9342424770744062  0.6544435145136378  1.0000
  C   C4        1.0  0.6376593724239469  0.0657601137888122  0.3455585312063933  1.0000
  C   C5        1.0  0.8878091213114557  0.7521839917695274  0.6215054050827009  1.0000
  C   C6        1.0  0.3878105350046964  0.2478213604243251  0.3784952383953809  1.0000
  C   C7        1.0  0.0031421984979474005  0.8440426881851195  0.6913350201766452  1.0000
  C   C8        1.0  0.503146168449433  0.15596145718513546  0.3086660211218304  1.0000
  C   C9        1.0  0.08263492861271972  0.824237684945402  0.48895438839881  1.0000
  C   C10       1.0  0.5826346275130305  0.17576082985397784  0.5110460388056169  1.0000
  C   C11       1.0  0.2387743780980074  0.03823803201269269  0.7172895783887229  1.0000
  C   C12       1.0  0.7387706021632782  0.9617549070281373  0.282706795318113  1.0000
  C   C13       1.0  0.17608609972845812  0.92229342566484  0.5534428411698473  1.0000
  C   C14       1.0  0.6760891909608944  0.07770495082359469  0.446556901519074  1.0000
  C   C15       1.0  0.6074260088580415  0.5843248909287836  0.5723660126282228  1.0000
  C   C16       1.0  0.107424153410868  0.4156865323326499  0.4276418130099629  1.0000
  C   C17       1.0  0.7277257124110718  0.6641109879107885  0.6581734161673156  1.0000
  C   C18       1.0  0.22772111670775527  0.33589621726672897  0.341832973478141  1.0000
  C   C19       1.0  0.9350083709866438  0.7430202700058571  0.5227497268625501  1.0000
  C   C20       1.0  0.4350029991881356  0.2569826526724341  0.4772524226722512  1.0000
  C   C21       1.0  0.8460064427395649  0.5736814438628387  0.7147569937176289  1.0000
  C   C22       1.0  0.34600437056582223  0.4263196803611962  0.2852440920907072  1.0000
  C   C23       1.0  0.3538876335269662  0.16469590910985224  0.8698225831361557  1.0000
  C   C24       1.0  0.8538767878394397  0.8352956991566104  0.13017351333210322  1.0000
  C   C25       1.0  0.20823352188524777  0.2846238927228271  0.8971174685848528  1.0000
  C   C26       1.0  0.7082301794954731  0.7153684562320562  0.10287686575682646  1.0000
  C   C27       1.0  0.10064365621374087  0.3142553305871232  0.8041109597745264  1.0000
  C   C28       1.0  0.6006395793571002  0.6857354354848225  0.1958839233799453  1.0000
  C   C29       1.0  0.34934656711944007  0.3966483871560839  0.9405641914201939  1.0000
  C   C30       1.0  0.8493399606440518  0.6033423288389557  0.05942601264695215  1.0000
  C   C31       1.0  0.03822132358172331  0.26257065916323086  0.9713679455965478  1.0000
  C   C32       1.0  0.5382135396253175  0.737431196266435  0.02863325671180665  1.0000
  C   C33       1.0  0.4322475046104372  0.11982782609172198  0.9625556456852781  1.0000
  C   C34       1.0  0.9322353667008298  0.8801685297772507  0.03743981949342162  1.0000
  N   N1        1.0  0.2433803727787875  0.0567323276845926  0.8124809437427348  1.0000
  N   N2        1.0  0.7433708498206498  0.9432605587332433  0.1875168405022408  1.0000
  N   N3        1.0  0.1345119617235966  0.8068422904517476  0.38599448395509495  1.0000
  N   N4        1.0  0.6345108365633223  0.1931650460135472  0.6140024337035686  1.0000
  O   O1        1.0  0.3541175433148283  0.0177182968659224  0.9838534385952687  1.0000
  O   O2        1.0  0.8541127361916665  0.9822714225214283  0.016138770438487948  1.0000
  O   O3        1.0  0.570246987653441  0.18139052331238764  0.017636323532386214  1.0000
  O   O4        1.0  0.07026395633805999  0.8186015391917748  0.9823654815194447  1.0000
  O   O5        1.0  0.9815994199492694  0.8419283380915914  0.7842184383483615  1.0000
  O   O6        1.0  0.4815930669719465  0.1580749881704406  0.21578343482028126  1.0000
  O   O7        1.0  0.2498159619487978  0.8866459551028639  0.35578529093501743  1.0000
  O   O8        1.0  0.7498208306815498  0.1133581645429729  0.6442132648779906  1.0000
  O   O9        1.0  0.059118137833060296  0.7130093751921792  0.3296309269493066  1.0000
  O   O10       1.0  0.5591235237343  0.2870007162142088  0.6703632795864966  1.0000
