data_image0
_chemical_formula_structural       Rb8H24C16N48O16
_chemical_formula_sum              "Rb8 H24 C16 N48 O16"
_cell_length_a       8.872458530349792
_cell_length_b       10.24150377500008
_cell_length_c       15.214741582201118
_cell_angle_alpha    89.99999893220671
_cell_angle_beta     92.83052203477122
_cell_angle_gamma    90.0000143042483

_space_group_name_H-M_alt    "P 1"
_space_group_IT_number       1

loop_
  _space_group_symop_operation_xyz
  'x, y, z'

loop_
  _atom_site_type_symbol
  _atom_site_label
  _atom_site_symmetry_multiplicity
  _atom_site_fract_x
  _atom_site_fract_y
  _atom_site_fract_z
  _atom_site_occupancy
  Rb  Rb1       1.0  0.3267768288716723  0.9389627309056862  0.0777866349634024  1.0000
  Rb  Rb2       1.0  0.1732226789755842  0.4389638700635601  0.42221341245160454  1.0000
  Rb  Rb3       1.0  0.6732230642893527  0.06103699530638102  0.9222134939339737  1.0000
  Rb  Rb4       1.0  0.8267772141855901  0.5610368325676163  0.5777867164457715  1.0000
  Rb  Rb5       1.0  0.3632400419653407  0.630307858353959  0.6546419493402666  1.0000
  Rb  Rb6       1.0  0.1367604874292141  0.130308015314526  0.8453575914594109  1.0000
  Rb  Rb7       1.0  0.6367598476906196  0.36969284427723187  0.3453575222020433  1.0000
  Rb  Rb8       1.0  0.8632405341865804  0.8696926873167784  0.15464256789246628  1.0000
  H   H1        1.0  0.022292283716495793  0.5311925016456628  0.0972235066328651  1.0000
  H   H2        1.0  0.47770823600892226  0.0311927312300213  0.4027765729147034  1.0000
  H   H3        1.0  0.9777076094445291  0.46880722456641183  0.902776622264511  1.0000
  H   H4        1.0  0.5222916571521096  0.9688069949820461  0.5972235559826728  1.0000
  H   H5        1.0  0.9746185431105372  0.479121149114299  0.20391166672147418  1.0000
  H   H6        1.0  0.5253818700509496  0.9791218910295285  0.29608842292270765  1.0000
  H   H7        1.0  0.025382478505115092  0.5208785770978965  0.7960884926304032  1.0000
  H   H8        1.0  0.47461689465544765  0.020877835182417905  0.7039116755201675  1.0000
  H   H9        1.0  0.8313239468771412  0.48583694539315325  0.11560949552454498  1.0000
  H   H10       1.0  0.6686764682041755  0.985836739607315  0.3843905940920038  1.0000
  H   H11       1.0  0.16867594628402569  0.5141637572380234  0.8843906333728312  1.0000
  H   H12       1.0  0.33132229650236406  0.014163963023740702  0.6156095043508785  1.0000
  H   H13       1.0  0.6423880663735134  0.40081229070062113  0.8887910629266216  1.0000
  H   H14       1.0  0.85761230573366  0.9008121337360608  0.6112084886998019  1.0000
  H   H15       1.0  0.3576106983330263  0.5991884119304345  0.11120903551626067  1.0000
  H   H16       1.0  0.14238758392230008  0.0991885688951228  0.3887909828425009  1.0000
  H   H17       1.0  0.46050911275882095  0.45231642672838057  0.8446835369346103  1.0000
  H   H18       1.0  0.03949150869384249  0.952316199255371  0.6553160025399264  1.0000
  H   H19       1.0  0.5394907804022109  0.547683299483687  0.1553165919627659  1.0000
  H   H20       1.0  0.9605083809619754  0.0476835269567033  0.34468346900238334  1.0000
  H   H21       1.0  0.6299099106717917  0.5065418811322218  0.7954046248257355  1.0000
  H   H22       1.0  0.870090348718527  0.0065420928567761  0.704594928423198  1.0000
  H   H23       1.0  0.3700899789840263  0.4934578450798526  0.20459484671657435  1.0000
  H   H24       1.0  0.12990954093729098  0.9934576333552984  0.29540454311910475  1.0000
  C   C1        1.0  0.5089027763441152  0.7054911656103259  0.9138839230494324  1.0000
  C   C2        1.0  0.9910975434283529  0.2054904305957735  0.5861162867358514  1.0000
  C   C3        1.0  0.4910982452716792  0.2945095370209714  0.0861162363024377  1.0000
  C   C4        1.0  0.0089023497326721  0.7945092956162938  0.41388384216152463  1.0000
  C   C5        1.0  0.0785737767091135  0.24477070172999757  0.15161508292676015  1.0000
  C   C6        1.0  0.421425672115717  0.7447705519907688  0.34838430793232783  1.0000
  C   C7        1.0  0.9214261129467045  0.7552290244820767  0.8483843886155497  1.0000
  C   C8        1.0  0.5785742175401081  0.2552291742213058  0.6516151636099821  1.0000
  C   C9        1.0  0.9497712600031747  0.46545811479515453  0.1334446321664515  1.0000
  C   C10       1.0  0.5502291492520897  0.9654578837199635  0.3665554575339556  1.0000
  C   C11       1.0  0.050229761612477795  0.5345416114170405  0.8665555271854188  1.0000
  C   C12       1.0  0.4497696154543148  0.0345418424919828  0.6334446409089265  1.0000
  C   C13       1.0  0.5785404341616527  0.4809401656078976  0.857292741999771  1.0000
  C   C14       1.0  0.9214610858026262  0.980940998079106  0.6427061823963314  1.0000
  C   C15       1.0  0.42146058394879293  0.5190595606042977  0.1427067599970329  1.0000
  C   C16       1.0  0.0785399323079616  0.0190597045522054  0.35729331960046545  1.0000
  N   N1        1.0  0.2770046792372014  0.21740755276542964  0.2534692773051219  1.0000
  N   N2        1.0  0.2229958937246792  0.7174073626839006  0.2465308014761405  1.0000
  N   N3        1.0  0.7229963388732443  0.7825921734467726  0.746530224691682  1.0000
  N   N4        1.0  0.7770039994363528  0.28259236352816697  0.7534693274212427  1.0000
  N   N5        1.0  0.40291104354811574  0.7204196267851728  0.846815007451731  1.0000
  N   N6        1.0  0.097089515113602  0.22042075693089913  0.6531851903321807  1.0000
  N   N7        1.0  0.5970888496130512  0.27958107584600367  0.1531851214456452  1.0000
  N   N8        1.0  0.9029103780474301  0.7795789692811681  0.3468149385651955  1.0000
  N   N9        1.0  0.0692148006800295  0.13183416142590693  0.10595237946004228  1.0000
  N   N10       1.0  0.43078461585767497  0.6318340124404289  0.39404701186379737  1.0000
  N   N11       1.0  0.930783964026375  0.8681655647860399  0.8940477189828397  1.0000
  N   N12       1.0  0.569215273798001  0.3681647373525366  0.6059524596785124  1.0000
  N   N13       1.0  0.15567694109846286  0.2849210628666228  0.226765545256832  1.0000
  N   N14       1.0  0.34432364765946477  0.7849208984522564  0.2732338758915276  1.0000
  N   N15       1.0  0.8443229485573552  0.7150786633454516  0.7732339262854779  1.0000
  N   N16       1.0  0.655677370450981  0.2150788277599389  0.7267656261052834  1.0000
  N   N17       1.0  0.5878131786742529  0.5910060335184683  0.91725379164761  1.0000
  N   N18       1.0  0.9121871048632998  0.09100625783572983  0.5827457612537401  1.0000
  N   N19       1.0  0.41218671098156523  0.4089936926936133  0.08274567989469968  1.0000
  N   N20       1.0  0.0878127847925185  0.9089934683763519  0.4172537102885697  1.0000
  N   N21       1.0  0.6878185983465599  0.5940602824021044  0.9869374180104129  1.0000
  N   N22       1.0  0.8121816825588155  0.0940595104845059  0.5130614775232942  1.0000
  N   N23       1.0  0.31218129130940037  0.40594042022907934  0.013062053531889696  1.0000
  N   N24       1.0  0.18781820709700264  0.9059402157275688  0.4869379940190156  1.0000
  N   N25       1.0  0.9801126522331743  0.33060878082093137  0.1111101654348872  1.0000
  N   N26       1.0  0.5198865900158864  0.8306095189300893  0.3888898943659597  1.0000
  N   N27       1.0  0.019887240927850797  0.669390945391136  0.8888899634624963  1.0000
  N   N28       1.0  0.48011217469051803  0.16939020728185744  0.6111102040769225  1.0000
  N   N29       1.0  0.9652334108500112  0.15329106985922897  0.038875954326016385  1.0000
  N   N30       1.0  0.534766905655445  0.6532908327579393  0.4611234793039571  1.0000
  N   N31       1.0  0.03476647880580689  0.8467086563528454  0.9611235172162933  1.0000
  N   N32       1.0  0.46523411596020736  0.3467088934542489  0.5388766800479131  1.0000
  N   N33       1.0  0.9110828437659392  0.27170824432336366  0.041118212226606894  1.0000
  N   N34       1.0  0.5889163851494245  0.771708995494919  0.4588825051716937  1.0000
  N   N35       1.0  0.08891592444567917  0.7282914818885756  0.9588825435713416  1.0000
  N   N36       1.0  0.4110835115169564  0.22829170713625052  0.5411182810807487  1.0000
  N   N37       1.0  0.3388908754553198  0.8364553141543142  0.8356463544507233  1.0000
  N   N38       1.0  0.16110858792476523  0.3364554815065831  0.6643538124011812  1.0000
  N   N39       1.0  0.6611090177058541  0.16354538847686237  0.16435377444665278  1.0000
  N   N40       1.0  0.8388913052362669  0.6635442447054845  0.3356463164962022  1.0000
  N   N41       1.0  0.5599586066653828  0.7784970506252903  0.9829760668587681  1.0000
  N   N42       1.0  0.9400417304734745  0.278497282855824  0.5170234852710038  1.0000
  N   N43       1.0  0.44004241144506295  0.22150267558690473  0.017023435138035805  1.0000
  N   N44       1.0  0.05995815918234369  0.7215024433562577  0.48297598627129895  1.0000
  N   N45       1.0  0.669308303351201  0.7061737125252352  0.0253179892139528  1.0000
  N   N46       1.0  0.8306931602326271  0.20617390807617406  0.4746821320079632  1.0000
  N   N47       1.0  0.33069271475924467  0.2938260136869602  0.974681512782851  1.0000
  N   N48       1.0  0.16930785787781835  0.7938258181360281  0.5253173699888407  1.0000
  O   O1        1.0  0.32694437041462976  0.12050772630343691  0.21312240720463646  1.0000
  O   O2        1.0  0.17305617484495878  0.6205085006324894  0.28687767197538244  1.0000
  O   O3        1.0  0.6730555192411883  0.8794919999086379  0.7868770643376661  1.0000
  O   O4        1.0  0.8269437183160733  0.37949122557957793  0.7131224569220007  1.0000
  O   O5        1.0  0.24285269630232875  0.8464880109547721  0.7714948230072665  1.0000
  O   O6        1.0  0.25714790190581027  0.3464881974146437  0.7285060316129232  1.0000
  O   O7        1.0  0.7571471968588382  0.1535126916764114  0.2285053058901099  1.0000
  O   O8        1.0  0.7428519912553567  0.6535125052165327  0.27149409728445306  1.0000
  O   O9        1.0  0.37012274782583177  0.9342583370082806  0.8846618249180693  1.0000
  O   O10       1.0  0.1298778719695193  0.43425849893856144  0.6153383719858568  1.0000
  O   O11       1.0  0.6298771453353352  0.0657423656228957  0.11533830397930699  1.0000
  O   O12       1.0  0.8701231496461403  0.5657412272736269  0.3846617873660207  1.0000
  O   O13       1.0  0.3439172249865691  0.25699549544150807  0.3246213367800976  1.0000
  O   O14       1.0  0.15608222733316524  0.7569952927910961  0.1753780540286769  1.0000
  O   O15       1.0  0.6560826646691139  0.7430032543514571  0.6753781347622123  1.0000
  O   O16       1.0  0.8439165408784459  0.24300443342084324  0.8246227017692789  1.0000
