data_image0
_chemical_formula_structural       Zn8H36C72O26
_chemical_formula_sum              "Zn8 H36 C72 O26"
_cell_length_a       18.327233532862888
_cell_length_b       18.47238972134461
_cell_length_c       18.30171003325517
_cell_angle_alpha    120.32227801067033
_cell_angle_beta     119.32167834149769
_cell_angle_gamma    89.97903921145065

_space_group_name_H-M_alt    "P 1"
_space_group_IT_number       1

loop_
  _space_group_symop_operation_xyz
  'x, y, z'

loop_
  _atom_site_type_symbol
  _atom_site_label
  _atom_site_symmetry_multiplicity
  _atom_site_fract_x
  _atom_site_fract_y
  _atom_site_fract_z
  _atom_site_occupancy
  Zn  Zn1       1.0  0.9410005112186893  0.8555458433705923  0.8987296566259388  1.0000
  Zn  Zn2       1.0  0.9372731448959541  0.023875600632521803  0.07196304134093609  1.0000
  Zn  Zn3       1.0  0.9383380878121983  0.026149510051524806  0.8984067037224222  1.0000
  Zn  Zn4       1.0  0.11473178729955438  0.027606771608560607  0.0741961805035842  1.0000
  Zn  Zn5       1.0  0.527536872089918  0.6156885040148766  0.07360500864547256  1.0000
  Zn  Zn6       1.0  0.5253114782279199  0.43544327295389  0.8960277079992665  1.0000
  Zn  Zn7       1.0  0.35539670155400677  0.44214506828501504  0.9027611927833589  1.0000
  Zn  Zn8       1.0  0.5236634922304475  0.4404288644509364  0.0724518903551187  1.0000
  H   H1        1.0  0.7243784970323262  0.8728598015680474  0.024979661812835594  1.0000
  H   H2        1.0  0.6300637832547977  0.775228241411007  0.02498398766354617  1.0000
  H   H3        1.0  0.7269167420593234  0.5195467314727652  0.9516245319276564  1.0000
  H   H4        1.0  0.8433832089039015  0.4766144378213113  0.9255314386889355  1.0000
  H   H5        1.0  0.936325226394729  0.5736362438100714  0.9230505457121512  1.0000
  H   H6        1.0  0.9121054952597092  0.712548753407198  0.9476848986210414  1.0000
  H   H7        1.0  0.8282528342863247  0.8815613594507283  0.5815146745812781  1.0000
  H   H8        1.0  0.7316284621291589  0.7855194684516891  0.38883901397302634  1.0000
  H   H9        1.0  0.5518279791560945  0.5255372649175883  0.29699769964553013  1.0000
  H   H10       1.0  0.5353419164945876  0.4789713375689786  0.3934856261553605  1.0000
  H   H11       1.0  0.6334437597785723  0.5740542073881797  0.5859836354463326  1.0000
  H   H12       1.0  0.7461817594413988  0.7148634925464705  0.6792806982819997  1.0000
  H   H13       1.0  0.28051964177167593  0.8795929917673178  0.13628553049700537  1.0000
  H   H14       1.0  0.3775045451525473  0.7845440165842419  0.13781599250183513  1.0000
  H   H15       1.0  0.21483059957497377  0.5202953442988588  0.7912404517243133  1.0000
  H   H16       1.0  0.07473222001637234  0.4719538826712721  0.630259111025545  1.0000
  H   H17       1.0  0.9780202234484251  0.5677439273630683  0.6281644067823395  1.0000
  H   H18       1.0  0.022459204530186246  0.710292377842862  0.7871890280608583  1.0000
  H   H19       1.0  0.7329200790073429  0.13415034270511228  0.8426225746914611  1.0000
  H   H20       1.0  0.6353152327421299  0.22853894079078432  0.840800900158456  1.0000
  H   H21       1.0  0.7247892066551601  0.42042285801731794  0.1916623495308728  1.0000
  H   H22       1.0  0.8404756265189237  0.44414990731224446  0.35376441367307615  1.0000
  H   H23       1.0  0.9374543794410856  0.34871698657876493  0.35529576100429955  1.0000
  H   H24       1.0  0.9177207991109101  0.23070983249348126  0.19435634283492229  1.0000
  H   H25       1.0  0.27812987805543093  0.22938932706801307  0.38589510008308275  1.0000
  H   H26       1.0  0.37616686955114187  0.3270589995247661  0.578346516402739  1.0000
  H   H27       1.0  0.21533755411873304  0.24672841932043355  0.684000257929128  1.0000
  H   H28       1.0  0.07556829810849312  0.13440566462863762  0.5944540475465061  1.0000
  H   H29       1.0  0.9779826217047614  0.035647283180189504  0.40201019063946564  1.0000
  H   H30       1.0  0.021232974875196903  0.0508702825669971  0.3017334667924843  1.0000
  H   H31       1.0  0.2828704546167912  0.13776488134593023  0.035105424387325  1.0000
  H   H32       1.0  0.3787813483457186  0.23495053535499724  0.03616251680258401  1.0000
  H   H33       1.0  0.210672476062463  0.41451514253997607  0.9559382165756675  1.0000
  H   H34       1.0  0.06950616725089283  0.4338081533408272  0.9304570893901173  1.0000
  H   H35       1.0  0.9747547266630789  0.3388059727979069  0.9331851300885391  1.0000
  H   H36       1.0  0.021744343066757214  0.2251539852325237  0.9599541900257975  1.0000
  C   C1        1.0  0.8431241416607805  0.8417678632509363  0.9818312511876286  1.0000
  C   C2        1.0  0.7920530116595261  0.7813015277722214  0.984643344923704  1.0000
  C   C3        1.0  0.7314350504853238  0.808654822119358  0.007990092917239573  1.0000
  C   C4        1.0  0.6785393041905081  0.7538601038583579  0.008053710558435432  1.0000
  C   C5        1.0  0.6861025366727632  0.6715760606694232  0.9854837807971464  1.0000
  C   C6        1.0  0.6240989173888494  0.6165481813879764  0.9832831958043113  1.0000
  C   C7        1.0  0.7507010627294195  0.6422130795285527  0.9653082372863582  1.0000
  C   C8        1.0  0.7668339997403066  0.5621580076138457  0.9507361612008581  1.0000
  C   C9        1.0  0.8320833533690931  0.5380921116634454  0.9358111567564367  1.0000
  C   C10       1.0  0.8845459967298199  0.5927579098565234  0.9345419883403496  1.0000
  C   C11       1.0  0.8711436884870025  0.6709151375090627  0.9485685091350647  1.0000
  C   C12       1.0  0.8046382003399587  0.6982515002724131  0.9644678568644952  1.0000
  C   C13       1.0  0.8424995822980607  0.8454845617656234  0.7084429320849283  1.0000
  C   C14       1.0  0.7783744845410255  0.7869437776623087  0.5943162941007785  1.0000
  C   C15       1.0  0.7816340520570649  0.8165698341560699  0.5395522913735464  1.0000
  C   C16       1.0  0.7274607195297662  0.7628351661936958  0.43170799963337464  1.0000
  C   C17       1.0  0.6693570043928005  0.6793893663337798  0.37798486494958905  1.0000
  C   C18       1.0  0.6187266793564562  0.6238566563031824  0.2633781073868349  1.0000
  C   C19       1.0  0.660052759353789  0.648232670395906  0.4315857966218958  1.0000
  C   C20       1.0  0.5951584384823647  0.56728266181387  0.38042252772748963  1.0000
  C   C21       1.0  0.5860313890741368  0.5411838837906515  0.4348286335688058  1.0000
  C   C22       1.0  0.6411970051411657  0.594804299489219  0.5432558748721946  1.0000
  C   C23       1.0  0.7045457231213988  0.6739576657971611  0.595732571828748  1.0000
  C   C24       1.0  0.7161285029240858  0.7031880731957472  0.5423938028458436  1.0000
  C   C25       1.0  0.12030133455669298  0.843664243653265  0.9851250736734726  1.0000
  C   C26       1.0  0.1757023795551477  0.7842892855386625  0.9781487909033756  1.0000
  C   C27       1.0  0.2584628080944712  0.8141912240293225  0.06666564895868284  1.0000
  C   C28       1.0  0.31291219038297413  0.7607965257976304  0.06757766084204754  1.0000
  C   C29       1.0  0.28489068169537296  0.6769056085206985  0.980073529510463  1.0000
  C   C30       1.0  0.344686806375215  0.622266759213801  0.9886194022339794  1.0000
  C   C31       1.0  0.20152673068079724  0.6446720310641612  0.8855272284555299  1.0000
  C   C32       1.0  0.1734010732570753  0.562395699554827  0.7916306136518401  1.0000
  C   C33       1.0  0.09460798634915354  0.535257864673824  0.7011885474274707  1.0000
  C   C34       1.0  0.04010626214640927  0.5892177176058198  0.7000661518483682  1.0000
  C   C35       1.0  0.06504677015222878  0.6694130748262521  0.7893711628062688  1.0000
  C   C36       1.0  0.14569554511028576  0.6997228897098039  0.8844576841058185  1.0000
  C   C37       1.0  0.849779049130646  0.12747333198909422  0.9947756600785665  1.0000
  C   C38       1.0  0.7985109727430456  0.19082119744469137  0.00266021245491278  1.0000
  C   C39       1.0  0.7383258709389509  0.1831461004950228  0.9130518069706567  1.0000
  C   C40       1.0  0.6835759890659502  0.2361977676612312  0.9120549253783636  1.0000
  C   C41       1.0  0.6887392978183656  0.2975225141241964  0.0007449332018580398  1.0000
  C   C42       1.0  0.6240079978695263  0.3470835810737326  0.991122182345613  1.0000
  C   C43       1.0  0.7530489183718032  0.31092424107645666  0.09635935794859321  1.0000
  C   C44       1.0  0.7664926322965327  0.3785501337670923  0.1911621656269419  1.0000
  C   C45       1.0  0.8313996751104967  0.3916874250990859  0.2821345635300503  1.0000
  C   C46       1.0  0.8861171602822325  0.3379067785108846  0.2829860793267757  1.0000
  C   C47       1.0  0.8752473007415064  0.27177482863933733  0.1927959771737948  1.0000
  C   C48       1.0  0.8091229512002586  0.25612694638992645  0.09727040095661717  1.0000
  C   C49       1.0  0.1182752396710924  0.11583748430389561  0.2637950418173531  1.0000
  C   C50       1.0  0.17395734143529037  0.1674406425117709  0.37850338911863446  1.0000
  C   C51       1.0  0.2567629100362865  0.22578808770850867  0.4303693328097182  1.0000
  C   C52       1.0  0.3116357256329039  0.280548927249164  0.538146579181678  1.0000
  C   C53       1.0  0.2838381819590126  0.27771050144062304  0.5950088258215586  1.0000
  C   C54       1.0  0.3435028207837121  0.3419792690657673  0.7092841648671353  1.0000
  C   C55       1.0  0.20067848106538833  0.2155953548662026  0.5450419589049318  1.0000
  C   C56       1.0  0.1733532481846751  0.2047193228609459  0.6004798323850551  1.0000
  C   C57       1.0  0.09477432317561352  0.14160137839525086  0.5500723885565861  1.0000
  C   C58       1.0  0.03978243278722001  0.08605472304269311  0.4416458193256361  1.0000
  C   C59       1.0  0.06401513441007012  0.09436904758670292  0.3851475531940736  1.0000
  C   C60       1.0  0.1444431418071943  0.15891134911418453  0.4341808580368749  1.0000
  C   C61       1.0  0.12112686138097223  0.12503181129461183  0.9890316242163595  1.0000
  C   C62       1.0  0.17623737346035284  0.1893285490095878  0.9940146922658145  1.0000
  C   C63       1.0  0.2598105334835097  0.18507645555840918  0.017996565279339877  1.0000
  C   C64       1.0  0.3136077773455881  0.2395407958972555  0.018447067319165428  1.0000
  C   C65       1.0  0.2839045845404087  0.2981890409807945  0.9940455896752028  1.0000
  C   C66       1.0  0.343027603655166  0.3496266876601338  0.9899912708763098  1.0000
  C   C67       1.0  0.19963284641794846  0.30778745116957407  0.973154281233164  1.0000
  C   C68       1.0  0.16988459364039707  0.37258757530638326  0.9567306827120066  1.0000
  C   C69       1.0  0.09054150338260315  0.38322240994961737  0.9422438871641035  1.0000
  C   C70       1.0  0.03711215817902777  0.329612903540415  0.9436434066351397  1.0000
  C   C71       1.0  0.06350040557816784  0.2658835128456404  0.9589587412950706  1.0000
  C   C72       1.0  0.14476005452797125  0.2525278312328751  0.9738317602767524  1.0000
  O   O1        1.0  0.9844145379608166  0.9850675989995422  0.9875000004493159  1.0000
  O   O2        1.0  0.8705897841058177  0.9247602797780488  0.0520905198818015  1.0000
  O   O3        1.0  0.8540617891399974  0.8064684948257366  0.90888718322649  1.0000
  O   O4        1.0  0.5944243100634594  0.5327061705599334  0.9160283640149416  1.0000
  O   O5        1.0  0.604336844924596  0.6588185477203652  0.04806909468457127  1.0000
  O   O6        1.0  0.8562603035023743  0.9287997164982259  0.7521785829150431  1.0000
  O   O7        1.0  0.8800023596359594  0.8082575050890526  0.7531831058506384  1.0000
  O   O8        1.0  0.6060440438784696  0.5405414342323168  0.21736203792478653  1.0000
  O   O9        1.0  0.5938936466434441  0.6646332060120059  0.2206318525632439  1.0000
  O   O10       1.0  0.1607979881996472  0.9268955621899835  0.04137180975985896  1.0000
  O   O11       1.0  0.037128009123264964  0.8067612185515428  0.935931348566541  1.0000
  O   O12       1.0  0.30824368558884174  0.539778791747203  0.9430866113703545  1.0000
  O   O13       1.0  0.4275639664314497  0.6626209704280654  0.042295091757182386  1.0000
  O   O14       1.0  0.87533674886825  0.10953315657042852  0.9356699917408522  1.0000
  O   O15       1.0  0.8619364742738256  0.09464490386463353  0.045115961708383306  1.0000
  O   O16       1.0  0.5899002042359669  0.35999079321703686  0.04124283604385674  1.0000
  O   O17       1.0  0.6062722695261514  0.37059608002197575  0.931094105262041  1.0000
  O   O18       1.0  0.1595283905786005  0.09301376968247149  0.22032027470120852  1.0000
  O   O19       1.0  0.034747719154161416  0.10051123483429343  0.21852809656998326  1.0000
  O   O20       1.0  0.30734935597512  0.3803799456025203  0.7566037107007375  1.0000
  O   O21       1.0  0.42639542556725735  0.35473610790933935  0.7503915539851606  1.0000
  O   O22       1.0  0.1621014225883641  0.10657501777355802  0.0541322697381688  1.0000
  O   O23       1.0  0.03819852808538121  0.09221309142002813  0.918913947773163  1.0000
  O   O24       1.0  0.30690777131307817  0.3577333138213064  0.9157470318735293  1.0000
  O   O25       1.0  0.42588335908740055  0.37990246814342754  0.060303145161903264  1.0000
  O   O26       1.0  0.48464094463535196  0.4850541166818729  0.9872075928744407  1.0000
