data_image0
_chemical_formula_structural       Zn2H42C52N4O18
_chemical_formula_sum              "Zn2 H42 C52 N4 O18"
_cell_length_a       9.554670812376603
_cell_length_b       10.914872384064516
_cell_length_c       23.625260180265123
_cell_angle_alpha    90.04629870118313
_cell_angle_beta     88.46716719755601
_cell_angle_gamma    90.7420768220866

_space_group_name_H-M_alt    "P 1"
_space_group_IT_number       1

loop_
  _space_group_symop_operation_xyz
  'x, y, z'

loop_
  _atom_site_type_symbol
  _atom_site_label
  _atom_site_symmetry_multiplicity
  _atom_site_fract_x
  _atom_site_fract_y
  _atom_site_fract_z
  _atom_site_occupancy
  Zn  Zn1       1.0  0.34997583265793963  0.5031951701155394  0.4984511287848647  1.0000
  Zn  Zn2       1.0  0.6489399168696082  0.503073205365098  0.4999084136070308  1.0000
  H   H1        1.0  0.7325847042152065  0.724202979425343  0.0456288915790495  1.0000
  H   H2        1.0  0.6784499030012514  0.8969171143961392  0.555366191357507  1.0000
  H   H3        1.0  0.5226644247847929  0.11180160960170585  0.5910439613960179  1.0000
  H   H4        1.0  0.6809497957327724  0.11184401109927222  0.5518148976158557  1.0000
  H   H5        1.0  0.8629228079735897  0.607955300713947  0.5762898734956892  1.0000
  H   H6        1.0  0.10745002872912582  0.570114451262434  0.5830698927530378  1.0000
  H   H7        1.0  0.7088622403889033  0.7290730714549981  0.9390284909285568  1.0000
  H   H8        1.0  0.8899586156384631  0.6951293355475628  0.5134907782996833  1.0000
  H   H9        1.0  0.1292125330977498  0.6895824266371521  0.5321282339707379  1.0000
  H   H10       1.0  0.8858457123645067  0.38729325128417713  0.5695266605542457  1.0000
  H   H11       1.0  0.12958530439717467  0.3592067295378102  0.5553533725122293  1.0000
  H   H12       1.0  0.3075304433953648  0.5739575001591393  0.3190718045470362  1.0000
  H   H13       1.0  0.8933805730135874  0.4344006273095006  0.41871032862886887  1.0000
  H   H14       1.0  0.1367015225078703  0.482291415665074  0.410931184558379  1.0000
  H   H15       1.0  0.8693039874226046  0.5948605416497871  0.4211310751358681  1.0000
  H   H16       1.0  0.10975472515988124  0.6358702598863462  0.4337697319161791  1.0000
  H   H17       1.0  0.8679673283837137  0.31266521543768994  0.5033884403210749  1.0000
  H   H18       1.0  0.11058375735306211  0.32128115439262234  0.483300216574797  1.0000
  H   H19       1.0  0.28625337016556784  0.24282342830569095  0.0602768144333439  1.0000
  H   H20       1.0  0.6783371704286411  0.4068888421922665  0.678404484463158  1.0000
  H   H21       1.0  0.28014929282278445  0.5837913589285365  0.6787959980653112  1.0000
  H   H22       1.0  0.2729136763558416  0.5817902092052522  0.7850418424321431  1.0000
  H   H23       1.0  0.7158045090760796  0.41252969945156104  0.3228018110928517  1.0000
  H   H24       1.0  0.31989002645060793  0.5726168625860454  0.21319502967979528  1.0000
  H   H25       1.0  0.29670673137470527  0.8747946876503506  0.4130569064677658  1.0000
  H   H26       1.0  0.5901785305956083  0.7714702574108117  0.3923473855018216  1.0000
  H   H27       1.0  0.29811140457707813  0.12839339552148493  0.5870788083028415  1.0000
  H   H28       1.0  0.7955976409534601  0.11821036612594331  0.46976969271273816  1.0000
  H   H29       1.0  0.054974784874602306  0.2081216800587953  0.9090134598704649  1.0000
  H   H30       1.0  0.11579950644525641  0.3623509369042922  0.9094730041679213  1.0000
  H   H31       1.0  0.9831450808565522  0.22541290268488726  0.0117798710331911  1.0000
  H   H32       1.0  0.04563933341210461  0.37841963034691156  0.013046865363875799  1.0000
  H   H33       1.0  0.8657198426145674  0.4380454263747639  0.9413600223374131  1.0000
  H   H34       1.0  0.7246592395707695  0.40487130039666414  0.21687350955615864  1.0000
  H   H35       1.0  0.7859544207316989  0.3732534190973313  0.003277946531326801  1.0000
  H   H36       1.0  0.8019902712447478  0.28569921789832625  0.9400178705768099  1.0000
  H   H37       1.0  0.7826589407577347  0.3436201452275896  0.7566960379280445  1.0000
  H   H38       1.0  0.3039103558830051  0.8971177044527536  0.5428026828589053  1.0000
  H   H39       1.0  0.7004449149635478  0.9115015982691336  0.45772077035589825  1.0000
  H   H40       1.0  0.30114234934248435  0.09829709585624614  0.4577981150695081  1.0000
  H   H41       1.0  0.5136457663966923  0.09862394463230834  0.40786013654858516  1.0000
  H   H42       1.0  0.5135333418009936  0.8983250054970215  0.590864312661509  1.0000
  C   C1        1.0  0.50605293134673  0.7426667713893809  0.4987918525459918  1.0000
  C   C2        1.0  0.3887139407513375  0.40367032241069023  0.8799995127967718  1.0000
  C   C3        1.0  0.5850301785567495  0.4399454688098673  0.7610848889116325  1.0000
  C   C4        1.0  0.4894358299903842  0.5029826632791342  0.608685426058841  1.0000
  C   C5        1.0  0.5890881129016634  0.44491771546351105  0.7019100066090189  1.0000
  C   C6        1.0  0.48080927837173  0.4973146514699567  0.6720623341292082  1.0000
  C   C7        1.0  0.3653256897523747  0.5444034341389427  0.7022234903262189  1.0000
  C   C8        1.0  0.36104252336595277  0.5428074270439468  0.7612953534333542  1.0000
  C   C9        1.0  0.47038013871593193  0.49210323031432074  0.7906345511387723  1.0000
  C   C10       1.0  0.40557282291131  0.5369607939962295  0.2376061769258868  1.0000
  C   C11       1.0  0.3990636265955275  0.5379200473465674  0.296484417511472  1.0000
  C   C12       1.0  0.6654625401639507  0.6589457590948486  0.023903610064643  1.0000
  C   C13       1.0  0.5114857918016754  0.49402981093765425  0.3271220474483697  1.0000
  C   C14       1.0  0.62987124915594  0.4479908799439443  0.29850138066430526  1.0000
  C   C15       1.0  0.6347248712851724  0.44337255687480603  0.2395535317555613  1.0000
  C   C16       1.0  0.49765542376080435  0.26215823030860724  0.5009485333037347  1.0000
  C   C17       1.0  0.5226561231541069  0.4882986034131493  0.20960357965587656  1.0000
  C   C18       1.0  0.34995287527738134  0.9268553570860265  0.5017153755658725  1.0000
  C   C19       1.0  0.5911010772568448  0.9356923941134598  0.4484190813127639  1.0000
  C   C20       1.0  0.3473174802343167  0.07047634653745401  0.4979533474636924  1.0000
  C   C21       1.0  0.5756130990316211  0.07656280591464083  0.4450501797754072  1.0000
  C   C22       1.0  0.57217075480461  0.9332929941051306  0.5534434195816899  1.0000
  C   C23       1.0  0.6519200635203575  0.6617095610087278  0.9650806171274339  1.0000
  C   C24       1.0  0.503143812190892  0.8829708013552705  0.4998075587527708  1.0000
  C   C25       1.0  0.49815893186823973  0.12215521062793748  0.49964105370040807  1.0000
  C   C26       1.0  0.5735142628605703  0.07503380868057262  0.5525145571774742  1.0000
  C   C27       1.0  0.9182073414968887  0.6103382897711287  0.5349661423214086  1.0000
  C   C28       1.0  0.07820178312100982  0.6008918014074355  0.5408401637636331  1.0000
  C   C29       1.0  0.9185841774789837  0.3898684078079526  0.5246554125814598  1.0000
  C   C30       1.0  0.07884401856377822  0.3863171427745586  0.5163942971531839  1.0000
  C   C31       1.0  0.92210353294071  0.5185465086984848  0.4413577325679015  1.0000
  C   C32       1.0  0.08171551541320811  0.5397124460812962  0.4421776101101145  1.0000
  C   C33       1.0  0.5051795240022088  0.4962712367762806  0.3902800296895562  1.0000
  C   C34       1.0  0.5650608656792003  0.5781273208105732  0.9380540101744259  1.0000
  C   C35       1.0  0.4392008591915726  0.39148929538056637  0.12410488762434109  1.0000
  C   C36       1.0  0.6059002047653125  0.5707674390373613  0.1183441669853025  1.0000
  C   C37       1.0  0.5918871400792228  0.5713908179978375  0.055874754145001794  1.0000
  C   C38       1.0  0.5032341093688899  0.48546828912494533  0.029240334637023597  1.0000
  C   C39       1.0  0.4299431265275402  0.39477999195221264  0.0614891384087173  1.0000
  C   C40       1.0  0.253758773957145  0.8757743955301294  0.4573012783244436  1.0000
  C   C41       1.0  0.5632154200471008  0.870750649139268  0.39268285547341003  1.0000
  C   C42       1.0  0.24961218345452352  0.11425714969045941  0.5449912370950472  1.0000
  C   C43       1.0  0.7203122317689862  0.13355016107052364  0.4350279152940217  1.0000
  C   C44       1.0  0.09591954864833953  0.2811899948312018  0.9361318821096347  1.0000
  C   C45       1.0  0.4874037146892719  0.4884287624003322  0.9693885719351485  1.0000
  C   C46       1.0  0.9967160533311556  0.30871176733403877  0.9858789650657085  1.0000
  C   C47       1.0  0.8549195255352803  0.3536866808543095  0.966546063250874  1.0000
  C   C48       1.0  0.7025784624582982  0.3779506143141661  0.7881329428180521  1.0000
  C   C49       1.0  0.39558228971599624  0.40369750035445423  0.9424378015042976  1.0000
  C   C50       1.0  0.3208835404247808  0.31727512762822846  0.9762605159941555  1.0000
  C   C51       1.0  0.3433983249336379  0.3116156680374972  0.03516600906721829  1.0000
  C   C52       1.0  0.5569758264365207  0.5834273163471124  0.8758910361991283  1.0000
  N   N1        1.0  0.5238735401225938  0.48300103346724677  0.1485189840577661  1.0000
  N   N2        1.0  0.4674278449045417  0.49641945318204267  0.8514822747454927  1.0000
  N   N3        1.0  0.8650346554997557  0.5058324493090325  0.5005292500751679  1.0000
  N   N4        1.0  0.13398305198894894  0.5093931394736587  0.4994528445350142  1.0000
  O   O1        1.0  0.39374383258986984  0.6887991417639159  0.48414292851551  1.0000
  O   O2        1.0  0.6821393797379759  0.6430641343515547  0.1432760950167022  1.0000
  O   O3        1.0  0.6231758602567653  0.6575317573040352  0.8460510415308136  1.0000
  O   O4        1.0  0.322568885838237  0.328946753105214  0.8518611525214226  1.0000
  O   O5        1.0  0.13142248594804334  0.8466371310156476  0.4673858572548609  1.0000
  O   O6        1.0  0.5169905234879623  0.9196069101780185  0.35091137988756316  1.0000
  O   O7        1.0  0.12339170043151172  0.1250471461496971  0.5400461968361441  1.0000
  O   O8        1.0  0.7591912019739482  0.1836530862929919  0.3911472661500071  1.0000
  O   O9        1.0  0.2276069682772643  0.23425973513762  0.9564239572759022  1.0000
  O   O10       1.0  0.7170284271029177  0.36128273022279705  0.8388696032787095  1.0000
  O   O11       1.0  0.618984702424733  0.6913898616095369  0.5116808002951885  1.0000
  O   O12       1.0  0.3790537890652744  0.5333824819688859  0.583350233052954  1.0000
  O   O13       1.0  0.6067236181155452  0.4771593394561436  0.5850722308051033  1.0000
  O   O14       1.0  0.3830380557112677  0.31469033820658865  0.5136387706570673  1.0000
  O   O15       1.0  0.6143422781824129  0.31505141648059987  0.49022906037478003  1.0000
  O   O16       1.0  0.3874867794612983  0.4717427206757636  0.4146979562396139  1.0000
  O   O17       1.0  0.6179103104052714  0.5234612939081418  0.4154053798368196  1.0000
  O   O18       1.0  0.37564265897872673  0.31566086519759307  0.1536543178273106  1.0000
