data_image0
_chemical_formula_structural       Zn2H4C38N8O8F8
_chemical_formula_sum              "Zn2 H4 C38 N8 O8 F8"
_cell_length_a       9.562523107290618
_cell_length_b       10.973362038689329
_cell_length_c       13.833063217804117
_cell_angle_alpha    83.98760742103798
_cell_angle_beta     97.35362396592467
_cell_angle_gamma    96.55095092762339

_space_group_name_H-M_alt    "P 1"
_space_group_IT_number       1

loop_
  _space_group_symop_operation_xyz
  'x, y, z'

loop_
  _atom_site_type_symbol
  _atom_site_label
  _atom_site_symmetry_multiplicity
  _atom_site_fract_x
  _atom_site_fract_y
  _atom_site_fract_z
  _atom_site_occupancy
  Zn  Zn1       1.0  0.8610861448271193  0.47965793501098364  0.523163544536672  1.0000
  Zn  Zn2       1.0  0.1389119233117313  0.5203478281370337  0.47683114728287285  1.0000
  H   H1        1.0  0.0641528286657262  0.09565580983788638  0.6577556446478499  1.0000
  H   H2        1.0  0.9358556702628108  0.904348561229675  0.3422520686319147  1.0000
  H   H3        1.0  0.328142154379826  0.39862459415477514  0.3793674219654975  1.0000
  H   H4        1.0  0.6718571809790462  0.601373685829266  0.6206429743988552  1.0000
  C   C1        1.0  0.9986349221269818  0.7356048577274521  0.4987313790454665  1.0000
  C   C2        1.0  0.001388084400744612  0.26439975029183665  0.5012695043855615  1.0000
  C   C3        1.0  0.4360390926252506  0.5403512083942132  0.11244032293794252  1.0000
  C   C4        1.0  0.5639716418359554  0.45963505499538826  0.8875539038028607  1.0000
  C   C5        1.0  0.30920545218837964  0.5853259625644469  0.07704979242654283  1.0000
  C   C6        1.0  0.6907934478692327  0.4146605831347188  0.9229457863076008  1.0000
  C   C7        1.0  0.0337863009098314  0.9287308794064446  0.5852992605228879  1.0000
  C   C8        1.0  0.9662075413672966  0.07126784038135268  0.4147016971912407  1.0000
  C   C9        1.0  0.03615593537718103  0.054876929168010215  0.5884673263734399  1.0000
  C   C10       1.0  0.9638458040525182  0.945127677561203  0.41153296851112503  1.0000
  C   C11       1.0  0.0018592126286450042  0.1277656243498484  0.5014324686181411  1.0000
  C   C12       1.0  0.9981448675658627  0.8722374977653261  0.49856456303749763  1.0000
  C   C13       1.0  0.40487617238113677  0.4441480779081671  0.43304708228308203  1.0000
  C   C14       1.0  0.595119854991303  0.5558499780693892  0.5669643441375882  1.0000
  C   C15       1.0  0.548003550641397  0.4215109946202561  0.4458217982265538  1.0000
  C   C16       1.0  0.45199013043998093  0.578482447968689  0.5541887845164979  1.0000
  C   C17       1.0  0.05622368871081563  0.4960954249694042  0.6890943000088045  1.0000
  C   C18       1.0  0.9437884419441005  0.5039058706290191  0.31089514582844663  1.0000
  C   C19       1.0  0.11868170978871014  0.5230064338781019  0.790729251938096  1.0000
  C   C20       1.0  0.8813137843927239  0.47698242197493806  0.20927014363042676  1.0000
  C   C21       1.0  0.11369474425117695  0.6182462941489603  0.9421927817429037  1.0000
  C   C22       1.0  0.886300314083492  0.38173699398645766  0.05780750832359871  1.0000
  C   C23       1.0  0.052522460982331216  0.5948698636091833  0.8467765167557247  1.0000
  C   C24       1.0  0.9474737141716928  0.4051143809075485  0.15322387976957694  1.0000
  C   C25       1.0  0.24698513675250672  0.4804119505449124  0.8306344823197023  1.0000
  C   C26       1.0  0.7530194969996485  0.5195786248215981  0.16935950199461303  1.0000
  C   C27       1.0  0.3260893839862433  0.5188219242832447  0.9176756730864428  1.0000
  C   C28       1.0  0.673910712307773  0.48116477006947633  0.08231860406535674  1.0000
  C   C29       1.0  0.2495982906967811  0.579274303774362  0.9782516470726679  1.0000
  C   C30       1.0  0.7504028005279082  0.4207115095499745  0.02174279514637329  1.0000
  C   C31       1.0  0.47059554605219495  0.493595518386826  0.9503991554321161  1.0000
  C   C32       1.0  0.5294084012011169  0.5063935703133423  0.049589721018868736  1.0000
  C   C33       1.0  0.0809413461314819  0.3609282193766248  0.18968987910174215  1.0000
  C   C34       1.0  0.9190514416190679  0.6390566088613808  0.8103129555210132  1.0000
  C   C35       1.0  0.0320752154078434  0.6762210482498218  0.9998754962785625  1.0000
  C   C36       1.0  0.9679229047742057  0.3237518964183295  0.0001306898951370618  1.0000
  C   C37       1.0  0.592539294706178  0.33711166275348586  0.38687743535027863  1.0000
  C   C38       1.0  0.4074594035001837  0.6628800198309931  0.6131353221616322  1.0000
  N   N1        1.0  0.6414230636418948  0.4781034366396709  0.5130147924928539  1.0000
  N   N2        1.0  0.35857219781465227  0.5218939403992947  0.4869929341056293  1.0000
  N   N3        1.0  0.19074844467542107  0.32429275666179075  0.21579333366908326  1.0000
  N   N4        1.0  0.8092510878113758  0.6756866011281987  0.7842135018107828  1.0000
  N   N5        1.0  0.9560498091595023  0.7203571254468457  0.04278455176125111  1.0000
  N   N6        1.0  0.043949410717644403  0.279604648161893  0.9572251322798027  1.0000
  N   N7        1.0  0.6168693834324657  0.2662729983869809  0.3355459676471427  1.0000
  N   N8        1.0  0.38313403506506927  0.7337253213258279  0.6644664091146242  1.0000
  O   O1        1.0  0.888323850685538  0.6687851479708015  0.5217409240721339  1.0000
  O   O2        1.0  0.11169373690864863  0.33121147338300005  0.4782784426890104  1.0000
  O   O3        1.0  0.11003716013456713  0.6990148862379185  0.4753913880957584  1.0000
  O   O4        1.0  0.8899572760204961  0.3009954731180641  0.5245881342382859  1.0000
  O   O5        1.0  0.9225868814287493  0.4775348228625517  0.6717110926442302  1.0000
  O   O6        1.0  0.0773962760317204  0.5224417308749308  0.32828647181328563  1.0000
  O   O7        1.0  0.14528753822244772  0.499249364136773  0.628058078898171  1.0000
  O   O8        1.0  0.8547031946771072  0.5007778690731257  0.37193841687943063  1.0000
  F   F1        1.0  0.23474521254864558  0.6255519269938006  0.14140197184379844  1.0000
  F   F2        1.0  0.7652619239669959  0.37443475365144957  0.8585968490124929  1.0000
  F   F3        1.0  0.7075915560193309  0.6080652142705317  0.21378695201295278  1.0000
  F   F4        1.0  0.2924064308863237  0.3919282973836289  0.7862002446661834  1.0000
  F   F5        1.0  0.46578713863581106  0.5263370624737219  0.2104488424330739  1.0000
  F   F6        1.0  0.5342214138946773  0.4736490700744084  0.7895458314543762  1.0000
  F   F7        1.0  0.06849909266469471  0.8572268019276593  0.6698405724696104  1.0000
  F   F8        1.0  0.931479628859684  0.1427694550788985  0.3301723044104463  1.0000
