data_image0
_chemical_formula_structural       Zn8H54C79O26F6
_chemical_formula_sum              "Zn8 H54 C79 O26 F6"
_cell_length_a       18.44303416649467
_cell_length_b       18.492991621885505
_cell_length_c       18.502561927794726
_cell_angle_alpha    59.837613433493964
_cell_angle_beta     60.17281381754498
_cell_angle_gamma    59.975241593988976

_space_group_name_H-M_alt    "P 1"
_space_group_IT_number       1

loop_
  _space_group_symop_operation_xyz
  'x, y, z'

loop_
  _atom_site_type_symbol
  _atom_site_label
  _atom_site_symmetry_multiplicity
  _atom_site_fract_x
  _atom_site_fract_y
  _atom_site_fract_z
  _atom_site_occupancy
  Zn  Zn1       1.0  0.5386432407252144  0.5457156622326379  0.04663358938788052  1.0000
  Zn  Zn2       1.0  0.5412148323172871  0.5455799906695803  0.8717853506909493  1.0000
  Zn  Zn3       1.0  0.36925900762238945  0.5434440083971807  0.04636141127735987  1.0000
  Zn  Zn4       1.0  0.5442305134705022  0.36949152552062964  0.04364610257787402  1.0000
  Zn  Zn5       1.0  0.9536867880057966  0.9554540466308765  0.4603411890025697  1.0000
  Zn  Zn6       1.0  0.12665430621169083  0.958159752515748  0.4567531318345813  1.0000
  Zn  Zn7       1.0  0.9534101500850697  0.9603401981842267  0.6305210003351643  1.0000
  Zn  Zn8       1.0  0.9535087433927033  0.1326973297553664  0.4551454963495584  1.0000
  H   H1        1.0  0.7250502013874113  0.6841870077540902  0.057059988140707806  1.0000
  H   H2        1.0  0.8201639002145529  0.5791719997552319  0.9704313366844274  1.0000
  H   H3        1.0  0.08771424420190496  0.31753717452617997  0.30975644333945246  1.0000
  H   H4        1.0  0.3786045463832792  0.0279538661848378  0.3308193477076742  1.0000
  H   H5        1.0  0.36428129057753716  0.034668351634572  0.23855080417986582  1.0000
  H   H6        1.0  0.4588301657185455  0.13468224645092872  0.13768017421011078  1.0000
  H   H7        1.0  0.6994735264444145  0.417549587936712  0.6807695700744318  1.0000
  H   H8        1.0  0.7952925517779975  0.3231107562792985  0.5852850650816491  1.0000
  H   H9        1.0  0.7518546133589795  0.0350850428707972  0.8686748291760792  1.0000
  H   H10       1.0  0.6549748318176326  0.13150577664953997  0.9674123465318443  1.0000
  H   H11       1.0  0.8230251273361874  0.4225040497763004  0.04479102056830443  1.0000
  H   H12       1.0  0.7226589521042327  0.8869028616774061  0.4641667960798659  1.0000
  H   H13       1.0  0.0841604490597944  0.7935354793259323  0.8177289201278553  1.0000
  H   H14       1.0  0.37543585110019956  0.7559278277130589  0.5341764663846857  1.0000
  H   H15       1.0  0.468586691595462  0.6622248986311237  0.6305268369217529  1.0000
  H   H16       1.0  0.46265181225119556  0.757635267722847  0.6378823942559819  1.0000
  H   H17       1.0  0.657345387596507  0.7455939501540032  0.9098814260375432  1.0000
  H   H18       1.0  0.7521822645176643  0.841376974509778  0.8148139966696346  1.0000
  H   H19       1.0  0.8251491942088124  0.7725211665873674  0.532535021539381  1.0000
  H   H20       1.0  0.9108874152977293  0.6828083533886444  0.5748099503103248  1.0000
  H   H21       1.0  0.7251194992988631  0.6786323643826293  0.6278759195209959  1.0000
  H   H22       1.0  0.8121847093541843  0.5887835080394481  0.6684301816596021  1.0000
  H   H23       1.0  0.17792290544264217  0.7017517785798547  0.20645178403425743  1.0000
  H   H24       1.0  0.813803564249895  0.3118112334508396  0.2858019855705863  1.0000
  H   H25       1.0  0.6958269599675192  0.18823799118122514  0.20146004725465602  1.0000
  H   H26       1.0  0.8934887197286798  0.05463070077710341  0.17408661799554886  1.0000
  H   H27       1.0  0.9232696325158046  0.897226167182673  0.20676273192162106  1.0000
  H   H28       1.0  0.9093524199481213  0.6018114963716527  0.4573053421058187  1.0000
  H   H29       1.0  0.9382832410292394  0.6114856045472195  0.34660279514896064  1.0000
  H   H30       1.0  0.02180159850157532  0.5825524934147169  0.38742220941829686  1.0000
  H   H31       1.0  0.9861320712052191  0.7424497316748385  0.2916147807396358  1.0000
  H   H32       1.0  0.9553864731773201  0.7332900051849266  0.40167178206225873  1.0000
  H   H33       1.0  0.7971868771615437  0.7580023177101366  0.42373414632801587  1.0000
  H   H34       1.0  0.08265438243422088  0.7975693127679478  0.30053945691230405  1.0000
  H   H35       1.0  0.8312858593938797  0.7768586331678763  0.3100297344099515  1.0000
  H   H36       1.0  0.4182648717622542  0.030696618170146895  0.4592394580417006  1.0000
  H   H37       1.0  0.3058563912638023  0.06863653745432428  0.4675256387393958  1.0000
  H   H38       1.0  0.3322594497496781  0.07465966330937591  0.5439543794234112  1.0000
  H   H39       1.0  0.2769507243006472  0.9471421109244815  0.6140245055199075  1.0000
  H   H40       1.0  0.38736859653843686  0.9094583990675813  0.6088400269334785  1.0000
  H   H41       1.0  0.4401421057185074  0.8752126975271041  0.4709537931900839  1.0000
  H   H42       1.0  0.3287680149670464  0.9150824145310638  0.4765242130414507  1.0000
  H   H43       1.0  0.49364701619031587  0.39728343618609335  0.46679551071354547  1.0000
  H   H44       1.0  0.43762003302440905  0.5132820430784335  0.42865266900152205  1.0000
  H   H45       1.0  0.3665628220024784  0.852904984571538  0.24702281681882704  1.0000
  H   H46       1.0  0.40956085747289706  0.43865323825465213  0.42154281012845024  1.0000
  H   H47       1.0  0.5046531162577353  0.5138912718378991  0.27229371294559707  1.0000
  H   H48       1.0  0.55642410967517  0.39846388122191456  0.3081309869532732  1.0000
  H   H49       1.0  0.6528337936102632  0.40893379172261746  0.3544122792204404  1.0000
  H   H50       1.0  0.5923903027764084  0.5222398185771199  0.3411619692024175  1.0000
  H   H51       1.0  0.3690042780568136  0.7566421847234679  0.34375835312668807  1.0000
  H   H52       1.0  0.4635740436098884  0.7551788784339877  0.15189485596509644  1.0000
  H   H53       1.0  0.46544422423527704  0.6597294216625259  0.2488069560032002  1.0000
  H   H54       1.0  0.183448548001266  0.41216905836052586  0.21727330439452427  1.0000
  C   C1        1.0  0.6352086542590386  0.3653860740803268  0.8605172642263241  1.0000
  C   C2        1.0  0.7367339898670977  0.343702094742099  0.2103643421618884  1.0000
  C   C3        1.0  0.8569287650786777  0.016981504588450505  0.23818920834981575  1.0000
  C   C4        1.0  0.357977212327583  0.6392548329460085  0.1414170397764564  1.0000
  C   C5        1.0  0.8735914897980733  0.9281657746994939  0.2568700179730138  1.0000
  C   C6        1.0  0.82640106495181  0.8788797922291067  0.33826396345239124  1.0000
  C   C7        1.0  0.7623672491407234  0.9214887592453707  0.40034022585444257  1.0000
  C   C8        1.0  0.7477287455030321  0.009744084741981898  0.38063108069280815  1.0000
  C   C9        1.0  0.7938062759067462  0.060028552391933915  0.30022278102173056  1.0000
  C   C10       1.0  0.33728006748246037  0.7264392559776526  0.22388699016056512  1.0000
  C   C11       1.0  0.30141226379295455  0.6965288061695035  0.19741665602746394  1.0000
  C   C12       1.0  0.6757787949602517  0.49711198120735395  0.21945571879266615  1.0000
  C   C13       1.0  0.20793141053653136  0.723803615182639  0.22638865222232613  1.0000
  C   C14       1.0  0.15461403725723238  0.7773997017197516  0.2790413781017023  1.0000
  C   C15       1.0  0.19157006175252886  0.8070689470232892  0.305853358858421  1.0000
  C   C16       1.0  0.6357635909430713  0.6390020474703564  0.8665316308426226  1.0000
  C   C17       1.0  0.2837927128357123  0.7803125117653735  0.2765576404793818  1.0000
  C   C18       1.0  0.3621737090735381  0.7859953477536479  0.2781228560410153  1.0000
  C   C19       1.0  0.42262151295755507  0.7250430971416435  0.2185461735723777  1.0000
  C   C20       1.0  0.3408862360377257  0.21161374423569163  0.22196598452526925  1.0000
  C   C21       1.0  0.3061055215917747  0.3036601307127356  0.19968721858746366  1.0000
  C   C22       1.0  0.21311916236159337  0.34042633273583783  0.23311012885437074  1.0000
  C   C23       1.0  0.6775519129836668  0.5840230549257088  0.17459392676504834  1.0000
  C   C24       1.0  0.1594362066062729  0.287328413710064  0.2847068296727997  1.0000
  C   C25       1.0  0.19522245010954717  0.19437409348997653  0.30611671935846363  1.0000
  C   C26       1.0  0.287432055409127  0.15830181233984322  0.27370558344905765  1.0000
  C   C27       1.0  0.3647534461084447  0.07280422162763499  0.2684731286181616  1.0000
  C   C28       1.0  0.3626057766486497  0.3612062380283804  0.14241072407446603  1.0000
  C   C29       1.0  0.42468341159261774  0.13332589117374033  0.2066684715513888  1.0000
  C   C30       1.0  0.7254482981485781  0.21593732393323253  0.8388979854317993  1.0000
  C   C31       1.0  0.6939635109117149  0.3084855659996392  0.8036528260162896  1.0000
  C   C32       1.0  0.7214666546901257  0.345483991005743  0.7107770245803238  1.0000
  C   C33       1.0  0.7754273371426452  0.29240116717261344  0.6571076825479593  1.0000
  C   C34       1.0  0.727580339052267  0.6153736293824252  0.0867440406709649  1.0000
  C   C35       1.0  0.8052235825859952  0.19925726943880306  0.6931556516847054  1.0000
  C   C36       1.0  0.7792896061226673  0.1630633748915642  0.7855165742082447  1.0000
  C   C37       1.0  0.7816456873582639  0.07706745368614068  0.8634052866723465  1.0000
  C   C38       1.0  0.7209603920155914  0.13755204987409536  0.9243329387092203  1.0000
  C   C39       1.0  0.33794653741423986  0.7263124139243968  0.7149135289919358  1.0000
  C   C40       1.0  0.3609542780933594  0.6376055156912913  0.8633741303118329  1.0000
  C   C41       1.0  0.302913860855824  0.694041409741395  0.8072853508652004  1.0000
  C   C42       1.0  0.20905092075817322  0.7212890386171367  0.8405954366296198  1.0000
  C   C43       1.0  0.15593409943600975  0.7749863087292824  0.78696472028291  1.0000
  C   C44       1.0  0.1936742956200916  0.8057593703445036  0.6942385685938675  1.0000
  C   C45       1.0  0.7860359584000706  0.28558851738619506  0.2678934330276375  1.0000
  C   C46       1.0  0.2860085209871528  0.7800674695477171  0.6598411054026413  1.0000
  C   C47       1.0  0.3656443818016298  0.7890628463795865  0.5754280449706075  1.0000
  C   C48       1.0  0.4242097017324582  0.7270852204744855  0.6386061459321581  1.0000
  C   C49       1.0  0.7478260905880492  0.6971787481974233  0.723415397721112  1.0000
  C   C50       1.0  0.6943202473278591  0.6941669201716465  0.8101201875565209  1.0000
  C   C51       1.0  0.6980612461921963  0.74692705693586  0.8421049398978582  1.0000
  C   C52       1.0  0.6421822399683846  0.3626571421955306  0.1336933321855439  1.0000
  C   C53       1.0  0.7513333010163519  0.8003773913854533  0.7889463806636883  1.0000
  C   C54       1.0  0.80455465843351  0.8038061364874379  0.7007722222555016  1.0000
  C   C55       1.0  0.8017986320741104  0.7500889059784368  0.6705324907454865  1.0000
  C   C56       1.0  0.8042831056302617  0.1935133876731001  0.30181113211868654  1.0000
  C   C57       1.0  0.8394076021593333  0.7199402807324661  0.5927096272125709  1.0000
  C   C58       1.0  0.7775411220637595  0.6607463094048286  0.6520702094079095  1.0000
  C   C59       1.0  0.1370582357764789  0.13865070011925706  0.3616386962112657  1.0000
  C   C60       1.0  0.8597797157901256  0.8623047135066031  0.6434386938086899  1.0000
  C   C61       1.0  0.13442336067411984  0.863439141961301  0.36271950504759337  1.0000
  C   C62       1.0  0.861206938409758  0.1429591169139428  0.6356962316290475  1.0000
  C   C63       1.0  0.13594315354931297  0.8629497520663135  0.6377780928649416  1.0000
  C   C64       1.0  0.7803213217668485  0.5564516801772826  0.039618844228336045  1.0000
  C   C65       1.0  0.8590809892069584  0.1382514561071488  0.3619821100113756  1.0000
  C   C66       1.0  0.781625818944356  0.46891817149804643  0.08129666996437376  1.0000
  C   C67       1.0  0.7734768245032769  0.1564633765524874  0.2762485290635084  1.0000
  C   C68       1.0  0.7297799842500013  0.439060621022513  0.17000079169864782  1.0000
  C   C69       1.0  0.8442490051485408  0.7826329207380738  0.3587443136797151  1.0000
  C   C70       1.0  0.9394208789320897  0.7223899807501155  0.35870642883564596  1.0000
  C   C71       1.0  0.9530765862548876  0.6241976714482578  0.38907003817737945  1.0000
  C   C72       1.0  0.371613425448025  0.8821220710613319  0.5172355749049802  1.0000
  C   C73       1.0  0.345164742314978  0.941227443182875  0.5676541259143235  1.0000
  C   C74       1.0  0.35082735754124883  0.033715807900733814  0.5063167126714632  1.0000
  C   C75       1.0  0.6154469470160182  0.47084047339158264  0.3137169651252022  1.0000
  C   C76       1.0  0.5343613381416289  0.45839540128929457  0.32285143912822184  1.0000
  C   C77       1.0  0.4650705411606992  0.45145801232186505  0.4149505581557377  1.0000
  C   C78       1.0  0.7220705313404636  0.2147834513742737  0.22067400444358026  1.0000
  C   C79       1.0  0.7023737988997923  0.3068094099032095  0.1884493661000874  1.0000
  O   O1        1.0  0.4993298712363553  0.4999884263337576  0.0015163119938323263  1.0000
  O   O2        1.0  0.8828627740716187  0.0594645645813543  0.6764103286004399  1.0000
  O   O3        1.0  0.1757109591553102  0.8854742590827557  0.5542629721843041  1.0000
  O   O4        1.0  0.6108118081893678  0.3244425501721793  0.9436555936658662  1.0000
  O   O5        1.0  0.8808623281677513  0.1801182347052617  0.38177909064030774  1.0000
  O   O6        1.0  0.052316123846445274  0.8842574746057609  0.6772550075997755  1.0000
  O   O7        1.0  0.8798103089224654  0.05442058462983821  0.3886109624649806  1.0000
  O   O8        1.0  0.05067745532937095  0.8844256768367771  0.385953218666259  1.0000
  O   O9        1.0  0.8817937889712797  0.18260291909741974  0.5521461220022486  1.0000
  O   O10       1.0  0.17674279078852356  0.0547950587098995  0.38326199303887876  1.0000
  O   O11       1.0  0.8732035724958961  0.8941385480623154  0.6812865783747526  1.0000
  O   O12       1.0  0.6051919248091338  0.6248299453957957  0.9495518761490158  1.0000
  O   O13       1.0  0.4416519688545791  0.6148451963231664  0.12274925775012946  1.0000
  O   O14       1.0  0.6212111290651449  0.6106062331565951  0.8263005459393684  1.0000
  O   O15       1.0  0.322546938936533  0.444702193223847  0.12379440670491694  1.0000
  O   O16       1.0  0.44444557633135423  0.6203456392387423  0.8215887573434841  1.0000
  O   O17       1.0  0.6262033912146521  0.32205042232400427  0.10704650292637992  1.0000
  O   O18       1.0  0.32398159416135297  0.6114113691167021  0.9468762411412043  1.0000
  O   O19       1.0  0.6100544999767691  0.4456682929353804  0.1199299739924626  1.0000
  O   O20       1.0  0.44612619955079685  0.32142728037764107  0.11667213372712829  1.0000
  O   O21       1.0  0.614582170595213  0.44909800201049427  0.8211572866344594  1.0000
  O   O22       1.0  0.3190806711933264  0.6191542313697411  0.1165595341858463  1.0000
  O   O23       1.0  0.9966107358651897  0.002626771265887801  0.5007354420119653  1.0000
  O   O24       1.0  0.05341922793949288  0.1787350087330779  0.38301182848241677  1.0000
  O   O25       1.0  0.8891302696229814  0.8757242171322731  0.5605344128126291  1.0000
  O   O26       1.0  0.17466110703414012  0.8859560278137908  0.3838036694793414  1.0000
  F   F1        1.0  0.684921404368076  0.04899622803024781  0.44305132298798355  1.0000
  F   F2        1.0  0.4887582057001154  0.1148283628846016  0.2390855657666435  1.0000
  F   F3        1.0  0.8641098134116376  0.0229986381347516  0.8746711564775964  1.0000
  F   F4        1.0  0.7619383103847  0.1268605827948122  0.9768241204418259  1.0000
  F   F5        1.0  0.16584625647799814  0.6954183342917234  0.9291122344089685  1.0000
  F   F6        1.0  0.6264630209190399  0.6431923126236258  0.21990264326242234  1.0000
