data_image0
_chemical_formula_structural       Zn4H44C52Cl2O13
_chemical_formula_sum              "Zn4 H44 C52 Cl2 O13"
_cell_length_a       15.179948487044731
_cell_length_b       15.17885848498102
_cell_length_c       19.536088357582173
_cell_angle_alpha    88.85459360693673
_cell_angle_beta     88.65758044674915
_cell_angle_gamma    89.81489550656693

_space_group_name_H-M_alt    "P 1"
_space_group_IT_number       1

loop_
  _space_group_symop_operation_xyz
  'x, y, z'

loop_
  _atom_site_type_symbol
  _atom_site_label
  _atom_site_symmetry_multiplicity
  _atom_site_fract_x
  _atom_site_fract_y
  _atom_site_fract_z
  _atom_site_occupancy
  Zn  Zn1       1.0  0.43274394027257307  0.4244667975036691  0.5643687877297197  1.0000
  Zn  Zn2       1.0  0.418348193327681  0.5675579788197426  0.44298479615522973  1.0000
  Zn  Zn3       1.0  0.5764934112344235  0.42605320587736634  0.4430339879556229  1.0000
  Zn  Zn4       1.0  0.5716981777738966  0.5843286493868048  0.5510772521293958  1.0000
  H   H1        1.0  0.4492405432976341  0.3911786270206435  0.7707982362595303  1.0000
  H   H2        1.0  0.8350707837259393  0.6476807207869586  0.4388521611569516  1.0000
  H   H3        1.0  0.5912087185746986  0.3856654224889128  0.2360886467635694  1.0000
  H   H4        1.0  0.5076285835223971  0.4001984531871089  0.0007376343828368923  1.0000
  H   H5        1.0  0.5248159328984344  0.6622856953884694  0.8928103917482488  1.0000
  H   H6        1.0  0.37217783076899025  0.5578607346160851  0.1028451848465011  1.0000
  H   H7        1.0  0.4594333197456707  0.5970461628008581  0.0007661335368779966  1.0000
  H   H8        1.0  0.43242840284465706  0.3936825995340172  0.8974757938678694  1.0000
  H   H9        1.0  0.45097221734778964  0.6962159705668897  0.2561032323160433  1.0000
  H   H10       1.0  0.4806599910083095  0.7954293281446427  0.2114959154188938  1.0000
  H   H11       1.0  0.5615196298633337  0.713375005635932  0.2281613672082585  1.0000
  H   H12       1.0  0.5883260491443069  0.37309962693672116  0.10907356559519601  1.0000
  H   H13       1.0  0.5730103452627587  0.8395677775640777  0.3107626042674383  1.0000
  H   H14       1.0  0.5479614519291547  0.739060921908937  0.3534760397041126  1.0000
  H   H15       1.0  0.3889773074456642  0.7801948059224131  0.3600088682181521  1.0000
  H   H16       1.0  0.4114408065444622  0.8793033872532804  0.31333425945216226  1.0000
  H   H17       1.0  0.7401675794033056  0.9416730703679193  0.728105332742139  1.0000
  H   H18       1.0  0.6926472791886128  0.8417501875080974  0.7012491004683525  1.0000
  H   H19       1.0  0.7996592901221791  0.8720254296983614  0.6713638229051284  1.0000
  H   H20       1.0  0.6902159190576145  0.9021912479503414  0.5794173198684406  1.0000
  H   H21       1.0  0.73663648136165  0.0014686485532920005  0.6060428310200408  1.0000
  H   H22       1.0  0.6053094283223787  0.0273551454539458  0.6834213037329206  1.0000
  H   H23       1.0  0.5435441401455563  0.8512525918914591  0.5741059414705845  1.0000
  H   H24       1.0  0.5586043037357059  0.9283368174752413  0.6580897819116629  1.0000
  H   H25       1.0  0.657071587783463  0.20970569021964994  0.7591797523396905  1.0000
  H   H26       1.0  0.6266807638947756  0.3120427896280731  0.7208038081238328  1.0000
  H   H27       1.0  0.5599834440835494  0.26483372054133275  0.7875680063423545  1.0000
  H   H28       1.0  0.4915333246145935  0.24058059585193092  0.672430132921491  1.0000
  H   H29       1.0  0.5204280730556974  0.13952609238345562  0.7118522010482309  1.0000
  H   H30       1.0  0.6655357637745567  0.14444212459142855  0.6426223446885544  1.0000
  H   H31       1.0  0.6278868966612451  0.23992188491282465  0.6007521268129494  1.0000
  H   H32       1.0  0.39464411894724094  0.1812784987219658  0.2658067326195024  1.0000
  H   H33       1.0  0.42670332630404323  0.28602514637101  0.2954059310123895  1.0000
  H   H34       1.0  0.4335781570036374  0.003207593866072501  0.3669851098113952  1.0000
  H   H35       1.0  0.49487795337456225  0.22996223739171034  0.23570224504579332  1.0000
  H   H36       1.0  0.5572028672395178  0.2159107683046031  0.3538760041104609  1.0000
  H   H37       1.0  0.5259515848967028  0.1117798951323152  0.3244218872254621  1.0000
  H   H38       1.0  0.38025959099199724  0.12806466476063602  0.3903348383947716  1.0000
  H   H39       1.0  0.4165876822587222  0.22943023286504174  0.4201930683998897  1.0000
  H   H40       1.0  0.14436400377349662  0.5971947145845392  0.4582624337271213  1.0000
  H   H41       1.0  0.16625284699925663  0.34963169274649186  0.5670872245673948  1.0000
  H   H42       1.0  0.998519497943569  0.6598417679746832  0.4337690457047216  1.0000
  H   H43       1.0  0.37398477412200043  0.5674801225066018  0.2299526506238365  1.0000
  H   H44       1.0  0.0035929067402591004  0.3324484593142146  0.5683207884422927  1.0000
  C   C1        1.0  0.48890340375454144  0.7392961278042238  0.4866084568478827  1.0000
  C   C2        1.0  0.47211742469351503  0.5320606124733446  0.9793206294402951  1.0000
  C   C3        1.0  0.4859725595718132  0.4628611336894083  0.022331201830816393  1.0000
  C   C4        1.0  0.5165655067229409  0.26206296201309703  0.5126050888996332  1.0000
  C   C5        1.0  0.4839680827736715  0.47854040489375654  0.2405677425965322  1.0000
  C   C6        1.0  0.4891727282083452  0.8369296534454805  0.47608971202667055  1.0000
  C   C7        1.0  0.5200231435492029  0.16323065791643643  0.5162750822774314  1.0000
  C   C8        1.0  0.5593888554319548  0.03019537382374441  0.579992995366446  1.0000
  C   C9        1.0  0.5605220533099599  0.12170164664752292  0.5737065298509094  1.0000
  C   C10       1.0  0.48278034850488183  0.1170821294160547  0.4636382655444464  1.0000
  C   C11       1.0  0.4859086535506876  0.023182811362829608  0.4675499316523286  1.0000
  C   C12       1.0  0.4794861674864706  0.5277396172765807  0.9048401336014676  1.0000
  C   C13       1.0  0.521723651070758  0.979998949493073  0.5267159602458946  1.0000
  C   C14       1.0  0.5199516497877286  0.8868314587650589  0.5292115639128596  1.0000
  C   C15       1.0  0.45910180404248996  0.8794585960153043  0.4147747670740928  1.0000
  C   C16       1.0  0.2624547931513562  0.4833225856065155  0.509708857666972  1.0000
  C   C17       1.0  0.4567812875579733  0.9704913504954502  0.41338548996543517  1.0000
  C   C18       1.0  0.16462262329401517  0.47457163405081815  0.5118248152086267  1.0000
  C   C19       1.0  0.8352638631867253  0.518277447557317  0.48723006934676494  1.0000
  C   C20       1.0  0.9667088515803643  0.6015113979337415  0.45631868331729203  1.0000
  C   C21       1.0  0.8764702185478728  0.5947132199056357  0.45877207188733854  1.0000
  C   C22       1.0  0.8859269133969505  0.4507115420102395  0.5144955277392285  1.0000
  C   C23       1.0  0.5089107245668459  0.6017396781551199  0.8667420810749534  1.0000
  C   C24       1.0  0.9795681364164325  0.4563732215496472  0.5149826929537795  1.0000
  C   C25       1.0  0.02007671790397581  0.5333661810514629  0.48404620324308917  1.0000
  C   C26       1.0  0.1129686298468613  0.53972021078539  0.4824944824990922  1.0000
  C   C27       1.0  0.12436835921735681  0.39973174728286415  0.5437952229354153  1.0000
  C   C28       1.0  0.736589020177128  0.5143716509996779  0.48849371646957  1.0000
  C   C29       1.0  0.034184236324222204  0.3905635844774338  0.5446079578033789  1.0000
  C   C30       1.0  0.48757831558052805  0.48607106568371  0.3164195736765052  1.0000
  C   C31       1.0  0.5050062760478085  0.5134225108785273  0.6840757757621319  1.0000
  C   C32       1.0  0.49931304714566244  0.5224208687095313  0.7600691537541451  1.0000
  C   C33       1.0  0.46756175240576436  0.4494504993785427  0.7987501255811011  1.0000
  C   C34       1.0  0.5204282553519874  0.5991807919968294  0.7957143154874942  1.0000
  C   C35       1.0  0.4586174288162966  0.4509502308984636  0.869384492286926  1.0000
  C   C36       1.0  0.43887091574024595  0.83135247666619  0.3502157166447404  1.0000
  C   C37       1.0  0.521564342182856  0.7889204985425808  0.3177019178529932  1.0000
  C   C38       1.0  0.5027592740404216  0.7462567128614098  0.2495738642895802  1.0000
  C   C39       1.0  0.6011454906401428  0.9830242903756957  0.6398808033024892  1.0000
  C   C40       1.0  0.6936964485035733  0.9465305637590263  0.623202630642389  1.0000
  C   C41       1.0  0.7337911477715977  0.8979483818224809  0.6842420757330245  1.0000
  C   C42       1.0  0.6052238787064469  0.17799762841529093  0.6256400483428024  1.0000
  C   C43       1.0  0.5480520607155057  0.20063984636210117  0.6889696687876778  1.0000
  C   C44       1.0  0.6006084202656156  0.24942399420180555  0.7420341407379354  1.0000
  C   C45       1.0  0.421217304195558  0.5212023879737231  0.13188206845821068  1.0000
  C   C46       1.0  0.43995785502239926  0.16411275621399568  0.404163716348009  1.0000
  C   C47       1.0  0.49994683844130355  0.17630635812123782  0.3401176298627462  1.0000
  C   C48       1.0  0.4514800696676319  0.22061095323419277  0.28105017041863783  1.0000
  C   C49       1.0  0.4218133363334998  0.5265169302701836  0.20280708773539402  1.0000
  C   C50       1.0  0.5436165958459328  0.4229628113251921  0.206230319921147  1.0000
  C   C51       1.0  0.5415930411993273  0.41618515268739037  0.1355278197644836  1.0000
  C   C52       1.0  0.4819226721499916  0.466812097269198  0.09690475294784309  1.0000
  Cl  Cl1       1.0  0.8345043443505845  0.35899005795894123  0.5512841434247306  1.0000
  Cl  Cl2       1.0  0.5572815890276033  0.695232586789068  0.7553644269236983  1.0000
  O   O1        1.0  0.5005096854995515  0.5006514630396381  0.5004163586968319  1.0000
  O   O2        1.0  0.43442652019199113  0.5402333445517301  0.34518246615060383  1.0000
  O   O3        1.0  0.5588477351462019  0.5624160780112462  0.650152651897983  1.0000
  O   O4        1.0  0.5442710917064773  0.437615760211891  0.34673758010283245  1.0000
  O   O5        1.0  0.4547342732999554  0.45502292592066607  0.6594836237696597  1.0000
  O   O6        1.0  0.30550642361547636  0.4318048080083089  0.5492784575184116  1.0000
  O   O7        1.0  0.697762094426267  0.5705461287898358  0.5261353752542135  1.0000
  O   O8        1.0  0.43426928830572825  0.6945223957242704  0.4527235286242616  1.0000
  O   O9        1.0  0.5675132434275697  0.30050868213379534  0.4687336425894415  1.0000
  O   O10       1.0  0.5429449616224032  0.7071332196279697  0.5298965325782206  1.0000
  O   O11       1.0  0.4618764402041293  0.2992191061486268  0.5533417538195522  1.0000
  O   O12       1.0  0.29520402064990486  0.5414651121116238  0.46843737057822915  1.0000
  O   O13       1.0  0.7015139098512363  0.4572574213398469  0.45107738616528786  1.0000
