data_image0
_chemical_formula_structural       Cd4H48C36N16Cl8
_chemical_formula_sum              "Cd4 H48 C36 N16 Cl8"
_cell_length_a       7.818999514004687
_cell_length_b       9.750359783004633
_cell_length_c       15.22116344500499
_cell_angle_alpha    89.99994836803751
_cell_angle_beta     90.00007674575258
_cell_angle_gamma    90.00009929003485

_space_group_name_H-M_alt    "P 1"
_space_group_IT_number       1

loop_
  _space_group_symop_operation_xyz
  'x, y, z'

loop_
  _atom_site_type_symbol
  _atom_site_label
  _atom_site_symmetry_multiplicity
  _atom_site_fract_x
  _atom_site_fract_y
  _atom_site_fract_z
  _atom_site_occupancy
  Cd  Cd1       1.0  0.6160700059756579  0.9999889845424617  0.2571182496873234  1.0000
  Cd  Cd2       1.0  0.11607015310293181  1.22144586712e-05  0.2428822620847484  1.0000
  Cd  Cd3       1.0  0.3839291621807277  0.5000120444919672  0.7571175417338837  1.0000
  Cd  Cd4       1.0  0.8839291747137351  0.49998881263533684  0.7428816144552428  1.0000
  H   H1        1.0  0.929239363608225  0.1711030007407857  0.0672993322405091  1.0000
  H   H2        1.0  0.4292379619087399  0.8288965815556679  0.43270073850248986  1.0000
  H   H3        1.0  0.07076206523917959  0.3288982769147069  0.5673001921588536  1.0000
  H   H4        1.0  0.570761663087552  0.6711021457122327  0.9327000620408157  1.0000
  H   H5        1.0  0.3143813940450996  0.870328060014458  0.05923449180550481  1.0000
  H   H6        1.0  0.8143811199077857  0.129673414130643  0.44076615671517777  1.0000
  H   H7        1.0  0.6856172592388248  0.629671200199965  0.559231290196756  1.0000
  H   H8        1.0  0.1856174438405489  0.3703273305775383  0.9407657583038969  1.0000
  H   H9        1.0  0.030849241244140995  0.13340779540316558  0.89199748976489  1.0000
  H   H10       1.0  0.5308484174063821  0.8665915462433631  0.6080033938924103  1.0000
  H   H11       1.0  0.969154311356604  0.3665909676961121  0.3919972031272607  1.0000
  H   H12       1.0  0.46915164170634677  0.6334076443761631  0.1080022381595782  1.0000
  H   H13       1.0  0.17543370828612126  0.905632779394729  0.827405017020773  1.0000
  H   H14       1.0  0.6754326599883171  0.09436881406009691  0.6725953093563675  1.0000
  H   H15       1.0  0.8245643638118737  0.5943691749413276  0.3274041285807385  1.0000
  H   H16       1.0  0.32456520601387234  0.40563128773099066  0.1725945560224389  1.0000
  H   H17       1.0  0.3228298001052252  0.8211046706638071  0.8948033563953074  1.0000
  H   H18       1.0  0.8228300383386794  0.1788950760881249  0.6051970716221646  1.0000
  H   H19       1.0  0.6771697262895131  0.6788951362870108  0.39480363218521575  1.0000
  H   H20       1.0  0.1771689312380147  0.3211040962790365  0.1051969217193971  1.0000
  H   H21       1.0  0.38118935372978763  0.1148959483247012  0.8257280429579054  1.0000
  H   H22       1.0  0.8811887423857953  0.8851049049999348  0.6742724253017371  1.0000
  H   H23       1.0  0.6188101896425948  0.3851059861491565  0.3257281611830791  1.0000
  H   H24       1.0  0.1188114891506231  0.6148941910518956  0.17427169549921467  1.0000
  H   H25       1.0  0.43592354242006337  0.9660451336388218  0.76598994202255  1.0000
  H   H26       1.0  0.9359238020897394  0.03395477002339219  0.7340105639805117  1.0000
  H   H27       1.0  0.5640743698808847  0.5339548571321445  0.2659882513493201  1.0000
  H   H28       1.0  0.0640767815790326  0.46604421852455147  0.2340109106096975  1.0000
  H   H29       1.0  0.6371322135777576  0.8890264958846361  0.8794117179381687  1.0000
  H   H30       1.0  0.13713100375396436  0.11097607003240743  0.6205885820272243  1.0000
  H   H31       1.0  0.36286855170713744  0.6109753842382375  0.3794111586593445  1.0000
  H   H32       1.0  0.8628667269361614  0.38902513157588453  0.1205888663161758  1.0000
  H   H33       1.0  0.6888002700741253  0.054206085196860015  0.8374224103282017  1.0000
  H   H34       1.0  0.1887996975096229  0.9457955268030672  0.6625785822462262  1.0000
  H   H35       1.0  0.31119802478825415  0.44579583258862954  0.33742162492568173  1.0000
  H   H36       1.0  0.8111992246667583  0.5542046115380614  0.1625783644206535  1.0000
  H   H37       1.0  0.5366596806650463  0.2626577017403662  0.939804748222528  1.0000
  H   H38       1.0  0.036659669462260104  0.7373426735715185  0.5601961394414374  1.0000
  H   H39       1.0  0.463340159517628  0.23734304434077555  0.43980418632931867  1.0000
  H   H40       1.0  0.9633415442004676  0.7626565852697951  0.0601965649093898  1.0000
  H   H41       1.0  0.546304366595848  0.2731994397378514  0.12437036701511768  1.0000
  H   H42       1.0  0.0463038743593032  0.7268016624670468  0.3756307536287339  1.0000
  H   H43       1.0  0.4536959318034732  0.2268007308731015  0.6243695781396355  1.0000
  H   H44       1.0  0.9536968810870334  0.7731991974481004  0.8756302831388894  1.0000
  H   H45       1.0  0.6604077409269492  0.8714072466015351  0.0424205215954458  1.0000
  H   H46       1.0  0.16040616710882458  0.12859401391415304  0.4575800207498162  1.0000
  H   H47       1.0  0.33959342648636687  0.6285930632095784  0.5424203668932037  1.0000
  H   H48       1.0  0.8395937193235171  0.37140670680083326  0.9575800726839107  1.0000
  C   C1        1.0  0.026880842069623195  0.10544738163126513  0.039203946967639104  1.0000
  C   C2        1.0  0.5268809966727445  0.8945526680229536  0.4607958463229309  1.0000
  C   C3        1.0  0.9731192347392934  0.39455291051342567  0.5392040778073124  1.0000
  C   C4        1.0  0.4731187014232106  0.6054460191526162  0.9607951398846382  1.0000
  C   C5        1.0  0.2249428992460452  0.9487938352895285  0.0384574460643705  1.0000
  C   C6        1.0  0.7249425093296082  0.051206489162176204  0.46154314078283676  1.0000
  C   C7        1.0  0.7750569789155363  0.551204428970898  0.5384556647327869  1.0000
  C   C8        1.0  0.2750573874117137  0.4487932002949507  0.9615421024228183  1.0000
  C   C9        1.0  0.07197985008046  0.08521058471956879  0.9527865633393731  1.0000
  C   C10       1.0  0.5719802513354253  0.9147898395975317  0.5472136917003141  1.0000
  C   C11       1.0  0.9280213028145923  0.4147901428374326  0.452785563936537  1.0000
  C   C12       1.0  0.4280196496115137  0.5852094377698052  0.0472131920064456  1.0000
  C   C13       1.0  0.2772166331297043  0.9232496013990924  0.8756562864148448  1.0000
  C   C14       1.0  0.7772167000933834  0.07675110767009842  0.6243447671289956  1.0000
  C   C15       1.0  0.7227841223824427  0.576751258479959  0.3756553378129865  1.0000
  C   C16       1.0  0.22278231930216208  0.42324803737335515  0.1243439335854006  1.0000
  C   C17       1.0  0.4199218231577006  0.007001489955477796  0.8328688026536923  1.0000
  C   C18       1.0  0.9199201478349153  0.9930004427099347  0.6671323492938795  1.0000
  C   C19       1.0  0.5800802966652724  0.49300145993431244  0.3328675188248766  1.0000
  C   C20       1.0  0.08008006512513789  0.5069996891340978  0.1671316541697863  1.0000
  C   C21       1.0  0.5953392553266282  0.9964214803233843  0.8765577518463701  1.0000
  C   C22       1.0  0.0953390994118735  0.0035810276088881  0.6234431762803893  1.0000
  C   C23       1.0  0.4046602235984479  0.5035804038702736  0.3765585964479286  1.0000
  C   C24       1.0  0.9046599176397763  0.4964201699276813  0.123442114326231  1.0000
  C   C25       1.0  0.5614288147585781  0.18512721120982434  0.9893036231553082  1.0000
  C   C26       1.0  0.0614275636439743  0.8148742240699604  0.5106972815878876  1.0000
  C   C27       1.0  0.4385724331497087  0.3148744898398945  0.4893023430917864  1.0000
  C   C28       1.0  0.9385722422945121  0.6851261310096106  0.010697734087102602  1.0000
  C   C29       1.0  0.5680717077002269  0.18869798957440762  0.07959721137979162  1.0000
  C   C30       1.0  0.0680727937936609  0.8113031428328412  0.420403267294617  1.0000
  C   C31       1.0  0.43192847420527153  0.3113022449288962  0.5795963594175789  1.0000
  C   C32       1.0  0.9319293570805485  0.6886966275881363  0.9204034868511215  1.0000
  C   C33       1.0  0.6259111148293073  0.9791488889506113  0.041004687146426  1.0000
  C   C34       1.0  0.12590931149036777  0.0208523237035436  0.45899517443106674  1.0000
  C   C35       1.0  0.3740900489003068  0.5208514228808737  0.5410046175309234  1.0000
  C   C36       1.0  0.8740905786248234  0.4791483949915474  0.9589958458339679  1.0000
  N   N1        1.0  0.1240646076961482  0.020405421378001196  0.0918806612772443  1.0000
  N   N2        1.0  0.6240648093136656  0.9795957887156347  0.40811919902765237  1.0000
  N   N3        1.0  0.8759343272324003  0.47959376999232006  0.5918800197380278  1.0000
  N   N4        1.0  0.3759347517258007  0.520403999233885  0.9081184739591563  1.0000
  N   N5        1.0  0.6078017558400999  0.059928387647652  0.11073614289368548  1.0000
  N   N6        1.0  0.10780048176035  0.9400727998808308  0.3892643631763947  1.0000
  N   N7        1.0  0.3921997860205977  0.440071802420654  0.6107351902726776  1.0000
  N   N8        1.0  0.8922003091586602  0.5599270149751446  0.8892646286003584  1.0000
  N   N9        1.0  0.5979665621337488  0.051170145060268596  0.9659565755068228  1.0000
  N   N10       1.0  0.0979656617113847  0.9488313409135218  0.5340443544316784  1.0000
  N   N11       1.0  0.40203334609336855  0.44883158930492334  0.4659558510134758  1.0000
  N   N12       1.0  0.9020329260351545  0.5511679552456172  0.03404420096952519  1.0000
  N   N13       1.0  0.19801868955528326  0.9854071972538135  0.9534880053571939  1.0000
  N   N14       1.0  0.6980184194717722  0.014593401933574099  0.5465123365943326  1.0000
  N   N15       1.0  0.8019822684624528  0.5145915003512016  0.45348714673247775  1.0000
  N   N16       1.0  0.30198039741424765  0.4854058541784952  0.0465115222988004  1.0000
  Cl  Cl1       1.0  0.8576019418671592  0.817832822793882  0.2208182686969948  1.0000
  Cl  Cl2       1.0  0.3576025777125693  0.18216768571486594  0.2791817526477018  1.0000
  Cl  Cl3       1.0  0.1423971318409372  0.6821672324379834  0.7208179475347621  1.0000
  Cl  Cl4       1.0  0.6423994024241395  0.3178332895798448  0.7791823560629182  1.0000
  Cl  Cl5       1.0  0.37441097324838063  0.8066759659893491  0.23513304255185122  1.0000
  Cl  Cl6       1.0  0.8744116581545285  0.1933245658404061  0.2648676473638005  1.0000
  Cl  Cl7       1.0  0.6255894166393076  0.6933230432129563  0.7351323912549006  1.0000
  Cl  Cl8       1.0  0.125589005801487  0.3066764298806818  0.7648672437721232  1.0000
