data_image0
_chemical_formula_structural       Cu4H24C28N4O24
_chemical_formula_sum              "Cu4 H24 C28 N4 O24"
_cell_length_a       6.434178736902511
_cell_length_b       7.11260542582211
_cell_length_c       18.095527301146607
_cell_angle_alpha    89.99892031726247
_cell_angle_beta     90.00104155730723
_cell_angle_gamma    105.49721357654377

_space_group_name_H-M_alt    "P 1"
_space_group_IT_number       1

loop_
  _space_group_symop_operation_xyz
  'x, y, z'

loop_
  _atom_site_type_symbol
  _atom_site_label
  _atom_site_symmetry_multiplicity
  _atom_site_fract_x
  _atom_site_fract_y
  _atom_site_fract_z
  _atom_site_occupancy
  Cu  Cu1       1.0  0.7241730681682557  0.10275290263706441  0.3112612578402576  1.0000
  Cu  Cu2       1.0  0.7759796112414535  0.897239319851565  0.8111134039774797  1.0000
  Cu  Cu3       1.0  0.27599582741639483  0.8972427413904498  0.6888986636389518  1.0000
  Cu  Cu4       1.0  0.22413775890980497  0.10273071705106675  0.18874423278536057  1.0000
  H   H1        1.0  0.8599252817124352  0.28161311994752236  0.1985563805637867  1.0000
  H   H2        1.0  0.6402432601678073  0.7183932382734853  0.6984106469585499  1.0000
  H   H3        1.0  0.14023515459261662  0.7184002375588537  0.8016007777057509  1.0000
  H   H4        1.0  0.3599142496592548  0.2815908564743239  0.30143096382474255  1.0000
  H   H5        1.0  0.8827043644108771  0.4476099639938056  0.2627772164705533  1.0000
  H   H6        1.0  0.6173251149346796  0.5523389655443793  0.7626248633744624  1.0000
  H   H7        1.0  0.11734893371784239  0.5523390385570651  0.7373882310289801  1.0000
  H   H8        1.0  0.38277041325000033  0.44763579431108264  0.23720845789662803  1.0000
  H   H9        1.0  0.07600046275219803  0.3869573727497271  0.3664512065822052  1.0000
  H   H10       1.0  0.42427997530977996  0.613452960680377  0.866320881276856  1.0000
  H   H11       1.0  0.9242866844238266  0.6134717938319271  0.6336904770830927  1.0000
  H   H12       1.0  0.5760281839345113  0.38695391368815996  0.1335350965836923  1.0000
  H   H13       1.0  0.0619862685490276  0.19976112398367724  0.41549659175187514  1.0000
  H   H14       1.0  0.43839669501522144  0.8005564879980798  0.9154080336763926  1.0000
  H   H15       1.0  0.9383957713524039  0.8005537768888688  0.5845887251465954  1.0000
  H   H16       1.0  0.5620293994801102  0.19979000284268272  0.08448552315508101  1.0000
  H   H17       1.0  0.25806735508470513  0.7049414471983582  0.501123103392878  1.0000
  H   H18       1.0  0.24175356799297273  0.2950713708359132  0.0010645819754984001  1.0000
  H   H19       1.0  0.7417294826361455  0.29505241827022394  0.49894287098550905  1.0000
  H   H20       1.0  0.7581132662738738  0.7049624901652012  0.9988787102336049  1.0000
  H   H21       1.0  0.7917989400548819  0.48928437143452896  0.4208152544764587  1.0000
  H   H22       1.0  0.7078700962475537  0.5105351897443242  0.9207743501831018  1.0000
  H   H23       1.0  0.2078654206963577  0.5105092156762439  0.5792435361302282  1.0000
  H   H24       1.0  0.2918310474521348  0.4893164747843033  0.0791976785529513  1.0000
  C   C1        1.0  0.46015898321439136  0.864704386733848  0.4161668137121097  1.0000
  C   C2        1.0  0.03979689254467189  0.1352956698208772  0.9160779216669752  1.0000
  C   C3        1.0  0.5398068672677567  0.1353030798616501  0.5839212660877351  1.0000
  C   C4        1.0  0.9601588405529501  0.8646694483105293  0.0838294506228792  1.0000
  C   C5        1.0  0.3979325972005227  0.711777704003687  0.46618618098302994  1.0000
  C   C6        1.0  0.1019239024966794  0.28818976556233633  0.96609819216102  1.0000
  C   C7        1.0  0.6019094710697601  0.2882066930421344  0.533898582755775  1.0000
  C   C8        1.0  0.8979540088669821  0.7117501319122752  0.0338158114387141  1.0000
  C   C9        1.0  0.5230838669092818  0.5772212168393764  0.4715729740889004  1.0000
  C   C10       1.0  0.9766878072779266  0.42267996739926883  0.9714991665642927  1.0000
  C   C11       1.0  0.47667326595487935  0.42268530405875276  0.5285012898322492  1.0000
  C   C12       1.0  0.023110005072041376  0.5772274153267531  0.0284220209883728  1.0000
  C   C13       1.0  0.6942147508082  0.5929523855106921  0.4213671554364637  1.0000
  C   C14       1.0  0.8055050958907444  0.40688545115835956  0.9213061425289907  1.0000
  C   C15       1.0  0.30551488040290314  0.406895921330488  0.5786977140288698  1.0000
  C   C16       1.0  0.19424837690066002  0.5929595713952055  0.0786255449464477  1.0000
  C   C17       1.0  0.7420601251914009  0.7462532567218148  0.3712609770081414  1.0000
  C   C18       1.0  0.7577595495229518  0.2536186291220375  0.8711908703045879  1.0000
  C   C19       1.0  0.2577620698358061  0.2536127226661905  0.6288110767939941  1.0000
  C   C20       1.0  0.24207457141469038  0.7462706249944093  0.12872589645649413  1.0000
  C   C21       1.0  0.3555868236251812  0.028855203787429708  0.4061682944358012  1.0000
  C   C22       1.0  0.1444625977417573  0.9711672715589688  0.9061317336173856  1.0000
  C   C23       1.0  0.6444597614109924  0.9711818375605503  0.5938744704549563  1.0000
  C   C24       1.0  0.855571862145368  0.028801068701454793  0.093819296119662  1.0000
  C   C25       1.0  0.9159300440571768  0.7862816146972095  0.3128138115661372  1.0000
  C   C26       1.0  0.5838619861277863  0.2135957475321107  0.8127439565092871  1.0000
  C   C27       1.0  0.0838933365909327  0.21359314059741052  0.6872615579428825  1.0000
  C   C28       1.0  0.4159060611410226  0.7862959573174706  0.1871783362495663  1.0000
  N   N1        1.0  0.6304634411984722  0.8798541944483562  0.3721382115896148  1.0000
  N   N2        1.0  0.8694764189894499  0.1200788888839597  0.8720427924644056  1.0000
  N   N3        1.0  0.3694843718310707  0.12009051992442472  0.627952631503753  1.0000
  N   N4        1.0  0.13049532134643724  0.879847885046331  0.1278491065885277  1.0000
  O   O1        1.0  0.7870105704855562  0.32364570143325017  0.2423176193969994  1.0000
  O   O2        1.0  0.713110938264755  0.6762527715457125  0.7421815357260827  1.0000
  O   O3        1.0  0.21311215650545276  0.6762568322867395  0.7578334603203202  1.0000
  O   O4        1.0  0.2870546555155684  0.32367257833560364  0.2576611805542655  1.0000
  O   O5        1.0  0.017333281003757875  0.6627125191468437  0.2981905475342685  1.0000
  O   O6        1.0  0.4824918668141081  0.3371516274686642  0.798140089973522  1.0000
  O   O7        1.0  0.9825163079160573  0.3371515862531708  0.7018765327616593  1.0000
  O   O8        1.0  0.5173597295186951  0.6627388308928134  0.2018197814154803  1.0000
  O   O9        1.0  0.9467525118092937  0.9539072815264475  0.2809313619199827  1.0000
  O   O10       1.0  0.5530425482782491  0.04590524711907311  0.7808382680042314  1.0000
  O   O11       1.0  0.05307504178526298  0.0459161148134086  0.7191694284456744  1.0000
  O   O12       1.0  0.44670545157910624  0.9538973549942827  0.21906192011858394  1.0000
  O   O13       1.0  0.9804420944527762  0.2951089666417986  0.3997346208055816  1.0000
  O   O14       1.0  0.5199628410951789  0.7052837047018914  0.8995832123512387  1.0000
  O   O15       1.0  0.019987669565665576  0.7053239352521885  0.6004374575720844  1.0000
  O   O16       1.0  0.4804615379115588  0.2951170402808287  0.1002512136331717  1.0000
  O   O17       1.0  0.1827640020787485  0.024260370101771407  0.43802533180642206  1.0000
  O   O18       1.0  0.31730297803445495  0.9759028441748683  0.9380219400931439  1.0000
  O   O19       1.0  0.8173514230131643  0.9759075500442125  0.5619853806941607  1.0000
  O   O20       1.0  0.6827819515578283  0.024242081250186207  0.06197329895676519  1.0000
  O   O21       1.0  0.4627831414295258  0.16861689979324274  0.3634680631177645  1.0000
  O   O22       1.0  0.03734669538694391  0.8312916166555058  0.86347109306611  1.0000
  O   O23       1.0  0.5373666217628497  0.8313174769810843  0.6365282821988743  1.0000
  O   O24       1.0  0.9628006828717659  0.1685753778796695  0.1365169631590106  1.0000
