data_image0
_chemical_formula_structural       Al2H8C20S2Cl2O12
_chemical_formula_sum              "Al2 H8 C20 S2 Cl2 O12"
_cell_length_a       6.6275672360324
_cell_length_b       11.170398156940179
_cell_length_c       12.725163439128393
_cell_angle_alpha    77.61538998341233
_cell_angle_beta     75.21864935683713
_cell_angle_gamma    70.94124744503308

_space_group_name_H-M_alt    "P 1"
_space_group_IT_number       1

loop_
  _space_group_symop_operation_xyz
  'x, y, z'

loop_
  _atom_site_type_symbol
  _atom_site_label
  _atom_site_symmetry_multiplicity
  _atom_site_fract_x
  _atom_site_fract_y
  _atom_site_fract_z
  _atom_site_occupancy
  Al  Al1       1.0  0.4874246826737191  0.49803867202531643  0.498046909127453  1.0000
  Al  Al2       1.0  0.9871439143166467  0.496800128745697  0.5000738072628297  1.0000
  H   H1        1.0  0.23209305867504765  0.4016330574068192  0.6266940603255055  1.0000
  H   H2        1.0  0.6714760450554491  0.6590559097123574  0.4593945672343054  1.0000
  H   H3        1.0  0.270846441103508  0.24144472642814213  0.3697979873551064  1.0000
  H   H4        1.0  0.4660922095571676  0.775457029294259  0.3558398850311022  1.0000
  H   H5        1.0  0.7284893824708473  0.8818018751894738  0.559427631484347  1.0000
  H   H6        1.0  0.6176972698156646  0.11987102842960698  0.549380702199372  1.0000
  H   H7        1.0  0.6226150520194406  0.2239003766426677  0.27726924451897633  1.0000
  H   H8        1.0  0.7979619702624345  0.7946787666798512  0.26499238724807855  1.0000
  C   C1        1.0  0.8591185100838316  0.2751319487834607  0.47972156961238016  1.0000
  C   C2        1.0  0.6555452069465487  0.4769494315676681  0.6975115101257432  1.0000
  C   C3        1.0  0.12252235487463281  0.7272168425785778  0.49593792576071405  1.0000
  C   C4        1.0  0.31939093142496205  0.5106904822089717  0.30274559042197785  1.0000
  C   C5        1.0  0.4314038604367666  0.43143540208171766  0.8933643552803122  1.0000
  C   C6        1.0  0.5464374292013685  0.5502011103599929  0.10750401172247596  1.0000
  C   C7        1.0  0.5883013086559358  0.47890286650306274  0.8165547981307884  1.0000
  C   C8        1.0  0.388444151000968  0.5038125353710895  0.18459813335132946  1.0000
  C   C9        1.0  0.5618513364511202  0.5236132279095003  0.0014971806416568024  1.0000
  C   C10       1.0  0.4161888785474943  0.45698695753254964  0.9998950680613706  1.0000
  C   C11       1.0  0.9370057492458695  0.13589055843183218  0.47203524905332744  1.0000
  C   C12       1.0  0.15560788690477517  0.07293293497090758  0.422980736813834  1.0000
  C   C13       1.0  0.7847802389247888  0.06814515159577886  0.5160702114121282  1.0000
  C   C14       1.0  0.3123624038390319  0.13893970706445194  0.36865037401942413  1.0000
  C   C15       1.0  0.516549577972981  0.07680381305091541  0.314279552081466  1.0000
  C   C16       1.0  0.059301154031920954  0.8693944502145426  0.47837434437317233  1.0000
  C   C17       1.0  0.8462038970705024  0.9350617261156767  0.5206112095160337  1.0000
  C   C18       1.0  0.21544872804492587  0.9369028017936216  0.4232411140035525  1.0000
  C   C19       1.0  0.424001837142704  0.8762648192905259  0.36404864278457444  1.0000
  C   C20       1.0  0.5727307578258946  0.9426848089661984  0.31087823262807057  1.0000
  S   S1        1.0  0.7183689751417713  0.5535489331252849  0.8743324600210233  1.0000
  S   S2        1.0  0.258674306157843  0.4282613113448691  0.12722758887022684  1.0000
  Cl  Cl1       1.0  0.2769098244954974  0.3481357729442962  0.8689715393539645  1.0000
  Cl  Cl2       1.0  0.7014327543166841  0.6341233310450319  0.13014611644047855  1.0000
  O   O1        1.0  0.6668080026418008  0.3347617604608075  0.4633379012765461  1.0000
  O   O2        1.0  0.838076732567906  0.49959402033219646  0.6525972920384717  1.0000
  O   O3        1.0  0.986590573029474  0.6731798707932198  0.4861498628431421  1.0000
  O   O4        1.0  0.4433936890091984  0.5382020018008759  0.3494173245769902  1.0000
  O   O5        1.0  0.3083062003180926  0.6681455241032666  0.5209951844027358  1.0000
  O   O6        1.0  0.13893543578029705  0.48685443544434304  0.3497233484845027  1.0000
  O   O7        1.0  0.9828345689643283  0.3258173856138952  0.5056790713916829  1.0000
  O   O8        1.0  0.5283214458568466  0.45495353373394204  0.6488848465414776  1.0000
  O   O9        1.0  0.2482259025804935  0.4339380249575342  0.5487482099495156  1.0000
  O   O10       1.0  0.7212492121127025  0.5678167065136819  0.4546953167715915  1.0000
  O   O11       1.0  0.6719308374865277  0.1362452040615239  0.2609909335960552  1.0000
  O   O12       1.0  0.7747771192402408  0.8870716624010414  0.25357635849627524  1.0000
