data_image0
_chemical_formula_structural       Cu12H72C96N36
_chemical_formula_sum              "Cu12 H72 C96 N36"
_cell_length_a       32.98610464064176
_cell_length_b       33.96395725666832
_cell_length_c       34.37621552841968
_cell_angle_alpha    92.72289734323627
_cell_angle_beta     92.00604756377523
_cell_angle_gamma    91.21899579344475

_space_group_name_H-M_alt    "P 1"
_space_group_IT_number       1

loop_
  _space_group_symop_operation_xyz
  'x, y, z'

loop_
  _atom_site_type_symbol
  _atom_site_label
  _atom_site_symmetry_multiplicity
  _atom_site_fract_x
  _atom_site_fract_y
  _atom_site_fract_z
  _atom_site_occupancy
  Cu  Cu1       1.0  0.6246696086632327  0.33740961384773976  0.4138063885861456  1.0000
  Cu  Cu2       1.0  0.6656131045249084  0.4120586554039391  0.3773307879624639  1.0000
  Cu  Cu3       1.0  0.5856909588295097  0.3705714889938035  0.3372079802006098  1.0000
  Cu  Cu4       1.0  0.38230810021982364  0.8263262183174331  0.08635616639779899  1.0000
  Cu  Cu5       1.0  0.34384653830499456  0.9057904708621005  0.11728220416789267  1.0000
  Cu  Cu6       1.0  0.423512784424446  0.8750081653694363  0.15957131930585433  1.0000
  Cu  Cu7       1.0  0.12409589846066642  0.15847315477134313  0.5834058476266293  1.0000
  Cu  Cu8       1.0  0.15840836847216624  0.07987016093035486  0.6162262829006763  1.0000
  Cu  Cu9       1.0  0.08253204353169251  0.12047991088979157  0.6553187189481947  1.0000
  Cu  Cu10      1.0  0.8733362070358056  0.6777436037799587  0.9179961239446043  1.0000
  Cu  Cu11      1.0  0.8252035197727281  0.6017094104609055  0.8830821079511608  1.0000
  Cu  Cu12      1.0  0.9043914107758725  0.6319790033432893  0.842365082018908  1.0000
  H   H1        1.0  0.6856685234131348  0.3248904076779197  0.4848153690287802  1.0000
  H   H2        1.0  0.7382581455624477  0.4307178474918698  0.43969157614497323  1.0000
  H   H3        1.0  0.5132384467049248  0.30785467023585505  0.31900018799061763  1.0000
  H   H4        1.0  0.5627440622520723  0.26733484275440117  0.4281381748374002  1.0000
  H   H5        1.0  0.6821612983889693  0.4785843231346475  0.31731143218589614  1.0000
  H   H6        1.0  0.5691281784904093  0.4272491845807876  0.26838201648516957  1.0000
  H   H7        1.0  0.31588125554397817  0.7980720668578909  0.0207941202922655  1.0000
  H   H8        1.0  0.2713292954372121  0.9133151770621665  0.05491632037050919  1.0000
  H   H9        1.0  0.4973994750576198  0.8198809957148112  0.17906539545180783  1.0000
  H   H10       1.0  0.4446777079086104  0.7573965132954681  0.07597692828842642  1.0000
  H   H11       1.0  0.3238183751461392  0.978070044441324  0.17444282646391676  1.0000
  H   H12       1.0  0.4369070321210203  0.9412229543654573  0.22782253422134596  1.0000
  H   H13       1.0  0.18638896001641572  0.17408541611037975  0.5173064664980911  1.0000
  H   H14       1.0  0.22916195160186706  0.06268394788236259  0.5573919712145353  1.0000
  H   H15       1.0  0.016160372450102  0.18476271511079992  0.6742541492114354  1.0000
  H   H16       1.0  0.0672288654121331  0.23112795386870025  0.5708859194380054  1.0000
  H   H17       1.0  0.1724784844507781  0.009850071583109394  0.6726622999863849  1.0000
  H   H18       1.0  0.06414234356377342  0.059987228322526676  0.7204902310750185  1.0000
  H   H19       1.0  0.8159203602335411  0.7039464038162535  0.9864117531315129  1.0000
  H   H20       1.0  0.757708376504489  0.5930715738905972  0.9463566905004371  1.0000
  H   H21       1.0  0.9782238145966176  0.6882426437692003  0.8221386979039239  1.0000
  H   H22       1.0  0.9406013109373746  0.7456254934677273  0.929860606407594  1.0000
  H   H23       1.0  0.7945483709507785  0.534325793660166  0.8210884334778256  1.0000
  H   H24       1.0  0.9098019392232715  0.5667412031700889  0.7734335746132147  1.0000
  H   H25       1.0  0.23701071696191892  0.9079178698875265  0.9851969303701082  1.0000
  H   H26       1.0  0.18185034190812394  0.8412936872911769  0.9444787018942333  1.0000
  H   H27       1.0  0.238856802061278  0.8173373463294167  0.9864739950176826  1.0000
  H   H28       1.0  0.19461095538775913  0.9296508989443306  0.9300785946465239  1.0000
  H   H29       1.0  0.7554857076434943  0.31847824118337786  0.5171195271805971  1.0000
  H   H30       1.0  0.8182454130693699  0.32009059210855634  0.5579351613054443  1.0000
  H   H31       1.0  0.7747201735776342  0.4068301430940834  0.5107698790518427  1.0000
  H   H32       1.0  0.7969473945242241  0.40561978852859665  0.5811486382692479  1.0000
  H   H33       1.0  0.7315736533173266  0.5955593990871078  0.0189016099254786  1.0000
  H   H34       1.0  0.6843699744435128  0.6627863604637694  0.06113755098282779  1.0000
  H   H35       1.0  0.7396503935257286  0.6861174342907146  0.020029105983354605  1.0000
  H   H36       1.0  0.692042037518384  0.5741352196927139  0.0751028208923259  1.0000
  H   H37       1.0  0.2549627195201936  0.17894583999262176  0.48694036495071213  1.0000
  H   H38       1.0  0.3150890251016989  0.17719635704855108  0.44676977207608803  1.0000
  H   H39       1.0  0.2677803002587709  0.08984516873436375  0.4912396784772921  1.0000
  H   H40       1.0  0.2889785401696657  0.09127213050337694  0.42444628682678603  1.0000
  H   H41       1.0  0.012510741345117503  0.7757116664793169  0.9323908605017195  1.0000
  H   H42       1.0  0.07387944914644612  0.8172623413339719  0.9266862870535418  1.0000
  H   H43       1.0  0.019875393058910604  0.7602604890041104  0.8441215615389837  1.0000
  H   H44       1.0  0.0415686156814701  0.8295055208644438  0.8431454518669453  1.0000
  H   H45       1.0  0.47873213578660073  0.23818353156593008  0.31295106867137423  1.0000
  H   H46       1.0  0.43904832107619995  0.17592113651254238  0.3157697484215801  1.0000
  H   H47       1.0  0.4915246489039689  0.22797717683669555  0.4008465670235779  1.0000
  H   H48       1.0  0.42068264485151025  0.2050794655026066  0.3993296378938139  1.0000
  H   H49       1.0  0.9913231714034791  0.2571557308199174  0.6847222260602236  1.0000
  H   H50       1.0  0.9554226310826691  0.3205585536078458  0.6835722544377701  1.0000
  H   H51       1.0  0.997636564676412  0.2698281944095695  0.5972192098693013  1.0000
  H   H52       1.0  0.9265768873105104  0.29166810743181043  0.6007614576997112  1.0000
  H   H53       1.0  0.5155769932412183  0.7279333561850619  0.07147603568517978  1.0000
  H   H54       1.0  0.5761309365523745  0.6869299795919799  0.07670502204130258  1.0000
  H   H55       1.0  0.5335250903557309  0.7468863977854807  0.15878349965642968  1.0000
  H   H56       1.0  0.5519430838477888  0.6777241968463342  0.16153317512736007  1.0000
  H   H57       1.0  0.0553166642128602  0.9902486520025843  0.7484197171016403  1.0000
  H   H58       1.0  0.05942287809848781  0.9322685860869765  0.7900042975290162  1.0000
  H   H59       1.0  0.14687858446497162  0.977262201239625  0.7427207263503134  1.0000
  H   H60       1.0  0.144842344567671  0.9660873893995254  0.8124426549378468  1.0000
  H   H61       1.0  0.6879493042058372  0.5049394087196217  0.24677212838904683  1.0000
  H   H62       1.0  0.6820888066002269  0.5411305842882539  0.185795977591404  1.0000
  H   H63       1.0  0.5954817218721117  0.4963860214661578  0.23385078402397136  1.0000
  H   H64       1.0  0.5991590479087777  0.565945421583187  0.21593003103837557  1.0000
  H   H65       1.0  0.4389370412996314  0.013012140395431991  0.25900995097342866  1.0000
  H   H66       1.0  0.4303694954712611  0.07463684522601707  0.29907412765941643  1.0000
  H   H67       1.0  0.3467557122658463  0.01885645977326789  0.24515764703887294  1.0000
  H   H68       1.0  0.34563217568735644  0.03993939566665718  0.3139805593448557  1.0000
  H   H69       1.0  0.9042849694035128  0.49280498879731016  0.7440567185376069  1.0000
  H   H70       1.0  0.8337225180135662  0.4540130049038991  0.6917141366520098  1.0000
  H   H71       1.0  0.8112607428725127  0.49825953450595495  0.7458695688211207  1.0000
  H   H72       1.0  0.9239120037076348  0.43353828158843283  0.703236531589141  1.0000
  C   C1        1.0  0.6938553285063734  0.3503153668714844  0.46854903578537943  1.0000
  C   C2        1.0  0.7259375511010334  0.37806490334441617  0.4755675464740887  1.0000
  C   C3        1.0  0.7203144418972585  0.40471486061357337  0.44580613146921877  1.0000
  C   C4        1.0  0.5305787263434781  0.302594238093313  0.345584445797698  1.0000
  C   C5        1.0  0.5246195091987501  0.2737363476912761  0.3731036717551389  1.0000
  C   C6        1.0  0.555596828352634  0.28231554340435133  0.4016296784199724  1.0000
  C   C7        1.0  0.654843382061948  0.4610657406790607  0.3098657759937922  1.0000
  C   C8        1.0  0.62576320426831  0.4650786902233434  0.27938732642910213  1.0000
  C   C9        1.0  0.5967376249695704  0.43520882761762875  0.28530801798238054  1.0000
  C   C10       1.0  0.3101584158247732  0.8269864543775325  0.03402072575049429  1.0000
  C   C11       1.0  0.2794700214414405  0.8535231434940369  0.024820380686321593  1.0000
  C   C12       1.0  0.2878504575955105  0.8862206543489105  0.050843788004321794  1.0000
  C   C13       1.0  0.4794046892048485  0.8092599528598964  0.15350791850613626  1.0000
  C   C14       1.0  0.48527154864703453  0.776236643675517  0.12818309845020076  1.0000
  C   C15       1.0  0.4528918371225217  0.7776676767798703  0.1004760880653564  1.0000
  C   C16       1.0  0.3518161451940216  0.9639019324198586  0.18272169405103258  1.0000
  C   C17       1.0  0.37967211112976423  0.973960163153023  0.21373267055378883  1.0000
  C   C18       1.0  0.40991224470634796  0.9455090314059617  0.20969266947709286  1.0000
  C   C19       1.0  0.192249460416015  0.14714211557129173  0.5320741010003045  1.0000
  C   C20       1.0  0.22175515901125922  0.11851787908793902  0.5249790326559632  1.0000
  C   C21       1.0  0.2137024395126019  0.08995469600455405  0.5522345649672926  1.0000
  C   C22       1.0  0.03360390172254309  0.19126706731064755  0.649058449216504  1.0000
  C   C23       1.0  0.029544469651703802  0.22220138765179334  0.623405993818082  1.0000
  C   C24       1.0  0.0592887905283277  0.21453147501480163  0.5958626008630573  1.0000
  C   C25       1.0  0.1460434338000098  0.02694868798705129  0.6796945963360416  1.0000
  C   C26       1.0  0.11779962525942271  0.02148248119393509  0.7088245531937787  1.0000
  C   C27       1.0  0.09030489519923891  0.052149142516263666  0.7037324154765016  1.0000
  C   C28       1.0  0.8063357602443091  0.6761894988509809  0.9716104981891506  1.0000
  C   C29       1.0  0.774176498138445  0.6503715064994111  0.9798511095663046  1.0000
  C   C30       1.0  0.7771205631296924  0.6190994115778279  0.9517325840628956  1.0000
  C   C31       1.0  0.9637932761035657  0.6975770423016594  0.8488367841219074  1.0000
  C   C32       1.0  0.9740490242569708  0.7294389201641776  0.8752817277056265  1.0000
  C   C33       1.0  0.9450021047550052  0.726584567416239  0.9041742849638653  1.0000
  C   C34       1.0  0.8236656069222903  0.547315036999336  0.8143333469526864  1.0000
  C   C35       1.0  0.849610769085608  0.5369119780615819  0.7840694538717656  1.0000
  C   C36       1.0  0.8829948492136241  0.5632442163502843  0.7904833995445274  1.0000
  C   C37       1.0  0.14887762228364923  0.8948615622746201  0.8969555746900325  1.0000
  C   C38       1.0  0.11895941272510412  0.9171898315798469  0.8416500620367485  1.0000
  C   C39       1.0  0.09344623629507251  0.8623992656991387  0.8688428198962085  1.0000
  C   C40       1.0  0.8479029142932646  0.375936488318487  0.6073405890736225  1.0000
  C   C41       1.0  0.9040751839136193  0.3446353441918574  0.6294165240227655  1.0000
  C   C42       1.0  0.8852330382896696  0.402203476641027  0.6596471240856018  1.0000
  C   C43       1.0  0.6511733035524898  0.6101243388497435  0.10832518421951678  1.0000
  C   C44       1.0  0.6246222447592019  0.5896949529968721  0.1644817118967978  1.0000
  C   C45       1.0  0.5996704145092266  0.6438082229823364  0.13583228639465966  1.0000
  C   C46       1.0  0.3387114993211498  0.12059544281992628  0.3974231148282357  1.0000
  C   C47       1.0  0.3690076081759486  0.09338751505574545  0.3442131753368685  1.0000
  C   C48       1.0  0.392791347686746  0.1519877467871495  0.3720121438753381  1.0000
  C   C49       1.0  0.24714023401610777  0.8478628531895394  0.9955576585513909  1.0000
  C   C50       1.0  0.2272806796522602  0.8773111834038256  0.9781307911776977  1.0000
  C   C51       1.0  0.19490839384133105  0.8710774279349277  0.9494373964736909  1.0000
  C   C52       1.0  0.18066872323433364  0.9001457369608941  0.9273139857511197  1.0000
  C   C53       1.0  0.7579180426041249  0.37887173958398507  0.5053551560822739  1.0000
  C   C54       1.0  0.7696680170316129  0.34723829068088446  0.5253286665040661  1.0000
  C   C55       1.0  0.8018467407796948  0.3475014540696647  0.5548514589956427  1.0000
  C   C56       1.0  0.8136071397065622  0.3781910001076766  0.5796584981686692  1.0000
  C   C57       1.0  0.7450063737755032  0.6556861753466733  0.009913007861250402  1.0000
  C   C58       1.0  0.724628935402194  0.626228931953875  0.026826445188689298  1.0000
  C   C59       1.0  0.6950154590098521  0.6327650821838372  0.05588745362876319  1.0000
  C   C60       1.0  0.6803682687315914  0.6039604576435023  0.07788337330885038  1.0000
  C   C61       1.0  0.2532676893126578  0.11810810973577897  0.4969439739390751  1.0000
  C   C62       1.0  0.2669167429656198  0.15008260839231716  0.47855085537391057  1.0000
  C   C63       1.0  0.29781761345520863  0.14974457412446177  0.44989496665998974  1.0000
  C   C64       1.0  0.3068133713505148  0.11878088615068086  0.4255660192629875  1.0000
  C   C65       1.0  0.006802953562541306  0.7579355935488008  0.8727668754626025  1.0000
  C   C66       1.0  0.023017814665109902  0.7807640977538026  0.9031548512820889  1.0000
  C   C67       1.0  0.054624279184757506  0.8104747445332092  0.9005716230203688  1.0000
  C   C68       1.0  0.061621135927787014  0.8319557942312341  0.8691280732752632  1.0000
  C   C69       1.0  0.4949426745205798  0.24192891179910694  0.37305925686987246  1.0000
  C   C70       1.0  0.47281966624767346  0.2268917885901444  0.34154440126949476  1.0000
  C   C71       1.0  0.4436285238056215  0.19468949302042654  0.3423801127479393  1.0000
  C   C72       1.0  0.4207801350595021  0.18587517936468595  0.3729569141022607  1.0000
  C   C73       1.0  0.002235483680266301  0.2548374099462122  0.6244612253665592  1.0000
  C   C74       1.0  0.9836690167897899  0.2693129851644683  0.6565502036260042  1.0000
  C   C75       1.0  0.9561970472430446  0.3018229520968063  0.6568413471589593  1.0000
  C   C76       1.0  0.9305008912905492  0.31082300566541216  0.6270911788710337  1.0000
  C   C77       1.0  0.5172649224576488  0.7480226470931368  0.1305748501858446  1.0000
  C   C78       1.0  0.5291941223461407  0.7241089272661511  0.10050052580233879  1.0000
  C   C79       1.0  0.5599403629009104  0.6946302408060773  0.10314079801734978  1.0000
  C   C80       1.0  0.5692636418329755  0.6743174730758948  0.1351514213895513  1.0000
  C   C81       1.0  0.11793192991387971  0.9915302763415847  0.7372379729890567  1.0000
  C   C82       1.0  0.08518255609956783  0.9791742126623788  0.7566086868281517  1.0000
  C   C83       1.0  0.0864936861043759  0.9507576993661498  0.7865429031512006  1.0000
  C   C84       1.0  0.11837751969019912  0.946170745201364  0.811761288119463  1.0000
  C   C85       1.0  0.6250014273109628  0.49240871468661124  0.24850787829480236  1.0000
  C   C86       1.0  0.6577383702864665  0.5117564236825841  0.23513133069353387  1.0000
  C   C87       1.0  0.6558887143556403  0.539146418502085  0.20431716308782913  1.0000
  C   C88       1.0  0.6247269174858802  0.5633679532486935  0.19673040450377502  1.0000
  C   C89       1.0  0.37681688439116817  0.006234192309690898  0.24227697150115554  1.0000
  C   C90       1.0  0.408156894911869  0.022848254479740097  0.26437255496888673  1.0000
  C   C91       1.0  0.4042696763477096  0.054497949904153076  0.2934676754036616  1.0000
  C   C92       1.0  0.3713825888181575  0.06073985409391008  0.31533524902904725  1.0000
  C   C93       1.0  0.842890348994331  0.5064235915974533  0.7536686306611244  1.0000
  C   C94       1.0  0.8725282356753469  0.48683231264178756  0.7348991752743927  1.0000
  C   C95       1.0  0.8646627427170588  0.4573704726821146  0.7041556600853979  1.0000
  C   C96       1.0  0.8931918554458919  0.4327836080045912  0.6902478617520629  1.0000
  N   N1        1.0  0.6878551289347856  0.39342136968431857  0.4227670569389517  1.0000
  N   N2        1.0  0.6712944724624564  0.3597571310029294  0.43713713003066346  1.0000
  N   N3        1.0  0.5782814754800826  0.3134091341936979  0.3916754386077343  1.0000
  N   N4        1.0  0.5625646061504952  0.32615936287125885  0.35696744077927167  1.0000
  N   N5        1.0  0.6079074332465666  0.4148400002075262  0.316426422228929  1.0000
  N   N6        1.0  0.6438840276335753  0.43113946415005683  0.3318916056327978  1.0000
  N   N7        1.0  0.32078780195131884  0.8794495863833871  0.07356965256506239  1.0000
  N   N8        1.0  0.33493685996175065  0.8428199143741109  0.06285178463036091  1.0000
  N   N9        1.0  0.4299350300641295  0.8090534880125586  0.10871323969909238  1.0000
  N   N10       1.0  0.44655737083365926  0.8289041406537547  0.14153005405117366  1.0000
  N   N11       1.0  0.40066507287880887  0.9207837602818072  0.1787282681074345  1.0000
  N   N12       1.0  0.36470221179697404  0.9324008275627588  0.1617641514751753  1.0000
  N   N13       1.0  0.18230442641531397  0.10095232322382226  0.5739490097300433  1.0000
  N   N14       1.0  0.16885178719097385  0.13638371511843414  0.5612062095442454  1.0000
  N   N15       1.0  0.07962805626491591  0.1820006451676121  0.604703906672441  1.0000
  N   N16       1.0  0.06342584705927831  0.16735484835655254  0.6375989969270534  1.0000
  N   N17       1.0  0.10139041623386899  0.07389929597987076  0.6739775329305003  1.0000
  N   N18       1.0  0.13587642423824062  0.05803999054401739  0.6588040195220374  1.0000
  N   N19       1.0  0.808452874299512  0.6260039313661208  0.9287199583087898  1.0000
  N   N20       1.0  0.826910925333216  0.6612525934789202  0.9413597428000454  1.0000
  N   N21       1.0  0.9197819514708813  0.6955112114869235  0.8955036285199399  1.0000
  N   N22       1.0  0.9316239668704541  0.6772582519547181  0.8612602612299511  1.0000
  N   N23       1.0  0.8771739143666438  0.5872605777975648  0.8219963755825361  1.0000
  N   N24       1.0  0.8405419946823258  0.5770479573938159  0.8371283223639453  1.0000
  N   N25       1.0  0.14824184680038852  0.9225244031164122  0.8699182186919642  1.0000
  N   N26       1.0  0.0906030038441159  0.887815527919997  0.8399129062541703  1.0000
  N   N27       1.0  0.12270480269026512  0.8639273088446371  0.8974321604681207  1.0000
  N   N28       1.0  0.8730521350917899  0.3451757878539253  0.6030030817007415  1.0000
  N   N29       1.0  0.9121813894910957  0.3730160637912546  0.6577071023616909  1.0000
  N   N30       1.0  0.8522563920193278  0.40494630413026284  0.6354256957196539  1.0000
  N   N31       1.0  0.6510575575581968  0.5831862042440789  0.135907311026898  1.0000
  N   N32       1.0  0.5977923469255799  0.6191605252150223  0.165539087496704  1.0000
  N   N33       1.0  0.6265156553707598  0.6412784029479751  0.10713569135776879  1.0000
  N   N34       1.0  0.33936730090162837  0.09056952593161327  0.3702406945676842  1.0000
  N   N35       1.0  0.3961554730744084  0.12350782994890606  0.34365217231119516  1.0000
  N   N36       1.0  0.3650274280598893  0.15174177579716286  0.39986333596048235  1.0000
