data_image0
_chemical_formula_structural       Ca2H24C26N10Cl2O6
_chemical_formula_sum              "Ca2 H24 C26 N10 Cl2 O6"
_cell_length_a       7.959766747769203
_cell_length_b       8.695960775705522
_cell_length_c       11.23588755598353
_cell_angle_alpha    95.73376194908981
_cell_angle_beta     94.15485826009683
_cell_angle_gamma    106.00059539230543

_space_group_name_H-M_alt    "P 1"
_space_group_IT_number       1

loop_
  _space_group_symop_operation_xyz
  'x, y, z'

loop_
  _atom_site_type_symbol
  _atom_site_label
  _atom_site_symmetry_multiplicity
  _atom_site_fract_x
  _atom_site_fract_y
  _atom_site_fract_z
  _atom_site_occupancy
  Ca  Ca1       1.0  0.4773002557520912  0.8568834447625734  0.24372162198966407  1.0000
  Ca  Ca2       1.0  0.5226979250667085  0.14311985786610396  0.7562781751082213  1.0000
  H   H1        1.0  0.5885970505131012  0.18558444627304743  0.347220818788152  1.0000
  H   H2        1.0  0.41140295769837104  0.814416492533255  0.6527806739016241  1.0000
  H   H3        1.0  0.6698036122660296  0.12479554352182023  0.46271679999405524  1.0000
  H   H4        1.0  0.33019512989601185  0.8752053739844071  0.5372846255398969  1.0000
  H   H5        1.0  0.8342771985246598  0.8741743486934441  0.1827817628765942  1.0000
  H   H6        1.0  0.16571893417714986  0.12581333822307533  0.8172220855686305  1.0000
  H   H7        1.0  0.7211826623493707  0.8228078887467022  0.05451883819375069  1.0000
  H   H8        1.0  0.27881896421114755  0.17719427693749176  0.9454828311954131  1.0000
  H   H9        1.0  0.26813998063082073  0.9051952060991229  0.9882676801250341  1.0000
  H   H10       1.0  0.7318622077543535  0.0948045531636268  0.011727606046910895  1.0000
  H   H11       1.0  0.07912294993920452  0.766666947563131  0.8006605889299151  1.0000
  H   H12       1.0  0.9208861300363791  0.23333053307754884  0.19933666145719536  1.0000
  H   H13       1.0  0.995181891872967  0.457659391947047  0.7641619361782404  1.0000
  H   H14       1.0  0.00483007260807972  0.5423393321384893  0.23583377769668348  1.0000
  H   H15       1.0  0.11451316299148571  0.3165689997193582  0.9135564253713966  1.0000
  H   H16       1.0  0.8854966216903006  0.683430887343846  0.08643926373546407  1.0000
  H   H17       1.0  0.7191600825643434  0.3837400713568331  0.4617715822171178  1.0000
  H   H18       1.0  0.28082564653627873  0.6162594394035991  0.538233513133555  1.0000
  H   H19       1.0  0.925587396318356  0.5623442332521408  0.6236156271416959  1.0000
  H   H20       1.0  0.074397980482658  0.4376540719304671  0.3763893586653992  1.0000
  H   H21       1.0  0.9650612988962023  0.8651515041451888  0.6369912318649824  1.0000
  H   H22       1.0  0.03493709085924481  0.13484821251632445  0.3630118644927904  1.0000
  H   H23       1.0  0.7945297712346573  0.9640356252125601  0.4868169476575233  1.0000
  H   H24       1.0  0.20547094152254175  0.03596772711593131  0.5131856543031006  1.0000
  C   C1        1.0  0.23488596920680752  0.7748933628400039  0.966698882245602  1.0000
  C   C2        1.0  0.7651188944262372  0.22511124003410296  0.03329690925646389  1.0000
  C   C3        1.0  0.12733575572584507  0.695909521506856  0.8623650325766122  1.0000
  C   C4        1.0  0.8726693168973296  0.3040914930335249  0.137633168001642  1.0000
  C   C5        1.0  0.0835595878543601  0.5285255056446875  0.8413920281128071  1.0000
  C   C6        1.0  0.9164509013731457  0.4714767949407062  0.15860477026490827  1.0000
  C   C7        1.0  0.15270130715670396  0.44719809646386477  0.9239474920491233  1.0000
  C   C8        1.0  0.8473084775250753  0.5528017905993394  0.07604819705773737  1.0000
  C   C9        1.0  0.26548021032368035  0.5348176534474832  0.023587774252568694  1.0000
  C   C10       1.0  0.7345306312034338  0.46518585271573454  0.9764091336687173  1.0000
  C   C11       1.0  0.3490193380033659  0.4536323721113221  0.1112123228755735  1.0000
  C   C12       1.0  0.6509828502213324  0.5463673942510925  0.8887856338474618  1.0000
  C   C13       1.0  0.4084708683285995  0.22416792254951198  0.1705106012908715  1.0000
  C   C14       1.0  0.5915275216943028  0.7758317822792338  0.8294880441484053  1.0000
  C   C15       1.0  0.5253377626279061  0.4748584903717514  0.2842459588776833  1.0000
  C   C16       1.0  0.47466168413335197  0.5251448382901105  0.7157556857434173  1.0000
  C   C17       1.0  0.6457950544717546  0.5786744469738139  0.38636802839946677  1.0000
  C   C18       1.0  0.3542004510456849  0.42132401441007533  0.6136321535519967  1.0000
  C   C19       1.0  0.7371901379067933  0.5126907594751984  0.46856491121953775  1.0000
  C   C20       1.0  0.2628022740615563  0.4873100491640941  0.5314352883516094  1.0000
  C   C21       1.0  0.8533920730180071  0.6142946728398118  0.560725345010006  1.0000
  C   C22       1.0  0.146596397439076  0.385701280354276  0.4392778428100002  1.0000
  C   C23       1.0  0.8746578365440809  0.7789278999756846  0.568011416004758  1.0000
  C   C24       1.0  0.1253398485586601  0.22106940789675633  0.43199235144956555  1.0000
  C   C25       1.0  0.7784397650706582  0.8353238629202906  0.4823769572482917  1.0000
  C   C26       1.0  0.2215544743438613  0.16467457953007175  0.5176240477310472  1.0000
  N   N1        1.0  0.3039230606701792  0.6972692049408452  0.045810387966959375  1.0000
  N   N2        1.0  0.6960852488115562  0.30273425625566125  0.9541854954589937  1.0000
  N   N3        1.0  0.44451887065668666  0.5497641183608623  0.20859099162853306  1.0000
  N   N4        1.0  0.5554789578625117  0.450237978689998  0.7914086959257745  1.0000
  N   N5        1.0  0.3287053798228853  0.2958099403272669  0.08688789325134388  1.0000
  N   N6        1.0  0.6712973699055238  0.7041874338130328  0.9131090213566678  1.0000
  N   N7        1.0  0.5088671873655031  0.3177564312634758  0.2712627669949157  1.0000
  N   N8        1.0  0.49113352560566165  0.6822469115988028  0.7287362742309114  1.0000
  N   N9        1.0  0.6654563334525957  0.7392354579816001  0.39326262419100283  1.0000
  N   N10       1.0  0.3345440271654707  0.26076668166940925  0.6067371976749456  1.0000
  Cl  Cl1       1.0  0.18546343434726256  0.7915808176189504  0.35808723440266726  1.0000
  Cl  Cl2       1.0  0.8145315759355397  0.20841162770970106  0.6419089062519348  1.0000
  O   O1        1.0  0.39350821366756605  0.0756224035068485  0.15346348983640468  1.0000
  O   O2        1.0  0.6064896146911566  0.9243797006436767  0.8465388682690005  1.0000
  O   O3        1.0  0.6251636699474901  0.09293884831622991  0.37684226857174247  1.0000
  O   O4        1.0  0.37483000785633175  0.9070619910893641  0.6231615588900253  1.0000
  O   O5        1.0  0.7331934336174797  0.888406820968257  0.1359890440484648  1.0000
  O   O6        1.0  0.2668064312845145  0.11158932392651622  0.8640147481739149  1.0000
