data_image0
_chemical_formula_structural       Zn2H22C30I2N8O8
_chemical_formula_sum              "Zn2 H22 C30 I2 N8 O8"
_cell_length_a       9.405790337812766
_cell_length_b       10.202710269519269
_cell_length_c       11.117064971724796
_cell_angle_alpha    75.89422098854673
_cell_angle_beta     67.37218027515698
_cell_angle_gamma    76.12801278895988

_space_group_name_H-M_alt    "P 1"
_space_group_IT_number       1

loop_
  _space_group_symop_operation_xyz
  'x, y, z'

loop_
  _atom_site_type_symbol
  _atom_site_label
  _atom_site_symmetry_multiplicity
  _atom_site_fract_x
  _atom_site_fract_y
  _atom_site_fract_z
  _atom_site_occupancy
  Zn  Zn1       1.0  0.933180561452559  0.9599649428233267  0.7096178285220345  1.0000
  Zn  Zn2       1.0  0.06681110541834559  0.04003839816860483  0.29038335157977707  1.0000
  H   H1        1.0  0.6053334669408486  0.8475885605978988  0.8275096477420049  1.0000
  H   H2        1.0  0.3946627355637986  0.15241551723319452  0.17249349214172574  1.0000
  H   H3        1.0  0.7827894874381512  0.1372672407647002  0.5062059840682379  1.0000
  H   H4        1.0  0.21720792592680732  0.8627360580301513  0.4937914966096241  1.0000
  H   H5        1.0  0.49882719675660075  0.16826278771357292  0.5228955605736301  1.0000
  H   H6        1.0  0.5011713186637152  0.8317333952751158  0.47710197868161675  1.0000
  H   H7        1.0  0.1956489142942601  0.8623228515846646  0.05176678060322359  1.0000
  H   H8        1.0  0.8043490316157288  0.13767724305735382  0.9482338211096673  1.0000
  H   H9        1.0  0.10408956590188007  0.26944616026131746  0.06713677621770127  1.0000
  H   H10       1.0  0.8959128102295676  0.7305549416326971  0.9328603673988524  1.0000
  H   H11       1.0  0.2100787544709277  0.2680116495791084  0.8111446957388465  1.0000
  H   H12       1.0  0.7899264317207226  0.7319862853658138  0.18885300556750906  1.0000
  H   H13       1.0  0.30842818577486497  0.8647397867720206  0.7806629457358621  1.0000
  H   H14       1.0  0.6915717688990456  0.13525503128595773  0.21934067304974988  1.0000
  H   H15       1.0  0.25682812094986923  0.01954445605281313  0.6830662983727432  1.0000
  H   H16       1.0  0.7431696283115982  0.9804495271633158  0.3169355062248442  1.0000
  H   H17       1.0  0.9189012741025023  0.4465876738731468  0.7460340263120527  1.0000
  H   H18       1.0  0.08110223922174237  0.5534062220770936  0.2539649818413067  1.0000
  H   H19       1.0  0.2683333840977014  0.2407508469588393  0.4381634044814076  1.0000
  H   H20       1.0  0.7316732974463419  0.7592521950316995  0.5618319496329389  1.0000
  H   H21       1.0  0.3039517600941863  0.6451827543746165  0.46893084406134006  1.0000
  H   H22       1.0  0.696045776251772  0.3548202289385999  0.5310729574744996  1.0000
  C   C1        1.0  0.6045431177766999  0.930264402828904  0.7449637527488446  1.0000
  C   C2        1.0  0.395455717273137  0.06973757610403915  0.2550389044796758  1.0000
  C   C3        1.0  0.48236104646414196  0.9956720058134253  0.6970439243457629  1.0000
  C   C4        1.0  0.5176359030658447  0.004327092313388913  0.30295719342533517  1.0000
  C   C5        1.0  0.5482216716308982  0.09375285699458402  0.5902925519102238  1.0000
  C   C6        1.0  0.45177574016926764  0.9062432172546269  0.40970807497706097  1.0000
  C   C7        1.0  0.18725808351237563  0.9708117590502214  0.010743554804932385  1.0000
  C   C8        1.0  0.812742175050211  0.029188282657919718  0.9892562895221527  1.0000
  C   C9        1.0  0.23180373941872284  0.03819730698452163  0.8788010501455613  1.0000
  C   C10       1.0  0.7681956651414409  0.9618007602950911  0.12119854462531504  1.0000
  C   C11       1.0  0.1949562661157245  0.1775742563460413  0.8872793004849195  1.0000
  C   C12       1.0  0.805045256013308  0.8224248711194447  0.11271759357542528  1.0000
  C   C13       1.0  0.31498799383505366  0.9747569144172421  0.7560125083836126  1.0000
  C   C14       1.0  0.6850094531025378  0.025239069694357914  0.24398992446308645  1.0000
  C   C15       1.0  0.10574653982411768  0.557777252827222  0.6176037499934138  1.0000
  C   C16       1.0  0.8942545727408843  0.4422247633094615  0.382396343889873  1.0000
  C   C17       1.0  0.02742594150098649  0.44531465028604356  0.6617803805650764  1.0000
  C   C18       1.0  0.9725772870680841  0.5546812014908726  0.33822015881710116  1.0000
  C   C19       1.0  0.08529801087182416  0.3319042220611054  0.5977375390312429  1.0000
  C   C20       1.0  0.9147070505109552  0.6680946457283455  0.40226183086923556  1.0000
  C   C21       1.0  0.22453746933052798  0.3292769697823489  0.4883714893513653  1.0000
  C   C22       1.0  0.7754680734559328  0.6707260536063232  0.5116251464355911  1.0000
  C   C23       1.0  0.300882568021791  0.4428283024429049  0.4439749648565224  1.0000
  C   C24       1.0  0.6991191507557559  0.5571769364484638  0.5560207263191259  1.0000
  C   C25       1.0  0.24331718759555082  0.5574313451868562  0.5067098966531417  1.0000
  C   C26       1.0  0.7566824487505598  0.4425727433810423  0.49329030119245204  1.0000
  C   C27       1.0  0.033069683422112896  0.6761764248725443  0.6911211845878424  1.0000
  C   C28       1.0  0.9669296841727544  0.323822349907573  0.3088845936756994  1.0000
  C   C29       1.0  0.9939082979302895  0.21564302999377824  0.6489029776364744  1.0000
  C   C30       1.0  0.006097225722662383  0.7843528139180622  0.35109590138018365  1.0000
  I   I1        1.0  0.5058626426459795  0.4439173176809776  0.2746884989397599  1.0000
  I   I2        1.0  0.4941416365740281  0.5560866199503566  0.7253110871139368  1.0000
  N   N1        1.0  0.7347078940830799  0.9850150975402985  0.6722171548005417  1.0000
  N   N2        1.0  0.2652884332304382  0.014988047446273411  0.3277843164890725  1.0000
  N   N3        1.0  0.6979069299583499  0.08470775090105322  0.5794368796739915  1.0000
  N   N4        1.0  0.3020908208679174  0.9152934568607167  0.42056177871418016  1.0000
  N   N5        1.0  0.1273880052644358  0.06296755542381761  0.09337737086264035  1.0000
  N   N6        1.0  0.8726142460581484  0.9370344793147257  0.9066214413480362  1.0000
  N   N7        1.0  0.13213384348536286  0.1878865114334474  0.016548196083519394  1.0000
  N   N8        1.0  0.8678710228136949  0.8121134694757471  0.9834492304922403  1.0000
  O   O1        1.0  0.07946429986770906  0.7936289214063168  0.6351260731363976  1.0000
  O   O2        1.0  0.9205241633828863  0.2063732055914613  0.3648817982876834  1.0000
  O   O3        1.0  0.9281018541416515  0.6572118733710612  0.8022931718243455  1.0000
  O   O4        1.0  0.0719029209211683  0.3427817256994174  0.19771087551436037  1.0000
  O   O5        1.0  0.0658026823320057  0.10101983824124264  0.6055284361413554  1.0000
  O   O6        1.0  0.934204958889815  0.8989770658564709  0.3944677421647709  1.0000
  O   O7        1.0  0.857854545954531  0.23145327731604948  0.729799419074126  1.0000
  O   O8        1.0  0.1421457495733519  0.7685460568915945  0.2701942417602864  1.0000
