data_image0
_chemical_formula_structural       Zn2P2H8C12N2O10
_chemical_formula_sum              "Zn2 P2 H8 C12 N2 O10"
_cell_length_a       5.069075534067355
_cell_length_b       8.445867912165705
_cell_length_c       9.686274352312148
_cell_angle_alpha    89.99916556167881
_cell_angle_beta     90.00038702295595
_cell_angle_gamma    88.56653928980339

_space_group_name_H-M_alt    "P 1"
_space_group_IT_number       1

loop_
  _space_group_symop_operation_xyz
  'x, y, z'

loop_
  _atom_site_type_symbol
  _atom_site_label
  _atom_site_symmetry_multiplicity
  _atom_site_fract_x
  _atom_site_fract_y
  _atom_site_fract_z
  _atom_site_occupancy
  Zn  Zn1       1.0  0.6786457720075774  0.11922125271472345  0.3535987312082511  1.0000
  Zn  Zn2       1.0  0.17864401511696568  0.619218290730757  0.6464048412342366  1.0000
  P   P1        1.0  0.1845134656160283  0.9166575792044044  0.4453235691262734  1.0000
  P   P2        1.0  0.684511979836806  0.41665614431424564  0.5546772430024163  1.0000
  H   H1        1.0  0.7590743665816433  0.6859900232580644  0.4305030359774236  1.0000
  H   H2        1.0  0.2590660510740577  0.18599372229709127  0.5694865461697276  1.0000
  H   H3        1.0  0.3699867779252344  0.8497714953242336  0.15606657097410453  1.0000
  H   H4        1.0  0.8699712576851298  0.34975976039053347  0.8439336956116392  1.0000
  H   H5        1.0  0.801560441476525  0.5062992204455837  0.030928548708061495  1.0000
  H   H6        1.0  0.30150861814590973  0.006311704907005799  0.9690727802879948  1.0000
  H   H7        1.0  0.6498288553449855  0.5051729610989001  0.2641190785794407  1.0000
  H   H8        1.0  0.14980326799092583  0.005181484484722898  0.7358775941314164  1.0000
  C   C1        1.0  0.8673007568890727  0.6873717246311344  0.33331724690404496  1.0000
  C   C2        1.0  0.367291957822566  0.18737976386262292  0.6666778654975118  1.0000
  C   C3        1.0  0.07971670771797082  0.7839116397997046  0.3085616399051929  1.0000
  C   C4        1.0  0.5796936401284896  0.28391681069530256  0.6914374031768205  1.0000
  C   C5        1.0  0.19966051762396836  0.7771983377419575  0.1782806396861289  1.0000
  C   C6        1.0  0.6996391715800173  0.27720014397196735  0.8217230469035358  1.0000
  C   C7        1.0  0.09919530241544548  0.6798093469745083  0.0748130264787932  1.0000
  C   C8        1.0  0.5991458277624276  0.17981255321683423  0.9251884532026295  1.0000
  C   C9        1.0  0.886061785748538  0.5857274129575103  0.10556679467551079  1.0000
  C   C10       1.0  0.3860167049519134  0.08573620980406103  0.8944307202153822  1.0000
  C   C11       1.0  0.2192921933288048  0.6751255589921782  0.931951908150957  1.0000
  C   C12       1.0  0.719274135810224  0.17512779406538925  0.0680490276566701  1.0000
  N   N1        1.0  0.7831691791019182  0.589062678680797  0.2336695068458639  1.0000
  N   N2        1.0  0.2831398777401688  0.08906487798467567  0.7663224363792835  1.0000
  O   O1        1.0  0.0335170995836549  0.0740965039426982  0.4231808669578356  1.0000
  O   O2        1.0  0.5335117113827864  0.5740943134351754  0.5768207015796635  1.0000
  O   O3        1.0  0.4816941960055274  0.9380588777139706  0.43014888074551294  1.0000
  O   O4        1.0  0.9816909419373375  0.43805723971046007  0.5698630409443838  1.0000
  O   O5        1.0  0.10594188757609403  0.8390802449788596  0.583338807115183  1.0000
  O   O6        1.0  0.6059566547561063  0.3390924943028963  0.4166544602411832  1.0000
  O   O7        1.0  0.08950961465581031  0.5932763273551345  0.8429571999477901  1.0000
  O   O8        1.0  0.5894653135710543  0.0932837034861222  0.15704948421686277  1.0000
  O   O9        1.0  0.4246819926821956  0.7491017750534041  0.9100816784126097  1.0000
  O   O10       1.0  0.9246517489402065  0.24908265123612233  0.08991800927240941  1.0000
