data_image0
_chemical_formula_structural       Mo4H28C24S4N4O12
_chemical_formula_sum              "Mo4 H28 C24 S4 N4 O12"
_cell_length_a       5.483868140199685
_cell_length_b       8.163953149049412
_cell_length_c       18.187565388440948
_cell_angle_alpha    90.00039290156951
_cell_angle_beta     96.91014088478143
_cell_angle_gamma    90.00002314141751

_space_group_name_H-M_alt    "P 1"
_space_group_IT_number       1

loop_
  _space_group_symop_operation_xyz
  'x, y, z'

loop_
  _atom_site_type_symbol
  _atom_site_label
  _atom_site_symmetry_multiplicity
  _atom_site_fract_x
  _atom_site_fract_y
  _atom_site_fract_z
  _atom_site_occupancy
  Mo  Mo1       1.0  0.33019756247927756  0.9613026498283476  0.470399042556693  1.0000
  Mo  Mo2       1.0  0.16978138086647482  0.46130006770496124  0.029594830570083313  1.0000
  Mo  Mo3       1.0  0.6698067366898003  0.038686414601095016  0.529593011780314  1.0000
  Mo  Mo4       1.0  0.830171516369987  0.5386840971580897  0.9704014303788147  1.0000
  H   H1        1.0  0.09606680468749572  0.41700607518299654  0.6102509205377873  1.0000
  H   H2        1.0  0.4039381488028654  0.9169878644116523  0.8897473368934004  1.0000
  H   H3        1.0  0.9039705360207791  0.5830013626810597  0.3897379189270468  1.0000
  H   H4        1.0  0.5960276785389952  0.08299630056646379  0.11026368277437375  1.0000
  H   H5        1.0  0.23343308140042043  0.3265309701847985  0.694592217079965  1.0000
  H   H6        1.0  0.26657908761824  0.8265150912198324  0.8054065689086729  1.0000
  H   H7        1.0  0.7665950971197406  0.673492391366473  0.3054006927884673  1.0000
  H   H8        1.0  0.7334087517335207  0.1734960214524648  0.19459919128652106  1.0000
  H   H9        1.0  0.9483111927433399  0.2485709979930918  0.6489181260046808  1.0000
  H   H10       1.0  0.551698621808768  0.748547145568665  0.8510824944376625  1.0000
  H   H11       1.0  0.05173352868829541  0.7514425644087126  0.3510775758061585  1.0000
  H   H12       1.0  0.44826901194251434  0.2514406940547077  0.14892254185536305  1.0000
  H   H13       1.0  0.5169320268100678  0.4162504595592154  0.2951920569194898  1.0000
  H   H14       1.0  0.9830758738868541  0.9162404944830485  0.20481202191567865  1.0000
  H   H15       1.0  0.4831219398965346  0.5837496290744397  0.7048160722729337  1.0000
  H   H16       1.0  0.016888055651143905  0.083738770814989  0.7951868335654527  1.0000
  H   H17       1.0  0.35474498172494157  0.528395087220112  0.3560005428420611  1.0000
  H   H18       1.0  0.14527380290903844  0.028384435349430203  0.14400826426374647  1.0000
  H   H19       1.0  0.6453218680091909  0.47160990104465844  0.6440129963341976  1.0000
  H   H20       1.0  0.8546754510559326  0.9716083038353533  0.8559939142731994  1.0000
  H   H21       1.0  0.9733963532534206  0.4137603603364681  0.29732252942027776  1.0000
  H   H22       1.0  0.5266060608048518  0.9137342397414018  0.20268684339925616  1.0000
  H   H23       1.0  0.026652108404135802  0.5862740254129477  0.7026865022603064  1.0000
  H   H24       1.0  0.4733505101794719  0.08625727450418448  0.7973095491731146  1.0000
  H   H25       1.0  0.13777075196403393  0.31762733436615787  0.23242533215807992  1.0000
  H   H26       1.0  0.36223007803093316  0.8176035724273663  0.2675804271125629  1.0000
  H   H27       1.0  0.8622611557013045  0.6824131758256299  0.7675787078701364  1.0000
  H   H28       1.0  0.6377522230040213  0.1823965161292875  0.7324196363869648  1.0000
  C   C1        1.0  0.26118861193743476  0.1886092904465144  0.5950378651594692  1.0000
  C   C2        1.0  0.23880865950303592  0.6885973633877854  0.9049605104709432  1.0000
  C   C3        1.0  0.7388615923908829  0.8113748743932236  0.4049525347625719  1.0000
  C   C4        1.0  0.7611351059888564  0.3113745525823363  0.09504587002373203  1.0000
  C   C5        1.0  0.44377555250702033  0.2822511477662248  0.39226451766113984  1.0000
  C   C6        1.0  0.05622703122723751  0.7822431942974931  0.10773514697543624  1.0000
  C   C7        1.0  0.556234296055962  0.7177477158987956  0.6077354330737779  1.0000
  C   C8        1.0  0.9437497370299115  0.21774587015188732  0.8922603196805172  1.0000
  C   C9        1.0  0.09986638453785451  0.1743273940983556  0.3301740209811116  1.0000
  C   C10       1.0  0.40013604955353815  0.6743058365991602  0.16982750385614057  1.0000
  C   C11       1.0  0.9001893830738227  0.8257229152501823  0.6698270250576929  1.0000
  C   C12       1.0  0.5998352357841271  0.32568200299255784  0.8301732646404506  1.0000
  C   C13       1.0  0.12708775123289234  0.30086772590922817  0.64089106679117  1.0000
  C   C14       1.0  0.37291703208430954  0.8008502604334  0.8591073752455005  1.0000
  C   C15       1.0  0.8729477886113486  0.6991446115954646  0.35910485591399094  1.0000
  C   C16       1.0  0.6270560984385228  0.19914492855250643  0.14089510884674186  1.0000
  C   C17       1.0  0.3731809789574357  0.40603874438845383  0.3321110559461219  1.0000
  C   C18       1.0  0.12683282694913342  0.9060231624794784  0.16789269245348495  1.0000
  C   C19       1.0  0.6268656319649966  0.5939735931969427  0.6678951602635979  1.0000
  C   C20       1.0  0.8731347735663064  0.09396222730012481  0.8321057447231512  1.0000
  C   C21       1.0  0.13435944986769502  0.33659653883340473  0.29206053034944557  1.0000
  C   C22       1.0  0.3656432369356892  0.8365706464095551  0.20794370461469924  1.0000
  C   C23       1.0  0.8656761315336612  0.6634353970826581  0.7079436412772042  1.0000
  C   C24       1.0  0.6343206926095989  0.1634184180627898  0.7920551508818439  1.0000
  S   S1        1.0  0.3049760332646018  0.7093272471035377  0.545493254671186  1.0000
  S   S2        1.0  0.19502310590385014  0.20932256470048574  0.9545052519464438  1.0000
  S   S3        1.0  0.695054048577454  0.2906728415100233  0.45451291919167175  1.0000
  S   S4        1.0  0.8049536512752983  0.7906664997321614  0.04548801500533983  1.0000
  N   N1        1.0  0.28509721045134034  0.15553920200914462  0.39056536050808444  1.0000
  N   N2        1.0  0.2149125348433003  0.6555239943583332  0.10943471868521475  1.0000
  N   N3        1.0  0.7149310123689788  0.8444682359507852  0.6094363481520163  1.0000
  N   N4        1.0  0.7850605679754069  0.34445894561784485  0.8905622661273189  1.0000
  O   O1        1.0  0.13873753829311403  0.1061402386083117  0.5425801149691767  1.0000
  O   O2        1.0  0.36125042875844576  0.6061328376510176  0.9574182221521217  1.0000
  O   O3        1.0  0.861301708521147  0.8938635246708486  0.4574225384469487  1.0000
  O   O4        1.0  0.638691447259049  0.39386235127771846  0.04257764397834761  1.0000
  O   O5        1.0  0.503411884205683  0.8196758711247156  0.3947806524656699  1.0000
  O   O6        1.0  0.9965866523312956  0.31967948160741605  0.10521564453999596  1.0000
  O   O7        1.0  0.49660896618975403  0.18031196844533784  0.6052158436053647  1.0000
  O   O8        1.0  0.0033864477215531028  0.6803083579517379  0.8947807903542045  1.0000
  O   O9        1.0  0.9399867612871021  0.07174845865795731  0.3121063676425921  1.0000
  O   O10       1.0  0.5600150963985159  0.5717270273057834  0.18789258061794817  1.0000
  O   O11       1.0  0.05999918026717669  0.9282663286117769  0.6878872283794453  1.0000
  O   O12       1.0  0.43995434930027255  0.42826326207442383  0.8121075721504883  1.0000
