data_image0
_chemical_formula_structural       Cd2H20C32O16
_chemical_formula_sum              "Cd2 H20 C32 O16"
_cell_length_a       5.904154431392424
_cell_length_b       7.4252057878917155
_cell_length_c       18.571928414667862
_cell_angle_alpha    93.48908001409762
_cell_angle_beta     96.25877403868533
_cell_angle_gamma    95.4407032446747

_space_group_name_H-M_alt    "P 1"
_space_group_IT_number       1

loop_
  _space_group_symop_operation_xyz
  'x, y, z'

loop_
  _atom_site_type_symbol
  _atom_site_label
  _atom_site_symmetry_multiplicity
  _atom_site_fract_x
  _atom_site_fract_y
  _atom_site_fract_z
  _atom_site_occupancy
  Cd  Cd1       1.0  0.48131549033785587  0.24579703234547168  0.9574876598434302  1.0000
  Cd  Cd2       1.0  0.5186828116923081  0.7542053466124584  0.0425122550544046  1.0000
  H   H1        1.0  0.4065405921192207  0.43798438008935386  0.25682042659963866  1.0000
  H   H2        1.0  0.5934522093112803  0.5620287834540036  0.7431789196743281  1.0000
  H   H3        1.0  0.6359541070844655  0.0954259551356813  0.20079686083839485  1.0000
  H   H4        1.0  0.36404642003238763  0.904566908498225  0.7992024564813818  1.0000
  H   H5        1.0  0.5690222270210015  0.08402814749671707  0.46255589522987617  1.0000
  H   H6        1.0  0.4309820264521278  0.9159674035080272  0.5374430415020939  1.0000
  H   H7        1.0  0.738252716906068  0.14896122909270557  0.5923580746226094  1.0000
  H   H8        1.0  0.2617501490221769  0.8510369903252195  0.4076403151734382  1.0000
  H   H9        1.0  0.13848824509108937  0.3007840660228139  0.6199084297402777  1.0000
  H   H10       1.0  0.8615129492566993  0.6992142210310346  0.3800909840196098  1.0000
  H   H11       1.0  0.35592337769291055  0.39724141465040935  0.5198558694493371  1.0000
  H   H12       1.0  0.6440810591145902  0.6027555291868936  0.4801436310992742  1.0000
  H   H13       1.0  0.012668845858499403  0.24003865531701504  0.9022811655263608  1.0000
  H   H14       1.0  0.987334603126108  0.7599638165537287  0.09771999513282031  1.0000
  H   H15       1.0  0.6998961969109131  0.08282453988827848  0.8393049832253965  1.0000
  H   H16       1.0  0.30010187066358895  0.9171753492251111  0.160698121692036  1.0000
  H   H17       1.0  0.1401165076719195  0.4423468807538597  0.9140202486691464  1.0000
  H   H18       1.0  0.859888413032145  0.557654093670834  0.0859787845029416  1.0000
  H   H19       1.0  0.7349056302019291  0.9628040502997237  0.9078883272123691  1.0000
  H   H20       1.0  0.26508902810513035  0.037195826175221186  0.0921146668063173  1.0000
  C   C1        1.0  0.2378439080849049  0.36290034864435233  0.24377194549896333  1.0000
  C   C2        1.0  0.7621531566814708  0.637106017604168  0.7562269068663738  1.0000
  C   C3        1.0  0.14484090189666426  0.3228796760381838  0.1718383437999123  1.0000
  C   C4        1.0  0.8551539908660643  0.6771226902813011  0.8281614601991762  1.0000
  C   C5        1.0  0.9252760990263196  0.22704353463250015  0.1558945700604895  1.0000
  C   C6        1.0  0.0747201317013975  0.7729560523411008  0.8441041617547  1.0000
  C   C7        1.0  0.8054251128371204  0.1696211916022817  0.212297199692145  1.0000
  C   C8        1.0  0.1945790068815469  0.8303730775026208  0.787702792343012  1.0000
  C   C9        1.0  0.8980591850323519  0.2093497195809206  0.2847179001831179  1.0000
  C   C10       1.0  0.101946972935508  0.790647267553183  0.7152821955214748  1.0000
  C   C11       1.0  0.7632324169382939  0.1486525794540157  0.3435861103173821  1.0000
  C   C12       1.0  0.2367682604596553  0.8513416030572996  0.6564126914058122  1.0000
  C   C13       1.0  0.8663751612510139  0.19880609808438274  0.4193914378628989  1.0000
  C   C14       1.0  0.1336260165701404  0.8011921519918914  0.5806074361903838  1.0000
  C   C15       1.0  0.7418055112098327  0.15063416553719117  0.47643251595190617  1.0000
  C   C16       1.0  0.2581956831379557  0.8493641215166576  0.5235668978079815  1.0000
  C   C17       1.0  0.8373221539188334  0.18729941480566473  0.5483664817625993  1.0000
  C   C18       1.0  0.16268261650412802  0.8127002407416128  0.45163306700606404  1.0000
  C   C19       1.0  0.060583591992482894  0.2732584502180089  0.5638152732126969  1.0000
  C   C20       1.0  0.9394160645293109  0.7267411863716047  0.4361841092078436  1.0000
  C   C21       1.0  0.18484420015013103  0.3260230250065774  0.5076710164705815  1.0000
  C   C22       1.0  0.8151590324468427  0.6739779800764578  0.4923285009587488  1.0000
  C   C23       1.0  0.08897042914158959  0.29043346127599523  0.4352597972049779  1.0000
  C   C24       1.0  0.9110329537364876  0.7095688626844562  0.5647392046277631  1.0000
  C   C25       1.0  0.22141123809450383  0.35275791345856794  0.3765794677385657  1.0000
  C   C26       1.0  0.7785891352381212  0.6472472574837055  0.6234216302419284  1.0000
  C   C27       1.0  0.11629735873289347  0.30703569673995895  0.3004776451607754  1.0000
  C   C28       1.0  0.8837021144545358  0.6929625470170958  0.6995211734431307  1.0000
  C   C29       1.0  0.8077721987048464  0.2029986224216742  0.0796913598553814  1.0000
  C   C30       1.0  0.19222745781694778  0.7970010141679394  0.920308022565159  1.0000
  C   C31       1.0  0.28115712829463746  0.3748457382364662  0.1110284472106784  1.0000
  C   C32       1.0  0.7188384316990123  0.6251620515029684  0.8889714532285352  1.0000
  O   O1        1.0  0.574600149113074  0.05768678780987099  0.3291713402969094  1.0000
  O   O2        1.0  0.42540549190494664  0.9423060947816992  0.6708281433709828  1.0000
  O   O3        1.0  0.7083768704975596  0.05138005306958599  0.0540800130466721  1.0000
  O   O4        1.0  0.2916197103722524  0.9486222825915505  0.9459193066951813  1.0000
  O   O5        1.0  0.8008438499399729  0.34635482091113085  0.04470934335530789  1.0000
  O   O6        1.0  0.19915597338955854  0.6536461715334667  0.9552900631752692  1.0000
  O   O7        1.0  0.4111812775872038  0.4420217290927083  0.3895253328894412  1.0000
  O   O8        1.0  0.5888135821222562  0.5579805632716415  0.6104733916964306  1.0000
  O   O9        1.0  0.29729711057035496  0.24480568352725374  0.0636467601220474  1.0000
  O   O10       1.0  0.702701191459816  0.7551966954306762  0.9363531547757872  1.0000
  O   O11       1.0  0.36875395615518153  0.5358701332955745  0.1127283314064584  1.0000
  O   O12       1.0  0.6312378279022964  0.4641348581402979  0.8872703305007263  1.0000
  O   O13       1.0  0.15314074896699026  0.3159278303020514  0.8943191276760204  1.0000
  O   O14       1.0  0.8468592246436373  0.6840744810199625  0.1056797632579816  1.0000
  O   O15       1.0  0.7402174039091846  0.0907847769241883  0.8917509895684077  1.0000
  O   O16       1.0  0.2597789425049655  0.9092150688924078  0.1082515201930434  1.0000
