data_image0
_chemical_formula_structural       Cd2H16C8N8O16
_chemical_formula_sum              "Cd2 H16 C8 N8 O16"
_cell_length_a       7.489403820871369
_cell_length_b       8.775252874530347
_cell_length_c       8.775262120640004
_cell_angle_alpha    84.95664539882083
_cell_angle_beta     73.58262824050149
_cell_angle_gamma    73.58229588783344

_space_group_name_H-M_alt    "P 1"
_space_group_IT_number       1

loop_
  _space_group_symop_operation_xyz
  'x, y, z'

loop_
  _atom_site_type_symbol
  _atom_site_label
  _atom_site_symmetry_multiplicity
  _atom_site_fract_x
  _atom_site_fract_y
  _atom_site_fract_z
  _atom_site_occupancy
  Cd  Cd1       1.0  0.49999913503361154  0.5000002895596863  0.5000011230687637  1.0000
  Cd  Cd2       1.0  3.392580794627872e-07  0.999999377836232  7.078171222254273e-07  1.0000
  H   H1        1.0  0.31278698350045187  0.5052398254452015  0.24733904188235567  1.0000
  H   H2        1.0  0.1872168862545038  0.2526585593280401  0.9947580791439424  1.0000
  H   H3        1.0  0.6872121899944121  0.49476191996992464  0.7526594306397671  1.0000
  H   H4        1.0  0.8127823105280215  0.747343199484824  0.005241525852198803  1.0000
  H   H5        1.0  0.4891110435093752  0.5810250256735969  0.18029372174856934  1.0000
  H   H6        1.0  0.0108929239030857  0.31970211005003074  0.9189725455036853  1.0000
  H   H7        1.0  0.5108889774834324  0.4189743574784187  0.8197059182581943  1.0000
  H   H8        1.0  0.9891084824854561  0.6802972917605175  0.08102673581502977  1.0000
  H   H9        1.0  0.7500028726375448  0.2762705403983573  0.22373525077098586  1.0000
  H   H10       1.0  0.24999325768661868  0.7237324359165312  0.7762707164660161  1.0000
  H   H11       1.0  0.5499574492238536  0.14997303211074345  0.69551348523045  1.0000
  H   H12       1.0  0.9500398790109938  0.8044924006734675  0.35002034882280264  1.0000
  H   H13       1.0  0.4500406484754008  0.8500239514611038  0.30448803963704313  1.0000
  H   H14       1.0  0.049967241328481286  0.1955106713187504  0.6499782190137682  1.0000
  H   H15       1.0  0.7500026086783151  0.865603549742346  0.6343919329463079  1.0000
  H   H16       1.0  0.25000531258378805  0.1343971331912854  0.3656055374268662  1.0000
  C   C1        1.0  0.7500055334619303  0.18445681290346264  0.31554167625119334  1.0000
  C   C2        1.0  0.24999065279194352  0.8155496919702827  0.6844593498857636  1.0000
  C   C3        1.0  0.6404507561182129  0.11340988301894578  0.5765665483064526  1.0000
  C   C4        1.0  0.8595606540665344  0.9234276857779447  0.3865787510783536  1.0000
  C   C5        1.0  0.3595440214522654  0.886596589798536  0.42343370404453406  1.0000
  C   C6        1.0  0.14044189798057968  0.07657651806908919  0.61342087531704  1.0000
  C   C7        1.0  0.7499983495734595  0.9573499264710035  0.5426533414646361  1.0000
  C   C8        1.0  0.25000992786407755  0.0426460400733504  0.45734908751390463  1.0000
  N   N1        1.0  0.9479517119930562  0.4981978877413907  0.3194708983920976  1.0000
  N   N2        1.0  0.5520466724309967  0.18052927330823818  0.0017973861017850335  1.0000
  N   N3        1.0  0.05204733570914747  0.5018002889216717  0.6805291178080214  1.0000
  N   N4        1.0  0.4479527408010426  0.8194676887289345  0.9982003826556114  1.0000
  N   N5        1.0  0.6420668003945736  0.2268127070393219  0.4628041796014631  1.0000
  N   N6        1.0  0.8579302153277341  0.0372074152436284  0.27319066030924694  1.0000
  N   N7        1.0  0.35793097835015447  0.7731855179538767  0.5372018576567897  1.0000
  N   N8        1.0  0.14207169631655608  0.9627908523274369  0.7268131684108499  1.0000
  O   O1        1.0  0.4461953927021937  0.49662397070999725  0.2523186797781991  1.0000
  O   O2        1.0  0.053808291587195405  0.24767649498519956  0.0033718058196968107  1.0000
  O   O3        1.0  0.553802830789735  0.5033765816139066  0.747681301411298  1.0000
  O   O4        1.0  0.9461913405881218  0.7523240893949743  0.9966289491557708  1.0000
  O   O5        1.0  0.7727749550395797  0.576725508727705  0.32912997007811395  1.0000
  O   O6        1.0  0.7272248696588691  0.17087190921315448  0.9232786550809498  1.0000
  O   O7        1.0  0.22722506595322056  0.4232738744243106  0.6708696699286494  1.0000
  O   O8        1.0  0.27277478580409575  0.8291286885647505  0.0767232323685363  1.0000
  O   O9        1.0  0.9883086726414729  0.376146608708332  0.40027475721811395  1.0000
  O   O10       1.0  0.5116859228476116  0.09971665445843308  0.12385009174300175  1.0000
  O   O11       1.0  0.011691886249138923  0.6238551553653336  0.599723356615961  1.0000
  O   O12       1.0  0.4883072711777458  0.900277771636567  0.8761438430951575  1.0000
  O   O13       1.0  0.08028800751434775  0.5515741210137646  0.2228500153274738  1.0000
  O   O14       1.0  0.41971343651344023  0.2771474160753655  0.9484250251674529  1.0000
  O   O15       1.0  0.9197129634814017  0.44842645522947316  0.7771481160119155  1.0000
  O   O16       1.0  0.5802887475100745  0.7228495832788723  0.05157202621384736  1.0000
