data_image0
_chemical_formula_structural       Al4H76C80N8O44F8
_chemical_formula_sum              "Al4 H76 C80 N8 O44 F8"
_cell_length_a       7.034865950010167
_cell_length_b       22.797911460050873
_cell_length_c       24.969023070056622
_cell_angle_alpha    90.0002427116264
_cell_angle_beta     89.99990558751615
_cell_angle_gamma    90.00000580336435

_space_group_name_H-M_alt    "P 1"
_space_group_IT_number       1

loop_
  _space_group_symop_operation_xyz
  'x, y, z'

loop_
  _atom_site_type_symbol
  _atom_site_label
  _atom_site_symmetry_multiplicity
  _atom_site_fract_x
  _atom_site_fract_y
  _atom_site_fract_z
  _atom_site_occupancy
  Al  Al1       1.0  0.2392871366896472  0.7522221180068482  0.2507524325746928  1.0000
  Al  Al2       1.0  0.7607084291021877  0.24777750577990065  0.750754755428993  1.0000
  Al  Al3       1.0  0.7392895543129326  0.7477778399086145  0.2492459182463947  1.0000
  Al  Al4       1.0  0.2607074324183785  0.2522222154855171  0.7492467345155591  1.0000
  H   H1        1.0  0.2448934705255326  0.5587359604523952  0.6215827454997793  1.0000
  H   H2        1.0  0.47138818010144934  0.5476247767228342  0.5895657443038972  1.0000
  H   H3        1.0  0.4039668409699644  0.5029094086044523  0.6454849788736896  1.0000
  H   H4        1.0  0.5770219992407631  0.5214418386585391  0.4716943917743563  1.0000
  H   H5        1.0  0.49450582445275154  0.4754638191614687  0.4181379823619339  1.0000
  H   H6        1.0  0.5083867225609778  0.5533428601169702  0.40845492731437366  1.0000
  H   H7        1.0  0.7551119984071022  0.4412665700320486  0.12158433917287682  1.0000
  H   H8        1.0  0.5286158556153921  0.4523754112695426  0.0895696000954942  1.0000
  H   H9        1.0  0.5960357937319712  0.49709104017043154  0.1454881411647619  1.0000
  H   H10       1.0  0.4229722259661486  0.4785623246079209  0.971698727020538  1.0000
  H   H11       1.0  0.5054812736862146  0.5245392170624538  0.9181404130226412  1.0000
  H   H12       1.0  0.49161174396241586  0.44666056959062644  0.9084594745826922  1.0000
  H   H13       1.0  0.7448890186491398  0.9412641359020808  0.8784178799814413  1.0000
  H   H14       1.0  0.9713823294069711  0.9523757511789905  0.9104366667717729  1.0000
  H   H15       1.0  0.903966699824494  0.9970898054942975  0.8545154942772515  1.0000
  H   H16       1.0  0.07702540915521179  0.9785616334335002  0.028304514932166607  1.0000
  H   H17       1.0  0.9945193327376954  0.024539703899321794  0.0818622051653648  1.0000
  H   H18       1.0  0.00839012419911  0.9466632459466877  0.09154484611393342  1.0000
  H   H19       1.0  0.25512507327458417  0.058732574166604885  0.37841888106022753  1.0000
  H   H20       1.0  0.028624666787472105  0.0476268104799331  0.4104338370352281  1.0000
  H   H21       1.0  0.09603885440115793  0.0029107408298756  0.3545148309111924  1.0000
  H   H22       1.0  0.9229757611490186  0.021445725668200993  0.5283010055712651  1.0000
  H   H23       1.0  0.0055074440192868  0.9754683436014273  0.5818552352649676  1.0000
  H   H24       1.0  0.9916153337367603  0.05334616262749848  0.5915409932707619  1.0000
  H   H25       1.0  0.11574533639250009  0.6384667915440472  0.5535194247507179  1.0000
  H   H26       1.0  0.2355799080085035  0.6949345942701582  0.5160790844755853  1.0000
  H   H27       1.0  0.3681851206040179  0.648291825460994  0.559980128222989  1.0000
  H   H28       1.0  0.4538241399242153  0.36243890616680113  0.5691208640871396  1.0000
  H   H29       1.0  0.5984892821791378  0.3505635567192371  0.5105501985137196  1.0000
  H   H30       1.0  0.3992132984277673  0.39991544214620206  0.5076007340219562  1.0000
  H   H31       1.0  0.8842572646337102  0.3615327897087183  0.0535241924326897  1.0000
  H   H32       1.0  0.7644198363255938  0.3050652510119462  0.0160833491424341  1.0000
  H   H33       1.0  0.6318160612972364  0.3517086631956586  0.059985099836268305  1.0000
  H   H34       1.0  0.5461969461970638  0.6375550455605532  0.06912261211056152  1.0000
  H   H35       1.0  0.4015332039908941  0.6494393332330758  0.0105537327611529  1.0000
  H   H36       1.0  0.6007878642905664  0.6000812931286744  0.0076002830849333  1.0000
  H   H37       1.0  0.615728037449955  0.8615262906670507  0.9464805234011779  1.0000
  H   H38       1.0  0.7355668316083239  0.8050602387379722  0.9839223509106747  1.0000
  H   H39       1.0  0.8681678096134247  0.8517008101983946  0.9400159737289117  1.0000
  H   H40       1.0  0.9538009286088281  0.13755773859278256  0.9308800404408828  1.0000
  H   H41       1.0  0.09846837129164501  0.14943485371172463  0.9894490437992405  1.0000
  H   H42       1.0  0.8992000231489711  0.10008032705033537  0.9924002227942381  1.0000
  H   H43       1.0  0.3843074017620934  0.13846766634600974  0.4464752996512119  1.0000
  H   H44       1.0  0.2644799932446631  0.19493608607032084  0.4839166581893225  1.0000
  H   H45       1.0  0.13187047021719417  0.14830013485217813  0.4400102285372328  1.0000
  H   H46       1.0  0.046184752701456895  0.862440093405112  0.43087832658628866  1.0000
  H   H47       1.0  0.901523017428019  0.8505584264278097  0.4894488681557976  1.0000
  H   H48       1.0  0.1007856806878351  0.8999155986718177  0.49239980234247593  1.0000
  H   H49       1.0  0.07606586994223363  0.7549092389405982  0.4517844099299638  1.0000
  H   H50       1.0  0.13432852456784872  0.7704214635454246  0.38300879357705503  1.0000
  H   H51       1.0  0.30855929333943516  0.7811335256353329  0.43389818672969244  1.0000
  H   H52       1.0  0.5877670557556272  0.4493896960696161  0.6905918790749725  1.0000
  H   H53       1.0  0.7500259915048986  0.3984864163489517  0.7205736534061061  1.0000
  H   H54       1.0  0.5037512112482219  0.38062468895024154  0.7174194285256238  1.0000
  H   H55       1.0  0.9239539348116637  0.24508562011146742  0.9517921730731375  1.0000
  H   H56       1.0  0.865688412020802  0.22957570658576282  0.8830165528307677  1.0000
  H   H57       1.0  0.6914605048649278  0.21886125000308707  0.9339060716013634  1.0000
  H   H58       1.0  0.4122327524818132  0.5506122789760822  0.1905954233042166  1.0000
  H   H59       1.0  0.2499795136775731  0.6015192076106073  0.2205763473898301  1.0000
  H   H60       1.0  0.49625287128684903  0.6193796043824019  0.2174191519314022  1.0000
  H   H61       1.0  0.5760383599893119  0.7450911627186368  0.04821169422731231  1.0000
  H   H62       1.0  0.6342967600406482  0.7295802521999873  0.11698765528950623  1.0000
  H   H63       1.0  0.8085260781287217  0.7188629210157839  0.0660992967751284  1.0000
  H   H64       1.0  0.08776730392879982  0.05061134651033679  0.8094045700266579  1.0000
  H   H65       1.0  0.2500191714040696  0.10151813024145173  0.7794222398324353  1.0000
  H   H66       1.0  0.0037401454287007  0.11937723354122197  0.7825799045092836  1.0000
  H   H67       1.0  0.42395855313038305  0.2549145346794147  0.5482099615403584  1.0000
  H   H68       1.0  0.3656959137896152  0.2704253273052045  0.6169864385698105  1.0000
  H   H69       1.0  0.19146231259103527  0.2811371575258476  0.5660974871314295  1.0000
  H   H70       1.0  0.9122268618509394  0.9493894280983353  0.30941517729743856  1.0000
  H   H71       1.0  0.7499692974331394  0.898486452261835  0.2794284011493247  1.0000
  H   H72       1.0  0.9962469030715653  0.8806251704928484  0.2825809553172718  1.0000
  H   H73       1.0  0.4847757966477317  0.6861411407791422  0.2849814005425273  1.0000
  H   H74       1.0  0.5152169386956444  0.3138586426375695  0.7849838122404834  1.0000
  H   H75       1.0  0.9847754238702677  0.8138601253593191  0.2150175161982659  1.0000
  H   H76       1.0  0.015225814799976  0.18613889312775453  0.7150155097970128  1.0000
  C   C1        1.0  0.49510869195547974  0.8290481598042305  0.314523074609106  1.0000
  C   C2        1.0  0.5085756495452429  0.18809949553955352  0.6739379794130471  1.0000
  C   C3        1.0  0.5048968476246216  0.17094912955923286  0.8145241453309924  1.0000
  C   C4        1.0  0.49143978899682844  0.8119028404703881  0.17393924920644116  1.0000
  C   C5        1.0  0.9950982171032265  0.67094959691925  0.18547663322762992  1.0000
  C   C6        1.0  0.008551995935079  0.3118976018050788  0.8260645529687524  1.0000
  C   C7        1.0  0.004888795839107701  0.32905059971947975  0.6854779900749294  1.0000
  C   C8        1.0  0.9914180105887243  0.6880971095459356  0.32605805917574326  1.0000
  C   C9        1.0  0.9966704083304521  0.6462811050433357  0.37183710008125104  1.0000
  C   C10       1.0  0.9822521409339514  0.377869435865314  0.6450895721363852  1.0000
  C   C11       1.0  0.0033379952187004994  0.353714258432987  0.871841356805881  1.0000
  C   C12       1.0  0.0177547580958048  0.6221296951513506  0.14509096582712291  1.0000
  C   C13       1.0  0.4966623598660078  0.853720160725501  0.128163006761838  1.0000
  C   C14       1.0  0.48223968282322005  0.1221307170989405  0.8549121061634681  1.0000
  C   C15       1.0  0.5033487974397558  0.14628064589553694  0.628162782555691  1.0000
  C   C16       1.0  0.5177516566341679  0.8778667606178201  0.3549112015925005  1.0000
  C   C17       1.0  0.8722060373735727  0.5981898622301286  0.3729640635885404  1.0000
  C   C18       1.0  0.13242785971120696  0.4132586157909869  0.6279187705732312  1.0000
  C   C19       1.0  0.12778530869465496  0.4018068224132562  0.8729687866767222  1.0000
  C   C20       1.0  0.8675747685571621  0.5867386806096276  0.12792361977298583  1.0000
  C   C21       1.0  0.3722150937786424  0.9018105301662372  0.12703736391881654  1.0000
  C   C22       1.0  0.6324244776670298  0.08674154812433697  0.8720808397318367  1.0000
  C   C23       1.0  0.627793220132922  0.09819114847795159  0.6270368355080508  1.0000
  C   C24       1.0  0.36756971106070313  0.9132577642103779  0.3720814166345861  1.0000
  C   C25       1.0  0.8812623428887035  0.5536674524820454  0.4114857049964727  1.0000
  C   C26       1.0  0.12382500667874298  0.45284284401033387  0.5851626726413102  1.0000
  C   C27       1.0  0.11873754623416488  0.4463329209030176  0.9114902075737137  1.0000
  C   C28       1.0  0.8761776059348846  0.547158200719515  0.08516575931599853  1.0000
  C   C29       1.0  0.38126716458586424  0.9463338168984731  0.08851331086493273  1.0000
  C   C30       1.0  0.6238159153206339  0.04715775880839597  0.9148357444165715  1.0000
  C   C31       1.0  0.6187368707443283  0.053665927535710964  0.5885114183184117  1.0000
  C   C32       1.0  0.3761669171322665  0.9528391210988685  0.414836865880524  1.0000
  C   C33       1.0  0.0252787351320052  0.5575907235856687  0.4506442423170967  1.0000
  C   C34       1.0  0.9527064683498807  0.4556105590960511  0.5554294398174308  1.0000
  C   C35       1.0  0.9747225898198265  0.44240895513484435  0.9506443056520624  1.0000
  C   C36       1.0  0.047293290394108595  0.5443921015114196  0.05543010560293032  1.0000
  C   C37       1.0  0.5252727423982861  0.9424096796704615  0.049354713936679714  1.0000
  C   C38       1.0  0.4526953879569433  0.04438959478797949  0.9445698637968223  1.0000
  C   C39       1.0  0.47473412157566486  0.05758900488151398  0.5493573798422774  1.0000
  C   C40       1.0  0.5472902983655955  0.9556061078755246  0.4445704315493303  1.0000
  C   C41       1.0  0.15076515863613343  0.6057749615960828  0.45133513095890276  1.0000
  C   C42       1.0  0.7923380837010043  0.42333484012716116  0.5734766163333875  1.0000
  C   C43       1.0  0.8492361665691276  0.3942238430841626  0.9513399350114186  1.0000
  C   C44       1.0  0.20765741717658406  0.5766657114586946  0.0734760512497061  1.0000
  C   C45       1.0  0.6507591181685655  0.8942236831792838  0.04866210314241931  1.0000
  C   C46       1.0  0.29232987148537865  0.07666444150636657  0.926522840844413  1.0000
  C   C47       1.0  0.34925058853426083  0.10577719131359939  0.548659467674085  1.0000
  C   C48       1.0  0.7076529652464388  0.9233307383607109  0.4265251333298324  1.0000
  C   C49       1.0  0.1361806738133637  0.6502508755531975  0.4126460846776467  1.0000
  C   C50       1.0  0.8034271286613971  0.3898516198202271  0.6207302976524076  1.0000
  C   C51       1.0  0.8638249016978534  0.3497455555209965  0.9126539075964148  1.0000
  C   C52       1.0  0.1965698110109813  0.6101491521412254  0.12073147400647603  1.0000
  C   C53       1.0  0.6361717607052739  0.8497490855862249  0.08734996190475641  1.0000
  C   C54       1.0  0.3034203536279918  0.11014897737503294  0.8792687484122726  1.0000
  C   C55       1.0  0.3638365386720395  0.15025021478261635  0.5873466825990548  1.0000
  C   C56       1.0  0.6965681517651489  0.8898464207520645  0.3792697211873843  1.0000
  C   C57       1.0  0.3524122032268409  0.5260662721395944  0.6098597055586625  1.0000
  C   C58       1.0  0.5741320966232877  0.5152661714104665  0.4281247951961548  1.0000
  C   C59       1.0  0.6475889969383104  0.473933133221088  0.10986312987532901  1.0000
  C   C60       1.0  0.4258649556099598  0.48473515683891577  0.928126347956763  1.0000
  C   C61       1.0  0.8524063663441979  0.9739342594849272  0.8901412174618103  1.0000
  C   C62       1.0  0.07413126410432369  0.9847373007805654  0.07187771874594522  1.0000
  C   C63       1.0  0.14759351496147843  0.026065575707804087  0.3901397928273695  1.0000
  C   C64       1.0  0.9258727651362619  0.015268068338485792  0.5718713793724463  1.0000
  C   C65       1.0  0.24774074610819238  0.6502353617239577  0.53222700128714  1.0000
  C   C66       1.0  0.5132296818319233  0.3827770876289448  0.5330305560810303  1.0000
  C   C67       1.0  0.7522618471215593  0.3497649975023832  0.0322314495891405  1.0000
  C   C68       1.0  0.48678144063758566  0.617221520787943  0.0330306807633605  1.0000
  C   C69       1.0  0.7477206003851081  0.8497612254444744  0.9677720194833487  1.0000
  C   C70       1.0  0.013217259917283298  0.1172208868374867  0.9669695688629647  1.0000
  C   C71       1.0  0.252312003644164  0.1502394104119418  0.4677661664181657  1.0000
  C   C72       1.0  0.9867741205726973  0.8827757975615069  0.4669698360375777  1.0000
  C   C73       1.0  0.18883133866492594  0.7536502786280005  0.42120726614474796  1.0000
  C   C74       1.0  0.6200277765701898  0.40271306621639247  0.6969288259260509  1.0000
  C   C75       1.0  0.8111870334016089  0.24634531509951071  0.921215542613098  1.0000
  C   C76       1.0  0.37997487697142407  0.5972924474704155  0.19693017767465196  1.0000
  C   C77       1.0  0.688806684131329  0.7463496808626003  0.0787887300276253  1.0000
  C   C78       1.0  0.12002238245413109  0.09729060718071027  0.8030707962608832  1.0000
  C   C79       1.0  0.31119308316583977  0.2536526500427456  0.57878790146831  1.0000
  C   C80       1.0  0.8799646735482795  0.9027083833279974  0.3030748468696487  1.0000
  N   N1        1.0  0.0596020455495534  0.5115966829684238  0.4872615091475154  1.0000
  N   N2        1.0  0.9188024957696186  0.4983657005484829  0.5162493910783752  1.0000
  N   N3        1.0  0.940389342373706  0.4884053597066326  0.9872629838205997  1.0000
  N   N4        1.0  0.08119014117140473  0.501636338704344  0.0162506608824486  1.0000
  N   N5        1.0  0.5595989277104819  0.9884024032998081  0.012736212746070005  1.0000
  N   N6        1.0  0.4187928090844295  0.0016340157598264994  0.9837495445041143  1.0000
  N   N7        1.0  0.44039655092318236  0.011592162750339694  0.5127395355445118  1.0000
  N   N8        1.0  0.5811928915857436  0.9983640628023233  0.4837490428196178  1.0000
  O   O1        1.0  0.6525913975130351  0.7948438601878036  0.19153614327548504  1.0000
  O   O2        1.0  0.3507489294714361  0.19403454253118463  0.7984579561539817  1.0000
  O   O3        1.0  0.34740556808630874  0.2051554874392564  0.6915386979063173  1.0000
  O   O4        1.0  0.6492253314223503  0.8059692514543781  0.29845584803074854  1.0000
  O   O5        1.0  0.15260316955410497  0.7051539072511371  0.3084586860893666  1.0000
  O   O6        1.0  0.8507641803887225  0.3059730713841943  0.701547853035109  1.0000
  O   O7        1.0  0.8474066322770427  0.29483589702981305  0.8084695174373808  1.0000
  O   O8        1.0  0.1492413178251653  0.694031586556896  0.20154339001999944  1.0000
  O   O9        1.0  0.32721209221431735  0.813234400874101  0.3006803723346607  1.0000
  O   O10       1.0  0.6706782513060714  0.20251138217286513  0.692247015897401  1.0000
  O   O11       1.0  0.6727650124708828  0.1867597534687845  0.8006781391656831  1.0000
  O   O12       1.0  0.3293144500811564  0.7974901619538102  0.19224998745939104  1.0000
  O   O13       1.0  0.8272258033634258  0.6867633611030042  0.1993174937847968  1.0000
  O   O14       1.0  0.17068300661519228  0.29748965781109854  0.8077497543036788  1.0000
  O   O15       1.0  0.17278111552309378  0.31323558417197717  0.6993182285244902  1.0000
  O   O16       1.0  0.8293196875028956  0.7025093545080022  0.30774947863929475  1.0000
  O   O17       1.0  0.48689240544319295  0.7141339872726885  0.25557261356063077  1.0000
  O   O18       1.0  0.5131017406227727  0.2858665362648479  0.7555741185848251  1.0000
  O   O19       1.0  0.9868934373416138  0.7858664015242451  0.24442550015847792  1.0000
  O   O20       1.0  0.013104969115048003  0.21413319274643064  0.7444236035000886  1.0000
  O   O21       1.0  0.2745485749484757  0.48657133615940024  0.570706352877707  1.0000
  O   O22       1.0  0.7652203065431138  0.5057884992592461  0.4081411242956322  1.0000
  O   O23       1.0  0.7254440819326291  0.513428763877151  0.07070865311565913  1.0000
  O   O24       1.0  0.23476394494968386  0.4942083494285895  0.9081428965047424  1.0000
  O   O25       1.0  0.774545141613949  0.013429700579784798  0.929293922328668  1.0000
  O   O26       1.0  0.2652294411177252  0.9942132123933547  0.0918584031810923  1.0000
  O   O27       1.0  0.22544764657170896  0.9865676853897082  0.4292945169089962  1.0000
  O   O28       1.0  0.7347888103501957  0.0057883021876605975  0.5918566157843871  1.0000
  O   O29       1.0  0.2873662064604403  0.6084827553962524  0.4906894338586981  1.0000
  O   O30       1.0  0.6281160486853209  0.4327606426938785  0.546270602624567  1.0000
  O   O31       1.0  0.7126351331561195  0.3915166714577578  0.9906963607821029  1.0000
  O   O32       1.0  0.3718765992481607  0.5672410979230873  0.046269443523563304  1.0000
  O   O33       1.0  0.7873573059302075  0.8915141305465395  0.0093044654633232  1.0000
  O   O34       1.0  0.12810499416141846  0.06723820544753067  0.953729412306821  1.0000
  O   O35       1.0  0.21266660127202638  0.10848524448874027  0.5093019712155071  1.0000
  O   O36       1.0  0.8718764310410734  0.9327557853903692  0.4537319842969297  1.0000
  O   O37       1.0  0.2643466072263577  0.695143153323066  0.41677682795813104  1.0000
  O   O38       1.0  0.6381290219024008  0.3742278794964874  0.6450420708411075  1.0000
  O   O39       1.0  0.7356646557617237  0.3048511038391125  0.9167878048366732  1.0000
  O   O40       1.0  0.3618764556191394  0.6257721285712845  0.1450431490182709  1.0000
  O   O41       1.0  0.7643348053849692  0.8048524174316821  0.08321749390225364  1.0000
  O   O42       1.0  0.13811798888747256  0.1257714069633096  0.8549559320215963  1.0000
  O   O43       1.0  0.23567349248097708  0.19515037276003253  0.5832149105768707  1.0000
  O   O44       1.0  0.8618676646204904  0.8742234391455025  0.3549582883798196  1.0000
  F   F1        1.0  0.29809129027193393  0.41106329897130667  0.654643000518732  1.0000
  F   F2        1.0  0.7400229822995427  0.5916453135118684  0.3336598132227665  1.0000
  F   F3        1.0  0.701918455237056  0.5889301743396017  0.15465202175423806  1.0000
  F   F4        1.0  0.2599754568315404  0.4083507491892462  0.8336616314375648  1.0000
  F   F5        1.0  0.7980765286732989  0.08893335065462786  0.8453532471779823  1.0000
  F   F6        1.0  0.24003774551227508  0.908358153484002  0.166342942353225  1.0000
  F   F7        1.0  0.20190912131936048  0.9110645211213535  0.345352772786029  1.0000
  F   F8        1.0  0.7599762687576757  0.09164634027813885  0.666339458706702  1.0000
