data_image0
_chemical_formula_structural       H16Pb2C20O12
_chemical_formula_sum              "H16 Pb2 C20 O12"
_cell_length_a       7.170458938915686
_cell_length_b       7.17025472196836
_cell_length_c       10.02671346662018
_cell_angle_alpha    81.40258801440986
_cell_angle_beta     81.3990945364638
_cell_angle_gamma    86.93794796788863

_space_group_name_H-M_alt    "P 1"
_space_group_IT_number       1

loop_
  _space_group_symop_operation_xyz
  'x, y, z'

loop_
  _atom_site_type_symbol
  _atom_site_label
  _atom_site_symmetry_multiplicity
  _atom_site_fract_x
  _atom_site_fract_y
  _atom_site_fract_z
  _atom_site_occupancy
  H   H1        1.0  0.45557602780544915  0.18268023490512056  0.03658126433965951  1.0000
  H   H2        1.0  0.8173217971523169  0.5444704829229394  0.4633499015171125  1.0000
  H   H3        1.0  0.5444981901573342  0.8172826938989598  0.9634336610487254  1.0000
  H   H4        1.0  0.18275394362300545  0.4555084840934143  0.5366103746485607  1.0000
  H   H5        1.0  0.25191360043149297  0.4079415199146581  0.944893038420375  1.0000
  H   H6        1.0  0.5920759931161681  0.7481076284171734  0.5550980080091676  1.0000
  H   H7        1.0  0.7481283476698903  0.5920710398820788  0.0551121412294648  1.0000
  H   H8        1.0  0.4079208947293294  0.2518545100210403  0.44490292925839015  1.0000
  H   H9        1.0  0.959902244996044  0.3190864752331635  0.07152001220164556  1.0000
  H   H10       1.0  0.680909559900229  0.04009693652373867  0.4284742540175657  1.0000
  H   H11       1.0  0.04012206517626988  0.6809486426993415  0.9284956382120627  1.0000
  H   H12       1.0  0.3190152151901912  0.95987844445213  0.5715157222683304  1.0000
  H   H13       1.0  0.28735130454226987  0.9199082927862389  0.8444955402947018  1.0000
  H   H14       1.0  0.08004987205615774  0.7126556021865438  0.6555065888458813  1.0000
  H   H15       1.0  0.7126559379834273  0.08013981095979969  0.15550057830086675  1.0000
  H   H16       1.0  0.9198812419919232  0.2873393108883916  0.34449970396678964  1.0000
  Pb  Pb1       1.0  0.7519611991655849  0.24806557840809515  0.7499296062774121  1.0000
  Pb  Pb2       1.0  0.24802733517048375  0.7519561416159561  0.2500381893395485  1.0000
  C   C1        1.0  0.2899323572038525  0.2780405208023921  0.898927768051749  1.0000
  C   C2        1.0  0.7219571856039974  0.7100795439319324  0.6010645171020458  1.0000
  C   C3        1.0  0.7101355965149165  0.7220029745984672  0.10106862224653672  1.0000
  C   C4        1.0  0.27799992697203624  0.28988976708425435  0.3989487164782162  1.0000
  C   C5        1.0  0.3016318262661456  0.33118730511008454  0.7441354934799378  1.0000
  C   C6        1.0  0.6688184653147926  0.6983639888540052  0.7558675033953223  1.0000
  C   C7        1.0  0.6984607774105953  0.6688393485904596  0.2558381588915566  1.0000
  C   C8        1.0  0.33112792922367623  0.30157987152440313  0.2441603836433615  1.0000
  C   C9        1.0  0.13806314326858873  0.13545731398307476  0.9510393898976446  1.0000
  C   C10       1.0  0.8645503538086884  0.8619596739796763  0.5489729180536003  1.0000
  C   C11       1.0  0.8619694873095792  0.8645949996004133  0.04894274382022704  1.0000
  C   C12       1.0  0.13539039061739536  0.13803059911563756  0.4510687724317819  1.0000
  C   C13       1.0  0.9765155406098599  0.17962794781395527  0.03916883394698089  1.0000
  C   C14       1.0  0.8203657132793577  0.023486615400003095  0.46080495590732085  1.0000
  C   C15       1.0  0.023520319823369096  0.8203986838895075  0.9608425147468368  1.0000
  C   C16       1.0  0.17958098385882687  0.9764749285684645  0.539145298767771  1.0000
  C   C17       1.0  0.1606171042769517  0.9548022322933957  0.9121608782262669  1.0000
  C   C18       1.0  0.04516545063775369  0.8394086707493924  0.5878628889762183  1.0000
  C   C19       1.0  0.8393752052624491  0.045276990366318194  0.08783359297301269  1.0000
  C   C20       1.0  0.9547260267283586  0.1606312523864517  0.4121777662275222  1.0000
  O   O1        1.0  0.46750155583940506  0.20368694628131576  0.9329886806016249  1.0000
  O   O2        1.0  0.7962785731197498  0.5325158205962807  0.5669508706988253  1.0000
  O   O3        1.0  0.532551511026085  0.796326837707838  0.06702820831143434  1.0000
  O   O4        1.0  0.20369137878289217  0.46746370689356814  0.43301912267599363  1.0000
  O   O5        1.0  0.1517602115013759  0.39984959770288236  0.7005178966317374  1.0000
  O   O6        1.0  0.600180264390687  0.8482159457175059  0.7995114352043515  1.0000
  O   O7        1.0  0.848301394916916  0.6001685631350423  0.2994787268617004  1.0000
  O   O8        1.0  0.39979271075900147  0.15173190014385085  0.20052431086678274  1.0000
  O   O9        1.0  0.4563220414052367  0.304565244351906  0.6674325534602374  1.0000
  O   O10       1.0  0.6953928749464351  0.5436414154318284  0.8325456459827906  1.0000
  O   O11       1.0  0.5437079034225006  0.6953886429834523  0.3325269597683659  1.0000
  O   O12       1.0  0.304543490597915  0.4563052397410415  0.16749095681051074  1.0000
