data_image0
_chemical_formula_structural       Zn16H44C112S8Br8O52F4
_chemical_formula_sum              "Zn16 H44 C112 S8 Br8 O52 F4"
_cell_length_a       18.46413310838169
_cell_length_b       19.656855076167815
_cell_length_c       32.663554824638396
_cell_angle_alpha    86.17187496054893
_cell_angle_beta     73.75836736368869
_cell_angle_gamma    62.30350925640961

_space_group_name_H-M_alt    "P 1"
_space_group_IT_number       1

loop_
  _space_group_symop_operation_xyz
  'x, y, z'

loop_
  _atom_site_type_symbol
  _atom_site_label
  _atom_site_symmetry_multiplicity
  _atom_site_fract_x
  _atom_site_fract_y
  _atom_site_fract_z
  _atom_site_occupancy
  Zn  Zn1       1.0  0.8748833714729969  0.5504356372783759  0.5184718972098779  1.0000
  Zn  Zn2       1.0  0.04284176663550462  0.48136339244879855  0.4378476824055966  1.0000
  Zn  Zn3       1.0  0.048317054980422824  0.39984274753439303  0.5240259084325841  1.0000
  Zn  Zn4       1.0  0.041971293160131075  0.5660825371153776  0.517009657211709  1.0000
  Zn  Zn5       1.0  0.6250096991518319  0.1890887264333401  0.7333450170570971  1.0000
  Zn  Zn6       1.0  0.4684943621957629  0.3515429323861737  0.725401959653688  1.0000
  Zn  Zn7       1.0  0.45165134385625555  0.2678788035548862  0.8116621132760856  1.0000
  Zn  Zn8       1.0  0.4524507426977424  0.19593139898924508  0.7263246702219562  1.0000
  Zn  Zn9       1.0  0.46515153764028844  0.7607702083978152  0.313905400142076  1.0000
  Zn  Zn10      1.0  0.45832043699144276  0.6860624218997413  0.23147160696317579  1.0000
  Zn  Zn11      1.0  0.6261340355261285  0.6973556274860258  0.23016647527558823  1.0000
  Zn  Zn12      1.0  0.45302469516373384  0.8497321121768522  0.22787324132363557  1.0000
  Zn  Zn13      1.0  0.03288817215212002  0.9007272128677781  0.0250495087983893  1.0000
  Zn  Zn14      1.0  0.05564470187183449  0.0543407820658572  0.018010481075997096  1.0000
  Zn  Zn15      1.0  0.8754318536268358  0.06162534086899289  0.02063075984895593  1.0000
  Zn  Zn16      1.0  0.03267031642162274  0.9881630243124631  0.9376413081387227  1.0000
  H   H1        1.0  0.8011756872312437  0.9599232326910605  0.6575707219002851  1.0000
  H   H2        1.0  0.32240197081673494  0.9733400363312082  0.4046462536754305  1.0000
  H   H3        1.0  0.8228172374237206  0.2361232723614392  0.6579210620801419  1.0000
  H   H4        1.0  0.5583643678890128  0.4723199758446554  0.6188934041468812  1.0000
  H   H5        1.0  0.5604866180260617  0.5168851674841264  0.663980770199025  1.0000
  H   H6        1.0  0.661998802593054  0.5599078881572338  0.6152339576514549  1.0000
  H   H7        1.0  0.660199051438191  0.5148898578199022  0.5702670419937661  1.0000
  H   H8        1.0  0.28233830114668745  0.6123792285019716  0.2948823302610394  1.0000
  H   H9        1.0  0.3549817455892069  0.6645326265265863  0.43392941071648755  1.0000
  H   H10       1.0  0.2660703745955148  0.7556509757720132  0.43351333855983404  1.0000
  H   H11       1.0  0.1663736566983048  0.7075278359083723  0.47849106574491174  1.0000
  H   H12       1.0  0.2551792967036378  0.6165947312494849  0.47932020026922123  1.0000
  H   H13       1.0  0.8150519735026694  0.5975904024152497  0.2937063416723475  1.0000
  H   H14       1.0  0.5565321160251886  0.7602887473715966  0.4306429254423562  1.0000
  H   H15       1.0  0.548987968333883  0.6728934563294258  0.4325571781515763  1.0000
  H   H16       1.0  0.6506923553786877  0.6194344864485115  0.4780749373900973  1.0000
  H   H17       1.0  0.6580901185249816  0.7068118316163133  0.4764862330794202  1.0000
  H   H18       1.0  0.31900424792375776  0.4636500611186775  0.6429544503205165  1.0000
  H   H19       1.0  0.3180041718129232  0.19341503597821935  0.6319492212552902  1.0000
  H   H20       1.0  0.22559033264635536  0.24055763086735732  0.6760498718376199  1.0000
  H   H21       1.0  0.13502968192165102  0.29450048861195194  0.6248240093055202  1.0000
  H   H22       1.0  0.22766641915079333  0.24815919196942812  0.5808791110306117  1.0000
  H   H23       1.0  0.18098837988932118  0.6617223297776744  0.9626164739253866  1.0000
  H   H24       1.0  0.6811680624914231  0.1438528111956003  0.9597547791999332  1.0000
  H   H25       1.0  0.9404115997982533  0.08787609687080786  0.8197201084388013  1.0000
  H   H26       1.0  0.9422278340268165  0.9962944251605705  0.8210149902656596  1.0000
  H   H27       1.0  0.8386325614903072  0.042597238196329094  0.7763560438299991  1.0000
  H   H28       1.0  0.8371499989219444  0.13396335344452123  0.7750390114556042  1.0000
  H   H29       1.0  0.18065611569510756  0.05896133492534971  0.8420064278477711  1.0000
  H   H30       1.0  0.18288622911315855  0.20714872971812776  0.9727853037248408  1.0000
  H   H31       1.0  0.2752152647530721  0.11752907255255705  0.9710410162048363  1.0000
  H   H32       1.0  0.3660426256788085  0.16752119594890758  0.9189353069609681  1.0000
  H   H33       1.0  0.27351002584175194  0.2566387865517398  0.920397286641972  1.0000
  H   H34       1.0  0.9386653978835896  0.28812925027983727  0.09012152836380949  1.0000
  H   H35       1.0  0.18464773956559838  0.7916390912399077  0.1064314666398758  1.0000
  H   H36       1.0  0.27325124626104  0.018124703233596096  0.07430792235901865  1.0000
  H   H37       1.0  0.1811794278319212  0.06340873748949598  0.1188196073998071  1.0000
  H   H38       1.0  0.27276463043011034  0.008624139101208099  0.1692051723478656  1.0000
  H   H39       1.0  0.3651567662315432  0.9644327078709548  0.12481159838976909  1.0000
  H   H40       1.0  0.681828952645354  0.012616259341697897  0.09384785004516524  1.0000
  H   H41       1.0  0.9406730045966681  0.7293749366316998  0.08680401107216087  1.0000
  H   H42       1.0  0.9427119540075705  0.7719410389367454  0.13271659476834693  1.0000
  H   H43       1.0  0.8388961594535402  0.7303374168122544  0.17986860111801667  1.0000
  H   H44       1.0  0.8371135394222197  0.6871631251744431  0.1341716092419816  1.0000
  C   C1        1.0  0.8701409379874224  0.5649500123021337  0.4291161168165091  1.0000
  C   C2        1.0  0.12000225254408294  0.3138884068420751  0.440112440694655  1.0000
  C   C3        1.0  0.8768898365335573  0.4207277303471101  0.5708997681201352  1.0000
  C   C4        1.0  0.14645952885840802  0.4458534133197459  0.5639983018607211  1.0000
  C   C5        1.0  0.864883180269857  0.6822131629255493  0.5615704030832518  1.0000
  C   C6        1.0  0.13558558781295477  0.5691022014215362  0.4299573944826065  1.0000
  C   C7        1.0  0.6493376079494056  0.3114243449868539  0.6838029282284738  1.0000
  C   C8        1.0  0.37908871693097984  0.43702056651576254  0.8099954659796823  1.0000
  C   C9        1.0  0.6226622637180057  0.17799366625904864  0.8246966399026904  1.0000
  C   C10       1.0  0.35639549999878994  0.18240037884637417  0.8118678193743778  1.0000
  C   C11       1.0  0.6227924926925681  0.06928914937336117  0.6846463153178917  1.0000
  C   C12       1.0  0.3634429592585918  0.32807545184464704  0.6799357930510155  1.0000
  C   C13       1.0  0.36138652576613584  0.6816779093512153  0.3196621925152314  1.0000
  C   C14       1.0  0.6330621615248901  0.5641465975125326  0.1909696064592411  1.0000
  C   C15       1.0  0.6431464030792072  0.6810942647022457  0.31808303446361924  1.0000
  C   C16       1.0  0.6231830171589152  0.8284116309481107  0.179135355111562  1.0000
  C   C17       1.0  0.37831962704322564  0.9300551869891792  0.3144488313854694  1.0000
  C   C18       1.0  0.3605408650132205  0.808071682086748  0.1832445565537739  1.0000
  C   C19       1.0  0.13898982663462797  0.9269733111155813  0.0691648261244779  1.0000
  C   C20       1.0  0.8893678979430887  0.18435081512979679  0.0609447975997171  1.0000
  C   C21       1.0  0.854720397508359  0.9370570080180443  0.06945276661269875  1.0000
  C   C22       1.0  0.8541625636171021  0.07268851174634958  0.9339692778933326  1.0000
  C   C23       1.0  0.11621216628959274  0.8181377889359779  0.939077622055663  1.0000
  C   C24       1.0  0.13868549263460042  0.0671927392036125  0.9284628231981459  1.0000
  C   C25       1.0  0.7279739747037156  0.8062660188471894  0.5982241771260064  1.0000
  C   C26       1.0  0.7567361579588195  0.9452938582184346  0.6492933445618548  1.0000
  C   C27       1.0  0.8150240567971848  0.7572266471766653  0.586295713051193  1.0000
  C   C28       1.0  0.6698161455161366  0.9936629110738481  0.6603707690160051  1.0000
  C   C29       1.0  0.7774713477936859  0.8771239050847581  0.6264964800445939  1.0000
  C   C30       1.0  0.7053701622883183  0.8750964506066977  0.6209993710654658  1.0000
  C   C31       1.0  0.1927516319267611  0.22280490627784386  0.3717844155399065  1.0000
  C   C32       1.0  0.3041246564171161  0.019156957719808097  0.38317249935273884  1.0000
  C   C33       1.0  0.16887776465467408  0.23891757247191225  0.4156660070656528  1.0000
  C   C34       1.0  0.32768733351544915  0.0050313005879445  0.3392776495553562  1.0000
  C   C35       1.0  0.2550390454861642  0.09895626152704298  0.3948959929149538  1.0000
  C   C36       1.0  0.24215089456178873  0.14338071871340927  0.3593998133034688  1.0000
  C   C37       1.0  0.7081253071343171  0.33795936325388704  0.6552344665187777  1.0000
  C   C38       1.0  0.8236256729437841  0.38861818498016004  0.5996502584969078  1.0000
  C   C39       1.0  0.6785654009214143  0.40870844544551227  0.637253921631668  1.0000
  C   C40       1.0  0.8531968145796684  0.3163433973161317  0.618016257031492  1.0000
  C   C41       1.0  0.7348005163754934  0.43230329755111535  0.6104750184036831  1.0000
  C   C42       1.0  0.797179050163713  0.2921144289808382  0.6447682126239941  1.0000
  C   C43       1.0  0.5999868059541456  0.4811955459425617  0.6338713256535016  1.0000
  C   C44       1.0  0.6635707149712361  0.508072906885495  0.6034371197740712  1.0000
  C   C45       1.0  0.3023903975877219  0.6548170438130895  0.3476358152594443  1.0000
  C   C46       1.0  0.18969303312012187  0.5990202935288736  0.4002268391986235  1.0000
  C   C47       1.0  0.27933094664292923  0.6632528876738986  0.39213760889953875  1.0000
  C   C48       1.0  0.2123464407960825  0.5916837322909031  0.3548915528399661  1.0000
  C   C49       1.0  0.2243868667294182  0.636598881573526  0.4171015186486501  1.0000
  C   C50       1.0  0.26675841666993705  0.61883058151259  0.32958128443220863  1.0000
  C   C51       1.0  0.2900024851848357  0.6930155970992471  0.4305399868234688  1.0000
  C   C52       1.0  0.22759434756830646  0.662830834220152  0.4589204137475491  1.0000
  C   C53       1.0  0.7009895213434876  0.6511450686544789  0.3460771742980739  1.0000
  C   C54       1.0  0.816231524577404  0.5912335373806312  0.39910068018399864  1.0000
  C   C55       1.0  0.6714991771557663  0.6621177262872776  0.3905178913799575  1.0000
  C   C56       1.0  0.8457276147103557  0.5791849725700187  0.35377600764061157  1.0000
  C   C57       1.0  0.7276971445501205  0.6327376320956117  0.4156893013439174  1.0000
  C   C58       1.0  0.7897725075571036  0.608446823573615  0.32831665045743813  1.0000
  C   C59       1.0  0.5932198200997121  0.6971844825489412  0.4286108990838002  1.0000
  C   C60       1.0  0.6568362069689612  0.6638164260332289  0.4572501754066778  1.0000
  C   C61       1.0  0.30716560207033433  0.35931704157034966  0.6512212364927095  1.0000
  C   C62       1.0  0.20190565005789549  0.4207723725314665  0.59332071732009  1.0000
  C   C63       1.0  0.26956631914111995  0.319744872942401  0.6391208298871618  1.0000
  C   C64       1.0  0.2398944187510637  0.46101693518798464  0.6061694282308707  1.0000
  C   C65       1.0  0.2192571223284361  0.34993689739510353  0.6111229170200332  1.0000
  C   C66       1.0  0.2907580153301837  0.43105866207010013  0.6340994840804441  1.0000
  C   C67       1.0  0.2589619251953864  0.24739377256176442  0.6437154817357112  1.0000
  C   C68       1.0  0.20216701015267097  0.2814249439964199  0.6118153178100982  1.0000
  C   C69       1.0  0.3001115204495975  0.5853998518892068  0.8206765662773066  1.0000
  C   C70       1.0  0.19558596966663097  0.670916269886959  0.9287266917327344  1.0000
  C   C71       1.0  0.32836210951178674  0.5117394060424302  0.8348871176655592  1.0000
  C   C72       1.0  0.1679517538740782  0.7436349134711264  0.9136511616928689  1.0000
  C   C73       1.0  0.2436814174787757  0.6133471594901109  0.8945725812572506  1.0000
  C   C74       1.0  0.25165132221641057  0.6439925580059266  0.8542268169259659  1.0000
  C   C75       1.0  0.7948584975662671  0.09871634676080986  0.9066511576777003  1.0000
  C   C76       1.0  0.6769111668979733  0.15122844493629364  0.8547340011160003  1.0000
  C   C77       1.0  0.8230172349190923  0.08881247611281398  0.8621796599653353  1.0000
  C   C78       1.0  0.6487434097143847  0.16025018393722226  0.9001810819127274  1.0000
  C   C79       1.0  0.7656923532892391  0.11450867618438557  0.8375817255326157  1.0000
  C   C80       1.0  0.7058675585191737  0.13512746034037795  0.9250544893736575  1.0000
  C   C81       1.0  0.9007248360382792  0.05880066718759739  0.8236493950321773  1.0000
  C   C82       1.0  0.8359559216146408  0.08780047107570968  0.7956631481148264  1.0000
  C   C83       1.0  0.19388252340457518  0.09629185385576729  0.8987890456890497  1.0000
  C   C84       1.0  0.2995942105626526  0.15262783794774037  0.839431750621884  1.0000
  C   C85       1.0  0.23150176651716955  0.1340041878413203  0.9127642369384432  1.0000
  C   C86       1.0  0.2606905193995175  0.11444987575748657  0.8254308625112686  1.0000
  C   C87       1.0  0.2818063475897077  0.16126398997803895  0.8838671395423532  1.0000
  C   C88       1.0  0.20962357078959576  0.08747758320785687  0.8541860259801624  1.0000
  C   C89       1.0  0.24199696245872102  0.1626998116850586  0.9515474276688637  1.0000
  C   C90       1.0  0.2989689459260206  0.19377559983355744  0.9188460642089356  1.0000
  C   C91       1.0  0.6561091182438478  0.44274260873527976  0.15282846575787082  1.0000
  C   C92       1.0  0.8711307613186179  0.3043359176048455  0.09855849489980535  1.0000
  C   C93       1.0  0.6841832260928058  0.489849770979468  0.16575932127554438  1.0000
  C   C94       1.0  0.8406943374211837  0.25897994322939155  0.08615678426679806  1.0000
  C   C95       1.0  0.803290425765539  0.37182876748953925  0.12278624867153103  1.0000
  C   C96       1.0  0.7229842448023974  0.3755467782241764  0.1282422713637744  1.0000
  C   C97       1.0  0.1950708891912072  0.8966980412498272  0.0981473277136757  1.0000
  C   C98       1.0  0.3028321328842269  0.8348802122656519  0.15501846575443073  1.0000
  C   C99       1.0  0.23177501420731556  0.9369111213243282  0.11057390498041288  1.0000
  C   C100      1.0  0.264887142647524  0.7944013698519894  0.14240723394515706  1.0000
  C   C101      1.0  0.2830425430658253  0.9066780359990146  0.13819432406103974  1.0000
  C   C102      1.0  0.21285123804810982  0.8245095023555392  0.11500740168568059  1.0000
  C   C103      1.0  0.2407446998027041  0.010086050754992497  0.1065562325023635  1.0000
  C   C104      1.0  0.2984996215565729  0.9760538473272858  0.13803738811297717  1.0000
  C   C105      1.0  0.7954168639731949  0.9096026656406193  0.09662100348731426  1.0000
  C   C106      1.0  0.6773826710806432  0.8596354437174581  0.1503623766922288  1.0000
  C   C107      1.0  0.8235170619284065  0.8380254107463471  0.11373390992246615  1.0000
  C   C108      1.0  0.6492566044823319  0.9321810205902635  0.13232567960471195  1.0000
  C   C109      1.0  0.7661071237916277  0.8148671512746615  0.1397145377875617  1.0000
  C   C110      1.0  0.7064393176426265  0.9561744086554423  0.1065919214019219  1.0000
  C   C111      1.0  0.9010976779579282  0.7645351236446842  0.11706411641946354  1.0000
  C   C112      1.0  0.8361993793115235  0.7382013784323573  0.14663347272334454  1.0000
  S   S1        1.0  0.8707033985983587  0.7955742480934233  0.6034092287442334  1.0000
  S   S2        1.0  0.6124661634340285  0.9570511109741274  0.6434014519307639  1.0000
  S   S3        1.0  0.2071881469423857  0.15545538388317223  0.4424486461889856  1.0000
  S   S4        1.0  0.2908554236839436  0.0877119225178831  0.3118229201256995  1.0000
  S   S5        1.0  0.29516236665805445  0.5139306399869596  0.8904446063668561  1.0000
  S   S6        1.0  0.20002072862593695  0.7430791153291166  0.8581641065718415  1.0000
  S   S7        1.0  0.7947175081537523  0.4512591519051766  0.1475239044700558  1.0000
  S   S8        1.0  0.7302838281343041  0.2972616918629285  0.10359024202289652  1.0000
  Br  Br1       1.0  0.9710704525782533  0.24401517151280666  0.607915163051146  1.0000
  Br  Br2       1.0  0.16625056466016036  0.5491504946471364  0.32473417988406783  1.0000
  Br  Br3       1.0  0.9627458056881366  0.5188163780641374  0.3232592497669628  1.0000
  Br  Br4       1.0  0.2270092676742692  0.5586762004337017  0.5865554886262956  1.0000
  Br  Br5       1.0  0.5313016460810048  0.20702607745668186  0.9322249237340472  1.0000
  Br  Br6       1.0  0.27052809638147585  0.09941251916985996  0.7665857949306201  1.0000
  Br  Br7       1.0  0.27738831818362564  0.6976534175716933  0.1631450858124808  1.0000
  Br  Br8       1.0  0.5318078619082627  0.0050087151062925  0.14174801795624611  1.0000
  O   O1        1.0  0.9998428087797108  0.5001831119691855  0.5004346151408046  1.0000
  O   O2        1.0  0.8311817239295038  0.5646023203240629  0.4682322226467904  1.0000
  O   O3        1.0  0.08954390884300527  0.3730363915334535  0.4193724894839264  1.0000
  O   O4        1.0  0.9572952188486354  0.38412958608395087  0.5641479284056814  1.0000
  O   O5        1.0  0.9487395981278579  0.546860542159571  0.41418128620327377  1.0000
  O   O6        1.0  0.8352340846200124  0.4841907775245104  0.5555653273350886  1.0000
  O   O7        1.0  0.11260278919657916  0.31277441952028784  0.4803266432840232  1.0000
  O   O8        1.0  0.12582578419931426  0.39578653702521643  0.5555295553697948  1.0000
  O   O9        1.0  0.9456404715632376  0.653957510703904  0.5545230408189283  1.0000
  O   O10       1.0  0.12380276961102502  0.5126446228616645  0.550185460810809  1.0000
  O   O11       1.0  0.8252107906111164  0.652340116450233  0.5494749288894099  1.0000
  O   O12       1.0  0.13471394559799432  0.5098271505190011  0.4171532033862491  1.0000
  O   O13       1.0  0.09592441402907083  0.6049637596167655  0.4670647993227703  1.0000
  O   O14       1.0  0.5004156958307463  0.2506646928272572  0.7492223134134123  1.0000
  O   O15       1.0  0.6822300094482543  0.2453483282781974  0.6984503805727658  1.0000
  O   O16       1.0  0.40374898595114683  0.4377710768042887  0.7694647323101407  1.0000
  O   O17       1.0  0.5420038204766868  0.21337758184395025  0.8399338203971851  1.0000
  O   O18       1.0  0.5700458747746567  0.3583130412364994  0.6910264620695088  1.0000
  O   O19       1.0  0.6640711110165682  0.16270971766133607  0.7850271853931261  1.0000
  O   O20       1.0  0.3938192133962559  0.37760392948869276  0.8316874734065749  1.0000
  O   O21       1.0  0.36569599827365096  0.23151367531368544  0.8308228483823116  1.0000
  O   O22       1.0  0.542625894246406  0.10499763473828236  0.6887043663926989  1.0000
  O   O23       1.0  0.3919687014034139  0.15659924849189366  0.772898531574846  1.0000
  O   O24       1.0  0.665473896133463  0.09218270518828578  0.6994990025625611  1.0000
  O   O25       1.0  0.3962252240943587  0.3684854859347623  0.6878547018534533  1.0000
  O   O26       1.0  0.3742761659941039  0.26269041082586136  0.6939343839108076  1.0000
  O   O27       1.0  0.5013300440684746  0.7487079773585348  0.25127032794492277  1.0000
  O   O28       1.0  0.39109912912748274  0.7133591003628793  0.3386755737478708  1.0000
  O   O29       1.0  0.5534307968473089  0.585958817153809  0.20602315715487413  1.0000
  O   O30       1.0  0.6776977239010055  0.6713569555477574  0.27776443738095224  1.0000
  O   O31       1.0  0.37731040695440765  0.6707177336829627  0.2793535253291637  1.0000
  O   O32       1.0  0.563381904336197  0.7140046145703065  0.337284141483174  1.0000
  O   O33       1.0  0.6734046624033071  0.6001822246653389  0.19547218158798074  1.0000
  O   O34       1.0  0.6645227579709428  0.7657376365867774  0.19512519218622515  1.0000
  O   O35       1.0  0.3948469925452333  0.9325810431461784  0.2737796768654022  1.0000
  O   O36       1.0  0.5427444330073996  0.8645130337713879  0.18554517685564065  1.0000
  O   O37       1.0  0.40070024101682844  0.8700966635202929  0.33544430740125364  1.0000
  O   O38       1.0  0.4002543710960822  0.7362750399618461  0.1875949111371753  1.0000
  O   O39       1.0  0.3665241734990587  0.8613477482476027  0.20026255174465046  1.0000
  O   O40       1.0  0.00010012791231870019  0.0012391662350310995  0.0003893842171507  1.0000
  O   O41       1.0  0.10858681870239921  0.8848356366714396  0.060603791214937516  1.0000
  O   O42       1.0  0.970523499241459  0.1548726460235699  0.049357637795097276  1.0000
  O   O43       1.0  0.8215315940075528  0.005205139786660598  0.05739000659932709  1.0000
  O   O44       1.0  0.12605821287113628  0.9929535567619678  0.055417383000886423  1.0000
  O   O45       1.0  0.9342351883468824  0.8895892355453651  0.060638586011698754  1.0000
  O   O46       1.0  0.8442499945469208  0.155988970827508  0.05313716495398067  1.0000
  O   O47       1.0  0.8210106084281321  0.09004193905316528  0.9741146586222128  1.0000
  O   O48       1.0  0.09742405718038329  0.8781667223994488  0.9178155797641667  1.0000
  O   O49       1.0  0.9335935191698612  0.03494488057778259  0.9145868679322363  1.0000
  O   O50       1.0  0.09493683453553817  0.8160623115288741  0.9796443958163862  1.0000
  O   O51       1.0  0.1291524457637792  0.07629932198462798  0.9683428268000895  1.0000
  O   O52       1.0  0.10561476044156852  0.036027412525989184  0.9116660552516507  1.0000
  F   F1        1.0  0.6698479110314184  0.7912657205090734  0.5891158597837318  1.0000
  F   F2        1.0  0.17248982615947034  0.27606744436495473  0.3432674146941964  1.0000
  F   F3        1.0  0.31612481774357093  0.6010326937005459  0.7793721821177755  1.0000
  F   F4        1.0  0.5741498625448004  0.4581914472884136  0.16196648830860738  1.0000
