data_image0
_chemical_formula_structural       Li4H40C36N8O12
_chemical_formula_sum              "Li4 H40 C36 N8 O12"
_cell_length_a       7.840494885928388
_cell_length_b       10.254102369171738
_cell_length_c       12.887940034276188
_cell_angle_alpha    92.21501201929928
_cell_angle_beta     107.7227734783421
_cell_angle_gamma    90.0227275906613

_space_group_name_H-M_alt    "P 1"
_space_group_IT_number       1

loop_
  _space_group_symop_operation_xyz
  'x, y, z'

loop_
  _atom_site_type_symbol
  _atom_site_label
  _atom_site_symmetry_multiplicity
  _atom_site_fract_x
  _atom_site_fract_y
  _atom_site_fract_z
  _atom_site_occupancy
  Li  Li1       1.0  0.5162145531087603  0.3526431770385159  0.9348787673186579  1.0000
  Li  Li2       1.0  0.581151733815638  0.14725596568800367  0.06506642741731389  1.0000
  Li  Li3       1.0  0.48378592485504884  0.647358066049449  0.06512049711268021  1.0000
  Li  Li4       1.0  0.4188460701783186  0.8527462538657175  0.9349339158595313  1.0000
  H   H1        1.0  0.5763738580629083  0.9249231084671622  0.6766077682811442  1.0000
  H   H2        1.0  0.8993924834471728  0.5751608329797336  0.3234227476544618  1.0000
  H   H3        1.0  0.4236279297536072  0.0750771602811895  0.3233932647393161  1.0000
  H   H4        1.0  0.10060931462479772  0.4248404124324169  0.6765790927020987  1.0000
  H   H5        1.0  0.3627880199532855  0.29864365900466083  0.7344386065078297  1.0000
  H   H6        1.0  0.628105341707233  0.20121049199515534  0.26552924991725757  1.0000
  H   H7        1.0  0.6372124351810626  0.7013566086910287  0.26556140011879137  1.0000
  H   H8        1.0  0.3718964917681831  0.7987917275377326  0.7344702987126296  1.0000
  H   H9        1.0  0.3009842390710276  0.3365191807367083  0.5359706376933531  1.0000
  H   H10       1.0  0.7650030901606613  0.16333892831097066  0.463976823350464  1.0000
  H   H11       1.0  0.6990148770941647  0.6634810865420916  0.4640291173051311  1.0000
  H   H12       1.0  0.2349960260045308  0.8366613389678222  0.5360229316480202  1.0000
  H   H13       1.0  0.8337945345635305  0.580988082363092  0.9636260828676342  1.0000
  H   H14       1.0  0.8697963260868562  0.9188796157925979  0.03618178162478361  1.0000
  H   H15       1.0  0.1662085283708379  0.41900730475471454  0.03637271463186661  1.0000
  H   H16       1.0  0.13019877085233844  0.08112162817082688  0.9638195753567587  1.0000
  H   H17       1.0  0.7694887368353706  0.8050267090941786  0.7978737400231283  1.0000
  H   H18       1.0  0.9716150897931473  0.6950177494496401  0.20202484460997994  1.0000
  H   H19       1.0  0.23051035253190125  0.194971605492789  0.2021251750688577  1.0000
  H   H20       1.0  0.028382687402889004  0.30498251741225596  0.79797465876036  1.0000
  H   H21       1.0  0.9510215681576427  0.7318948442338779  0.7604944642486089  1.0000
  H   H22       1.0  0.19052581630293025  0.768326911666719  0.2394583519185716  1.0000
  H   H23       1.0  0.0489801888924859  0.2681024945230917  0.2395041467635579  1.0000
  H   H24       1.0  0.8094732998622619  0.23167335561207375  0.7605414030799125  1.0000
  H   H25       1.0  0.9546206289720235  0.7374940101189794  0.898582057494565  1.0000
  H   H26       1.0  0.0560695117623737  0.762618382898708  0.10135307437165152  1.0000
  H   H27       1.0  0.045379776534957714  0.26250332949261684  0.1014178514208481  1.0000
  H   H28       1.0  0.9439282882631164  0.23738285935546338  0.8986456868034055  1.0000
  H   H29       1.0  0.7888539511791566  0.5180807884621146  0.6476696758505369  1.0000
  H   H30       1.0  0.14115735357383843  0.9821467109443843  0.35215554660267406  1.0000
  H   H31       1.0  0.2111451673045721  0.4819185008813631  0.3523277222804637  1.0000
  H   H32       1.0  0.8588430850180587  0.017852580723278798  0.6478444274535491  1.0000
  H   H33       1.0  0.6112002102919263  0.6303068738676814  0.6399041524329405  1.0000
  H   H34       1.0  0.9712162819960355  0.8698336622291405  0.3599371663961506  1.0000
  H   H35       1.0  0.3887975897335636  0.3696943683864831  0.3600946087421093  1.0000
  H   H36       1.0  0.028782850711614603  0.13016758107768567  0.6400626211727386  1.0000
  H   H37       1.0  0.6011086557839606  0.46901539016338495  0.6882719110072985  1.0000
  H   H38       1.0  0.9127769256695686  0.031071898196408692  0.3114479908494303  1.0000
  H   H39       1.0  0.3988904564127723  0.5309838998158583  0.3117262618893974  1.0000
  H   H40       1.0  0.08722219049562344  0.9689283690823913  0.6885517641490538  1.0000
  C   C1        1.0  0.47573677352524174  0.1076888774848399  0.7215937425772766  1.0000
  C   C2        1.0  0.7537814736658108  0.3923003481672963  0.2784139925859819  1.0000
  C   C3        1.0  0.5242649977488156  0.8923104152354855  0.2784072578727859  1.0000
  C   C4        1.0  0.24621898543700385  0.6077008968279572  0.7215875961424345  1.0000
  C   C5        1.0  0.5160654914398464  0.017719618097984797  0.6488830559281952  1.0000
  C   C6        1.0  0.8668303326419461  0.4823483459234267  0.3511445935776295  1.0000
  C   C7        1.0  0.4839362963766618  0.9822806506503668  0.3511179770922723  1.0000
  C   C8        1.0  0.1331728106861831  0.517652899269855  0.6488567236413872  1.0000
  C   C9        1.0  0.39758706324807497  0.2253194720827238  0.6810728375949324  1.0000
  C   C10       1.0  0.7162631829727675  0.2746135180519573  0.3189076375711366  1.0000
  C   C11       1.0  0.6024133918862732  0.7746807956129729  0.31892716903169577  1.0000
  C   C12       1.0  0.2837386276732019  0.7253877260886624  0.6810926532540407  1.0000
  C   C13       1.0  0.5128833043987983  0.07442634704432291  0.8397786694079841  1.0000
  C   C14       1.0  0.6728545517742435  0.4255169419642044  0.16019593420581663  1.0000
  C   C15       1.0  0.4871158220218561  0.9255748968982689  0.16022189292660022  1.0000
  C   C16       1.0  0.32714863092579094  0.5744862546493792  0.839804673388315  1.0000
  C   C17       1.0  0.4784636266137384  0.047222649509521396  0.5391561099978759  1.0000
  C   C18       1.0  0.9392300367465867  0.4527560790910172  0.46084283795958925  1.0000
  C   C19       1.0  0.5215381674897728  0.9527776186030724  0.4608441482568963  1.0000
  C   C20       1.0  0.06077176761237981  0.5472451656853679  0.5391582276312832  1.0000
  C   C21       1.0  0.36350126599710825  0.24615422533611309  0.5701465548892131  1.0000
  C   C22       1.0  0.7932248754595931  0.2537688968425158  0.42982963240974936  1.0000
  C   C23       1.0  0.636500511563945  0.7538450667484468  0.42985367079515413  1.0000
  C   C24       1.0  0.20677559621721295  0.7462323468812145  0.5701704067872839  1.0000
  C   C25       1.0  0.7677917468179346  0.5314619986821327  0.8835895027941802  1.0000
  C   C26       1.0  0.8839836646488025  0.9684658849861949  0.11621329197340913  1.0000
  C   C27       1.0  0.23220465435557003  0.46853533840724976  0.11640810170541732  1.0000
  C   C28       1.0  0.1160127444616279  0.031533406702301606  0.8837874767297649  1.0000
  C   C29       1.0  0.8671083886078322  0.7255009630161666  0.8143778720569229  1.0000
  C   C30       1.0  0.05271513431165431  0.7746020314264044  0.18553180103335623  1.0000
  C   C31       1.0  0.1328920066436936  0.274495399931638  0.1856212295223898  1.0000
  C   C32       1.0  0.9472839487686215  0.2253962837963357  0.8144678888243178  1.0000
  C   C33       1.0  0.6891080551564174  0.5513212627254163  0.686793721371089  1.0000
  C   C34       1.0  0.0022590682609476046  0.9488228941616657  0.3130004208729673  1.0000
  C   C35       1.0  0.3108910342108544  0.44867705186155876  0.31320519372089  1.0000
  C   C36       1.0  0.9977400416172489  0.05117737375289272  0.687000108891212  1.0000
  N   N1        1.0  0.4022451475893831  0.1605083839724415  0.4998019587636549  1.0000
  N   N2        1.0  0.9024372987389314  0.3394311224800076  0.5001752324982363  1.0000
  N   N3        1.0  0.5977552847155182  0.8394909083309797  0.5001987900582634  1.0000
  N   N4        1.0  0.09756317293788191  0.6605701212437153  0.4998248066987969  1.0000
  N   N5        1.0  0.7770198575608944  0.5988748992379483  0.7983300901229883  1.0000
  N   N6        1.0  0.9786293383145549  0.901190340576079  0.20151376428547954  1.0000
  N   N7        1.0  0.22298322191593206  0.40112146390788445  0.2016687399469177  1.0000
  N   N8        1.0  0.0213697715636485  0.098809927338479  0.7984867654786996  1.0000
  O   O1        1.0  0.4975060271173037  0.16529354087744957  0.9065572104929062  1.0000
  O   O2        1.0  0.5908078453422475  0.33457002167416755  0.09338819024446818  1.0000
  O   O3        1.0  0.5024944382725067  0.8347077034820384  0.09344360346982232  1.0000
  O   O4        1.0  0.40919667235847623  0.6654321980567558  0.9066110868760119  1.0000
  O   O5        1.0  0.55371782858019  0.9577130357891052  0.8641516268722214  1.0000
  O   O6        1.0  0.6893120370334601  0.5422211086748235  0.13580215850858218  1.0000
  O   O7        1.0  0.44628129784046433  0.0422882081534866  0.13584893546236293  1.0000
  O   O8        1.0  0.3106897941234266  0.4577820887933868  0.8641997469887953  1.0000
  O   O9        1.0  0.6924178433162639  0.42278730791314684  0.8764004885845367  1.0000
  O   O10       1.0  0.8158024719356264  0.0771078184159961  0.12334694890898847  1.0000
  O   O11       1.0  0.3075825542537914  0.5772080770993355  0.12359625612729272  1.0000
  O   O12       1.0  0.18419126949195436  0.9228924491024982  0.8766541238740045  1.0000
