data_image0
_chemical_formula_structural       Zr6H64C120N18O32
_chemical_formula_sum              "Zr6 H64 C120 N18 O32"
_cell_length_a       19.73446596765768
_cell_length_b       19.817754901816578
_cell_length_c       19.829907319119574
_cell_angle_alpha    91.2568563180836
_cell_angle_beta     91.75876909832631
_cell_angle_gamma    91.24212680047371

_space_group_name_H-M_alt    "P 1"
_space_group_IT_number       1

loop_
  _space_group_symop_operation_xyz
  'x, y, z'

loop_
  _atom_site_type_symbol
  _atom_site_label
  _atom_site_symmetry_multiplicity
  _atom_site_fract_x
  _atom_site_fract_y
  _atom_site_fract_z
  _atom_site_occupancy
  Zr  Zr1       1.0  0.8134987490881258  0.9573958237645923  0.8627101193453515  1.0000
  Zr  Zr2       1.0  0.7701563150606816  0.8634055007892057  0.005332750780382879  1.0000
  Zr  Zr3       1.0  0.9797300983825252  0.9826096652578398  0.9309282336799001  1.0000
  Zr  Zr4       1.0  0.9108144339538738  0.8171401931031712  0.9096271453458444  1.0000
  Zr  Zr5       1.0  0.8390962121543808  0.028436885359532496  0.026788434169816407  1.0000
  Zr  Zr6       1.0  0.9368370064009567  0.8885329571713001  0.07336417231313422  1.0000
  H   H1        1.0  0.7719556536077617  0.8196669699313684  0.8679162372530984  1.0000
  H   H2        1.0  0.8811260145839839  0.08081093910635667  0.9033249272002595  1.0000
  H   H3        1.0  0.034820493135683306  0.8605627635845892  0.9754573807313778  1.0000
  H   H4        1.0  0.8137514724049736  0.9318158675287973  0.12700516645225693  1.0000
  H   H5        1.0  0.2678090242499351  0.7900723108874245  0.7984956133704985  1.0000
  H   H6        1.0  0.19109307017107108  0.9455318880323983  0.6709592110504801  1.0000
  H   H7        1.0  0.08429552826365952  0.9468971223818841  0.7359141548007389  1.0000
  H   H8        1.0  0.1558590187687656  0.7818470625826137  0.8544167675864148  1.0000
  H   H9        1.0  0.5443658552475057  0.8981929174455417  0.6711205806294276  1.0000
  H   H10       1.0  0.4289063555083316  0.8553360330766039  0.8458819587492601  1.0000
  H   H11       1.0  0.5356561061142601  0.8612335848781498  0.9183837462917098  1.0000
  H   H12       1.0  0.650253379812817  0.9073231269829801  0.7435321465079455  1.0000
  H   H13       1.0  0.31795168097035287  0.9989865702364539  0.09135290193505341  1.0000
  H   H14       1.0  0.20326981364282656  0.9616707463079377  0.26790120395931183  1.0000
  H   H15       1.0  0.0966850080148163  0.9520113251776293  0.19614633379323013  1.0000
  H   H16       1.0  0.21067491897392898  0.9928411693327347  0.019619812187158903  1.0000
  H   H17       1.0  0.5590505826881724  0.9128001117647315  0.2673369504151282  1.0000
  H   H18       1.0  0.4755854764498365  0.05460382010939919  0.1283043860078408  1.0000
  H   H19       1.0  0.5853360025194617  0.05925022617036999  0.0684211554278704  1.0000
  H   H20       1.0  0.664469490819009  0.9083422995514495  0.2007049941532344  1.0000
  H   H21       1.0  0.26974267284411707  0.9398092335231139  0.3974787082310058  1.0000
  H   H22       1.0  0.48720744281060746  0.9395777119130738  0.4155315212902836  1.0000
  H   H23       1.0  0.47999870645877235  0.9164914760106695  0.5389284045978543  1.0000
  H   H24       1.0  0.2625278920555445  0.9164863132734525  0.5208228717809646  1.0000
  H   H25       1.0  0.7171885325547861  0.3226062390695077  0.8463337303132974  1.0000
  H   H26       1.0  0.5712119207639716  0.23858451735252112  0.9792792674617062  1.0000
  H   H27       1.0  0.633149208668044  0.1297152043112462  0.9790148896503298  1.0000
  H   H28       1.0  0.7730048000842655  0.21079122024019623  0.8374564440014043  1.0000
  H   H29       1.0  0.5792094754214856  0.5929753995547031  0.9560842853311444  1.0000
  H   H30       1.0  0.75325565989597  0.48078921626854054  0.8996050431337324  1.0000
  H   H31       1.0  0.8247115512038192  0.5874409540667783  0.9055584542182661  1.0000
  H   H32       1.0  0.6509101602709463  0.6985830362194037  0.9654536361855082  1.0000
  H   H33       1.0  0.9982153042146535  0.3622890826922784  0.042649732687479514  1.0000
  H   H34       1.0  0.1748928528627829  0.25049094416498  0.9937626919920607  1.0000
  H   H35       1.0  0.1041413641141418  0.14394876406200297  0.9850334390128953  1.0000
  H   H36       1.0  0.9277649341630932  0.25498798520172977  0.0373484835137816  1.0000
  H   H37       1.0  0.18566504052945018  0.6113099370281246  0.9814485796044325  1.0000
  H   H38       1.0  0.018722928746157698  0.514361323816118  0.0775698959282352  1.0000
  H   H39       1.0  0.9581211686260219  0.6236371376852148  0.08214500386177553  1.0000
  H   H40       1.0  0.12362363787548959  0.7197203616483562  0.9811955545896683  1.0000
  H   H41       1.0  0.3225932733481685  0.5339710226176493  0.9963084506374005  1.0000
  H   H42       1.0  0.3037686834224402  0.31846053285714493  0.9714946319791483  1.0000
  H   H43       1.0  0.4279265821315477  0.31280269918351417  0.9493211816101663  1.0000
  H   H44       1.0  0.4467626474715373  0.5283491071591797  0.9740909310207331  1.0000
  H   H45       1.0  0.8921372519722794  0.6226453212296121  0.2869978513758867  1.0000
  H   H46       1.0  0.753366207302065  0.7656042058463157  0.3674200280420196  1.0000
  H   H47       1.0  0.7468597620378857  0.8225855770707324  0.2561765450159967  1.0000
  H   H48       1.0  0.8950231563670314  0.6864664118570757  0.17961450419409894  1.0000
  H   H49       1.0  0.8565723496594088  0.6251013105756796  0.6398083927948762  1.0000
  H   H50       1.0  0.8046833553769588  0.8000024241474576  0.5266468587877287  1.0000
  H   H51       1.0  0.8096340317694127  0.8708775225112575  0.6334168725473789  1.0000
  H   H52       1.0  0.8654048051388086  0.696264027807622  0.7456296245993954  1.0000
  H   H53       1.0  0.9487434682727025  0.047437443887581296  0.40712214873515523  1.0000
  H   H54       1.0  0.8960347443184914  0.22291099451088303  0.29521560977789824  1.0000
  H   H55       1.0  0.8913315291564101  0.15310443343828686  0.18821216409862981  1.0000
  H   H56       1.0  0.9476709436091112  0.9780591949112674  0.29940593502725943  1.0000
  H   H57       1.0  0.8705244899734764  0.22657208638787543  0.6538352086923283  1.0000
  H   H58       1.0  0.9849834747168058  0.07026961720542599  0.5601308597410652  1.0000
  H   H59       1.0  0.9915095064745856  0.009170717956465098  0.6690567587761579  1.0000
  H   H60       1.0  0.8704118028709825  0.1624195034311952  0.7608680114371326  1.0000
  H   H61       1.0  0.8906497573377622  0.36793313737376804  0.5795879464049136  1.0000
  H   H62       1.0  0.8752679105876451  0.35218586809347835  0.36324513031515704  1.0000
  H   H63       1.0  0.8549620876414536  0.47639930772661643  0.357849120303925  1.0000
  H   H64       1.0  0.8704426008556821  0.49218333076913706  0.574199906792366  1.0000
  C   C1        1.0  0.9210469259138063  0.18613846498939776  0.5353646512091289  1.0000
  C   C2        1.0  0.8979528558244991  0.2794224466584012  0.47468040232013925  1.0000
  C   C3        1.0  0.9191443520629503  0.1797688755603559  0.4207675856008991  1.0000
  C   C4        1.0  0.8283630466575147  0.6578728150365547  0.3997542766172019  1.0000
  C   C5        1.0  0.8307562857702138  0.6663773376791723  0.5142231546182643  1.0000
  C   C6        1.0  0.8496339765357348  0.5652382912204458  0.46202149060211184  1.0000
  C   C7        1.0  0.13922642094450308  0.49066008096425406  0.0221929038718542  1.0000
  C   C8        1.0  0.13174994636685966  0.37599292571294274  0.0172041766428919  1.0000
  C   C9        1.0  0.2324831843920236  0.42975410277986725  0.999082841777856  1.0000
  C   C10       1.0  0.6094727748088147  0.3536624854544854  0.9214152771877907  1.0000
  C   C11       1.0  0.6195237697507352  0.46804781174640175  0.9274045444392062  1.0000
  C   C12       1.0  0.5179898100898086  0.416233333874487  0.9466710947021115  1.0000
  C   C13       1.0  0.44505135755987624  0.9782118703087048  0.23445703971563606  1.0000
  C   C14       1.0  0.38293487223886297  0.9554618544836725  0.3262622125757987  1.0000
  C   C15       1.0  0.33003440120349836  0.9782325377227395  0.2258072512636105  1.0000
  C   C16       1.0  0.3027451397350376  0.8755802498381724  0.700355171140842  1.0000
  C   C17       1.0  0.36617077224716604  0.9005987396972869  0.6100655579322023  1.0000
  C   C18       1.0  0.4176545503445155  0.8778168373106042  0.7112554741865154  1.0000
  C   C19       1.0  0.9242717876799771  0.04119207227206089  0.7835507976320957  1.0000
  C   C20       1.0  0.6638375615427633  0.8952557864506399  0.8760450292328986  1.0000
  C   C21       1.0  0.8470841723085272  0.8279270090704284  0.7601352054495579  1.0000
  C   C22       1.0  0.7477896896595836  0.1016647073760524  0.9157086857054324  1.0000
  C   C23       1.0  0.8275039987076127  0.7989827515521026  0.14929567337426167  1.0000
  C   C24       1.0  0.08359399935065429  0.9583794997492203  0.06291055008780691  1.0000
  C   C25       1.0  0.7824174283454112  0.7135270439649088  0.9450481370986169  1.0000
  C   C26       1.0  0.6924651644837851  0.9754267200141767  0.0887908448421655  1.0000
  C   C27       1.0  0.9710688503784863  0.12977062058036637  0.9987156264634154  1.0000
  C   C28       1.0  0.053122583900076806  0.8714851868795249  0.8415066754034942  1.0000
  C   C29       1.0  0.9966491493716204  0.7407860471809896  0.022563557531817904  1.0000
  C   C30       1.0  0.9094094607198571  0.021187826121433793  0.17364620082961582  1.0000
  C   C31       1.0  0.22615668035348338  0.8221117145219448  0.7831710867372196  1.0000
  C   C32       1.0  0.23598509139191753  0.8681966241003847  0.7314993330768972  1.0000
  C   C33       1.0  0.18311212987873657  0.9104649447973968  0.7117111596851518  1.0000
  C   C34       1.0  0.1232944422202351  0.9102006518949536  0.746845655582007  1.0000
  C   C35       1.0  0.11353229966725559  0.8640203582932671  0.7984654562513429  1.0000
  C   C36       1.0  0.16417398247114076  0.8182358332986155  0.8148313337430583  1.0000
  C   C37       1.0  0.5430310467434294  0.8901839873616592  0.7252073025355515  1.0000
  C   C38       1.0  0.4802854666538039  0.8766140356775693  0.7541967956538755  1.0000
  C   C39       1.0  0.4779121155033578  0.8655269285189888  0.8239301572671565  1.0000
  C   C40       1.0  0.5371322623474841  0.8691173997526249  0.8641788890205788  1.0000
  C   C41       1.0  0.5992175369273766  0.8853060408027671  0.8352937988120814  1.0000
  C   C42       1.0  0.6016894873690859  0.8951124631584972  0.7654108272521116  1.0000
  C   C43       1.0  0.2689797353318469  0.990074052704486  0.11381679250333582  1.0000
  C   C44       1.0  0.2669176491411207  0.980319160381278  0.18375826966207146  1.0000
  C   C45       1.0  0.20425879570124283  0.9684706910086192  0.21360178460070506  1.0000
  C   C46       1.0  0.14528335515485213  0.9632714876662829  0.1738810851542567  1.0000
  C   C47       1.0  0.1475815599213277  0.9711685929238739  0.1037387363478857  1.0000
  C   C48       1.0  0.2094973562787104  0.9863223530237947  0.07405673530961822  1.0000
  C   C49       1.0  0.5651856477333368  0.944239432265867  0.22343574553148932  1.0000
  C   C50       1.0  0.5109419415073404  0.9836727290601317  0.2013889084926035  1.0000
  C   C51       1.0  0.5183895983697083  0.024926534193880905  0.14536106003523494  1.0000
  C   C52       1.0  0.5792548010817454  0.026877520931940103  0.11168181202546633  1.0000
  C   C53       1.0  0.6315674810052768  0.9841682018375834  0.13107838097658234  1.0000
  C   C54       1.0  0.6241742403832902  0.9427756486398521  0.18700384267368975  1.0000
  C   C55       1.0  0.3154886189412308  0.9346497611039835  0.42890591880628653  1.0000
  C   C56       1.0  0.37892732541217095  0.9411010453422646  0.39898230438436144  1.0000
  C   C57       1.0  0.43827309172618806  0.9343961456903499  0.4391150634172264  1.0000
  C   C58       1.0  0.4342228438202156  0.921650386972821  0.507545836839306  1.0000
  C   C59       1.0  0.37076869270050844  0.9151814777017295  0.5374522597704258  1.0000
  C   C60       1.0  0.31145084715110016  0.9218238318507443  0.4972742994122683  1.0000
  C   C61       1.0  0.697686388570169  0.2792751719784902  0.87319765958933  1.0000
  C   C62       1.0  0.6409063829559044  0.2871558461460779  0.9132472572660437  1.0000
  C   C63       1.0  0.6156440230192712  0.2319643400466659  0.948736282695265  1.0000
  C   C64       1.0  0.6494263663659368  0.1712167824089405  0.9476192660064909  1.0000
  C   C65       1.0  0.7062715438334592  0.16350749275409976  0.9076858323858591  1.0000
  C   C66       1.0  0.7290167454271523  0.21708940558112733  0.8688080483007853  1.0000
  C   C67       1.0  0.6329408811432272  0.5922955165769322  0.945302332170094  1.0000
  C   C68       1.0  0.661974199653322  0.5305647830351176  0.9275598001866285  1.0000
  C   C69       1.0  0.7312325479220122  0.5290154438410326  0.91293670508113  1.0000
  C   C70       1.0  0.7709296076142351  0.58809516695689  0.9165934036909037  1.0000
  C   C71       1.0  0.7420390359653267  0.6491423511272884  0.9364075879008597  1.0000
  C   C72       1.0  0.672691528486034  0.6507809177511703  0.9503326303127155  1.0000
  C   C73       1.0  0.020975828467143704  0.3139671326984513  0.031192545808757206  1.0000
  C   C74       1.0  0.09057164959515518  0.31273922626493084  0.0181296454973037  1.0000
  C   C75       1.0  0.1208196340814993  0.2509064554052997  0.0030906851543690992  1.0000
  C   C76       1.0  0.081673464697019  0.19194907488700608  0.9984326761286585  1.0000
  C   C77       1.0  0.011847805709543  0.19348404095193666  0.0100369954189148  1.0000
  C   C78       1.0  0.9819142891217892  0.2545439520386664  0.02795606652357919  1.0000
  C   C79       1.0  0.13604469929349253  0.6147630079523835  0.0037278949565547007  1.0000
  C   C80       1.0  0.1057629530632553  0.5562723657039327  0.029274039615472702  1.0000
  C   C81       1.0  0.041897419145485094  0.5601262495208772  0.058262504389880114  1.0000
  C   C82       1.0  0.0082650439332852  0.6210944440390235  0.06066129340409531  1.0000
  C   C83       1.0  0.0373127814482572  0.6784934158817818  0.032244006883452414  1.0000
  C   C84       1.0  0.1015383281265656  0.6751695477120024  0.0042259747158155  1.0000
  C   C85       1.0  0.34618569921587994  0.4858218263968722  0.9858702018854405  1.0000
  C   C86       1.0  0.3056476407977655  0.4265901263840844  0.9853306794150358  1.0000
  C   C87       1.0  0.3355305644371214  0.3641101199520944  0.9720829990716382  1.0000
  C   C88       1.0  0.4043175674852577  0.3609305572236465  0.959838933534748  1.0000
  C   C89       1.0  0.444909878002349  0.4201398232282544  0.9604704447178849  1.0000
  C   C90       1.0  0.4150290476739613  0.4826589024710584  0.9736112064728601  1.0000
  C   C91       1.0  0.8609344930196767  0.666762749160334  0.2798070836515052  1.0000
  C   C92       1.0  0.8227181909072312  0.6905100695721559  0.3336080630218703  1.0000
  C   C93       1.0  0.7819932599385666  0.7470075946927892  0.32499802600172967  1.0000
  C   C94       1.0  0.7790094885892244  0.7790406433059756  0.2632076193338905  1.0000
  C   C95       1.0  0.8201972931395431  0.7575768136685069  0.2110134808873242  1.0000
  C   C96       1.0  0.861498676046196  0.7015450997701362  0.21972286536448857  1.0000
  C   C97       1.0  0.8464790078182888  0.6788707760689902  0.638952902545441  1.0000
  C   C98       1.0  0.8302372360856152  0.7083159361519689  0.5769069276739459  1.0000
  C   C99       1.0  0.8166591052269468  0.7776611239629857  0.5751466150556939  1.0000
  C   C100      1.0  0.8198010383726453  0.8170261214152882  0.6343153397501312  1.0000
  C   C101      1.0  0.8382679965636868  0.7877260832683105  0.695724467766411  1.0000
  C   C102      1.0  0.8511701498058813  0.7183157044473913  0.6975687671083366  1.0000
  C   C103      1.0  0.9374721512219039  0.07021874061701536  0.35869616543075733  1.0000
  C   C104      1.0  0.9222464835191884  0.1391781635906071  0.35746988742192093  1.0000
  C   C105      1.0  0.9072054299213759  0.1693607285527037  0.29551360411129934  1.0000
  C   C106      1.0  0.9048490713991342  0.13075642736989576  0.23632515807553034  1.0000
  C   C107      1.0  0.9188026637374451  0.06156349748430758  0.23775104996244786  1.0000
  C   C108      1.0  0.9365934309867966  0.0317306284337704  0.29903899144839136  1.0000
  C   C109      1.0  0.8969283655022264  0.17903821842665474  0.6578503597460071  1.0000
  C   C110      1.0  0.9277076539036526  0.15211553492503063  0.6006402347748222  1.0000
  C   C111      1.0  0.9619926677118329  0.09097140197832938  0.6051109334488916  1.0000
  C   C112      1.0  0.965340104243964  0.05697769756247338  0.6657582278763743  1.0000
  C   C113      1.0  0.9318842667658203  0.08244544138443641  0.721738659036774  1.0000
  C   C114      1.0  0.8977158211758649  0.14358290705956728  0.717539408543644  1.0000
  C   C115      1.0  0.8826379182112802  0.39216886079970686  0.5313047331359828  1.0000
  C   C116      1.0  0.8843296535340386  0.35247362644322777  0.47175671645415923  1.0000
  C   C117      1.0  0.8741366286160853  0.3832811595239959  0.40915624023673314  1.0000
  C   C118      1.0  0.8629673337688715  0.4521408758884105  0.4061295094498122  1.0000
  C   C119      1.0  0.8616905602340237  0.4919312294871501  0.4656424559210849  1.0000
  C   C120      1.0  0.871491890290869  0.4610724659490017  0.5282860487685782  1.0000
  N   N1        1.0  0.9044159297379082  0.25161788019039477  0.535829578110267  1.0000
  N   N2        1.0  0.9033612055222804  0.2452197066673775  0.41584294315723014  1.0000
  N   N3        1.0  0.9306012061798938  0.14846238033188544  0.47931703911796586  1.0000
  N   N4        1.0  0.8190896020370388  0.6967394518450759  0.4550991513469  1.0000
  N   N5        1.0  0.8449379463206693  0.6006027650545959  0.5202434765769441  1.0000
  N   N6        1.0  0.8442894251091105  0.5922808709975625  0.4004069105992159  1.0000
  N   N7        1.0  0.10066597884530638  0.43453061881317007  0.029246343952998206  1.0000
  N   N8        1.0  0.19753863471559188  0.37099916071818473  0.0024145769391096996  1.0000
  N   N9        1.0  0.20527563616788314  0.49098182679777125  0.007196694035975805  1.0000
  N   N10       1.0  0.649001692811524  0.4089880527496986  0.913427286018994  1.0000
  N   N11       1.0  0.5540739843209153  0.4742626254674957  0.9432525827545605  1.0000
  N   N12       1.0  0.5440914541591154  0.3545026687650789  0.9384242071901454  1.0000
  N   N13       1.0  0.44475679805689333  0.9602633118370887  0.2994878091785509  1.0000
  N   N14       1.0  0.3243175372141849  0.962590088283427  0.2910740393793533  1.0000
  N   N15       1.0  0.3893186051673324  0.9894702053991364  0.19589001285044821  1.0000
  N   N16       1.0  0.3039405588059196  0.8946298715630051  0.6357496563737826  1.0000
  N   N17       1.0  0.424262752263928  0.8942309848572376  0.6462464336376784  1.0000
  N   N18       1.0  0.3579700722652177  0.8647608219982174  0.73988738335877  1.0000
  O   O1        1.0  0.9733440712889773  0.034190018769955095  0.8252054936191018  1.0000
  O   O2        1.0  0.6718378773240019  0.8694898882748132  0.933765912312005  1.0000
  O   O3        1.0  0.8199895059860296  0.8851454818213965  0.7672796992331784  1.0000
  O   O4        1.0  0.7557060017073454  0.060300940167969885  0.8672494053937004  1.0000
  O   O5        1.0  0.7738742818513272  0.09796099865521057  0.9756495363865626  1.0000
  O   O6        1.0  0.8829773915480884  0.7986773208913788  0.8057234039229402  1.0000
  O   O7        1.0  0.7088866381643015  0.9308202388348477  0.846271341072786  1.0000
  O   O8        1.0  0.8640138085520873  0.0164105093633324  0.7881866872917557  1.0000
  O   O9        1.0  0.7907517745214958  0.9562880133990673  0.9641828519189206  1.0000
  O   O10       1.0  0.9077521565563698  0.9180892856699853  0.8843909993536981  1.0000
  O   O11       1.0  0.8011031999166676  0.8490021977657563  0.8964512703849297  1.0000
  O   O12       1.0  0.8790279030436565  0.03563868162684258  0.9210304608202621  1.0000
  O   O13       1.0  0.7777642908494399  0.8072365641953356  0.10868323877009092  1.0000
  O   O14       1.0  0.07574614355726787  0.9822425459736619  0.004285289226274394  1.0000
  O   O15       1.0  0.839627276825759  0.7209057802224519  0.9180967556052341  1.0000
  O   O16       1.0  0.7336358393117877  0.023994239909832498  0.07958812527471792  1.0000
  O   O17       1.0  0.9129154994863098  0.12264979211438028  0.023830789023627088  1.0000
  O   O18       1.0  0.013008293837572195  0.8222675869022706  0.8516980023559814  1.0000
  O   O19       1.0  0.9905223351668865  0.7838128451007974  0.0699195383060314  1.0000
  O   O20       1.0  0.935661049977156  0.9635146044383801  0.16685103447807856  1.0000
  O   O21       1.0  0.9713758822103741  0.7441288375354559  0.9623606329594311  1.0000
  O   O22       1.0  0.8719208178762655  0.04972402864231639  0.1288678922693762  1.0000
  O   O23       1.0  0.7531838816956692  0.7589957697511663  0.9804504181862796  1.0000
  O   O24       1.0  0.04906800939262719  0.9315289350070088  0.8667052377854745  1.0000
  O   O25       1.0  0.9997386856192135  0.08567051637457009  0.9611965272536764  1.0000
  O   O26       1.0  0.6970744521238785  0.9148022810869559  0.0652698472646662  1.0000
  O   O27       1.0  0.8874919232226829  0.8245744380095127  0.1446278343543099  1.0000
  O   O28       1.0  0.039975878450441385  0.9209280376737609  0.09242416096434881  1.0000
  O   O29       1.0  0.9295582683323076  0.9775463932998318  0.021028681548045807  1.0000
  O   O30       1.0  0.8720211729754865  0.8397735520316093  0.002971847043845322  1.0000
  O   O31       1.0  0.9891826118947618  0.8776753671598668  0.9732971392802556  1.0000
  O   O32       1.0  0.830681226314965  0.9292199966974121  0.08167239802113362  1.0000
