data_image0
_chemical_formula_structural       Zn4H24C32O20
_chemical_formula_sum              "Zn4 H24 C32 O20"
_cell_length_a       6.6169291236132155
_cell_length_b       12.130467881502346
_cell_length_c       16.57351867740326
_cell_angle_alpha    90.0006334926475
_cell_angle_beta     90.00038924148588
_cell_angle_gamma    98.1653147006382

_space_group_name_H-M_alt    "P 1"
_space_group_IT_number       1

loop_
  _space_group_symop_operation_xyz
  'x, y, z'

loop_
  _atom_site_type_symbol
  _atom_site_label
  _atom_site_symmetry_multiplicity
  _atom_site_fract_x
  _atom_site_fract_y
  _atom_site_fract_z
  _atom_site_occupancy
  Zn  Zn1       1.0  0.30919608470025395  0.9285568980308269  0.9976348247966911  1.0000
  Zn  Zn2       1.0  0.1908007161217853  0.5714366325468275  0.4976313649584511  1.0000
  Zn  Zn3       1.0  0.6908090855472154  0.0714405710267769  0.0023609964855495  1.0000
  Zn  Zn4       1.0  0.809193111943543  0.42855857554119575  0.5023584225777924  1.0000
  H   H1        1.0  0.9832708607883305  0.8843234160101543  0.1759910681349339  1.0000
  H   H2        1.0  0.5167429215040543  0.6156725300757699  0.6759857755708936  1.0000
  H   H3        1.0  0.016719236271285395  0.11568780456737218  0.8240119936493144  1.0000
  H   H4        1.0  0.48327376411725004  0.3843095906113447  0.324019096246829  1.0000
  H   H5        1.0  0.10133199700141667  0.7775299711272511  0.29126914687354594  1.0000
  H   H6        1.0  0.39865609518921025  0.722461044207236  0.7912657373771097  1.0000
  H   H7        1.0  0.898621236164452  0.2224795604348485  0.7087363283435836  1.0000
  H   H8        1.0  0.6013721580829241  0.27751494885879413  0.2087481850136541  1.0000
  H   H9        1.0  0.5099401820923789  0.5770745906397322  0.3020686326579778  1.0000
  H   H10       1.0  0.99003891129221  0.9229427447033982  0.8020683034293229  1.0000
  H   H11       1.0  0.4900383996982428  0.4229519783889373  0.6979350325455796  1.0000
  H   H12       1.0  0.010001239456833804  0.07703717349848198  0.1979395852714632  1.0000
  H   H13       1.0  0.39122032968669634  0.6844554523622008  0.18710358443532024  1.0000
  H   H14       1.0  0.10876170831845398  0.8155632498382627  0.6871001623207746  1.0000
  H   H15       1.0  0.6087695419959687  0.3155641568765546  0.8129049077323244  1.0000
  H   H16       1.0  0.8912514715364851  0.18442649457126234  0.3128998825459064  1.0000
  H   H17       1.0  0.9334725585840146  0.8770787990006211  0.0331975171416516  1.0000
  H   H18       1.0  0.5665080360980854  0.6229288490092485  0.5332032764698909  1.0000
  H   H19       1.0  0.0665313881331357  0.12291953586097999  0.9668019243755308  1.0000
  H   H20       1.0  0.43348684248933006  0.37708310275598933  0.4667967684628138  1.0000
  H   H21       1.0  0.9501324496599894  0.8908421246499928  0.9419448741756824  1.0000
  H   H22       1.0  0.549846904943145  0.609169226699386  0.4419516042251601  1.0000
  H   H23       1.0  0.04987360606873642  0.10916706160805491  0.05805698087713299  1.0000
  H   H24       1.0  0.450125402181456  0.3908340089599207  0.5580532676195133  1.0000
  C   C1        1.0  0.6793203039243065  0.7908961351987213  0.1747968143411072  1.0000
  C   C2        1.0  0.8207105742226589  0.7091103058937164  0.6747900722476957  1.0000
  C   C3        1.0  0.3206873658442575  0.20910882314142754  0.8252086609297038  1.0000
  C   C4        1.0  0.17931366991800957  0.29088086721068857  0.3251991119403499  1.0000
  C   C5        1.0  0.8801161998959374  0.8168042075799703  0.2036419965244392  1.0000
  C   C6        1.0  0.6198760542141815  0.6831893429839011  0.7036381305231885  1.0000
  C   C7        1.0  0.1198732894936256  0.18319612800626564  0.7963640820755982  1.0000
  C   C8        1.0  0.3801521384531554  0.3168000650134388  0.2963607076177084  1.0000
  C   C9        1.0  0.9466357905846507  0.7574718094464784  0.26781530123517433  1.0000
  C   C10       1.0  0.5533673681983586  0.7425150550391134  0.7678032940184208  1.0000
  C   C11       1.0  0.05337137604816892  0.24254070538607664  0.7321913808100503  1.0000
  C   C12       1.0  0.4466564333523948  0.2574702595810052  0.2321967508443379  1.0000
  C   C13       1.0  0.8131702103529506  0.6713748224813755  0.3038909994792078  1.0000
  C   C14       1.0  0.6868415603902207  0.8286451653945333  0.8038897012228929  1.0000
  C   C15       1.0  0.1868120419565358  0.32864914907984394  0.6960951679256056  1.0000
  C   C16       1.0  0.3131841246903093  0.1713593892026068  0.19610853360410366  1.0000
  C   C17       1.0  0.6131137596276305  0.6445598405458738  0.2743724512423995  1.0000
  C   C18       1.0  0.886861564628177  0.8554520728610983  0.774374315844618  1.0000
  C   C19       1.0  0.3868364186175128  0.35544053748674287  0.7256257834673505  1.0000
  C   C20       1.0  0.11315767261428532  0.1445467577218693  0.2256239189505322  1.0000
  C   C21       1.0  0.5463642674180138  0.7040055386269869  0.210247416461165  1.0000
  C   C22       1.0  0.9536212313872526  0.7959991754731705  0.7102369072853492  1.0000
  C   C23       1.0  0.4536085428816463  0.29599014057016854  0.7897598688421326  1.0000
  C   C24       1.0  0.0463685959727229  0.20398857704812906  0.2897522768430747  1.0000
  C   C25       1.0  0.6070408583625168  0.8576378593650914  0.1075921903156782  1.0000
  C   C26       1.0  0.8929567554257221  0.642367333110016  0.6075899241647348  1.0000
  C   C27       1.0  0.3929388422668367  0.14236940225490705  0.8923951837621329  1.0000
  C   C28       1.0  0.10704969062904722  0.3576384908929881  0.3924022769201372  1.0000
  C   C29       1.0  0.8826270678095228  0.609762563768207  0.37457830481076826  1.0000
  C   C30       1.0  0.6173295359463893  0.8902246648828791  0.8745791332180488  1.0000
  C   C31       1.0  0.11734924824995832  0.39022549170149995  0.625433204071399  1.0000
  C   C32       1.0  0.38268380898868765  0.10977010603365037  0.12542875550756347  1.0000
  O   O1        1.0  0.42325510836215596  0.8352026005391193  0.08413938196760279  1.0000
  O   O2        1.0  0.07674939008882836  0.6647886771647222  0.5841467158048346  1.0000
  O   O3        1.0  0.5767421127384795  0.1647891781243445  0.9158540257922354  1.0000
  O   O4        1.0  0.9232632344123531  0.3351994030331582  0.415859966148254  1.0000
  O   O5        1.0  0.7386346070422364  0.9350487136684363  0.0776648167112342  1.0000
  O   O6        1.0  0.7613767535588282  0.5649673930502813  0.5776543309304926  1.0000
  O   O7        1.0  0.2613722818252455  0.064962968990244  0.9223370383528503  1.0000
  O   O8        1.0  0.23865420790330216  0.43505297195817155  0.4223288196634627  1.0000
  O   O9        1.0  0.7497019897115891  0.5352965266059185  0.40681419056430457  1.0000
  O   O10       1.0  0.7502539779737845  0.9646963007902013  0.9068165811716256  1.0000
  O   O11       1.0  0.2502452463701204  0.4646905036195361  0.5931804238541929  1.0000
  O   O12       1.0  0.24976220441347863  0.035293376313695994  0.0931804468378914  1.0000
  O   O13       1.0  0.06513105070539642  0.6354911686045169  0.3989891587081686  1.0000
  O   O14       1.0  0.4348363065834775  0.8645004869996029  0.898982173841297  1.0000
  O   O15       1.0  0.9348568769606304  0.3645226156792702  0.6010169199445059  1.0000
  O   O16       1.0  0.5652033932019621  0.13549620836342058  0.10101726771669918  1.0000
  O   O17       1.0  0.017770037725220816  0.8566780171211973  0.9871119380956654  1.0000
  O   O18       1.0  0.482211904062524  0.6433349477290236  0.48711707748952904  1.0000
  O   O19       1.0  0.9822290147002876  0.14332378082533379  0.0128862966847549  1.0000
  O   O20       1.0  0.5177788611212293  0.3566737427925375  0.5128841741687893  1.0000
