data_image0
_chemical_formula_structural       Ni4H96C144N8O16
_chemical_formula_sum              "Ni4 H96 C144 N8 O16"
_cell_length_a       16.914168225795276
_cell_length_b       16.914023294964522
_cell_length_c       16.913084037912487
_cell_angle_alpha    107.70575061821229
_cell_angle_beta     107.72595905752043
_cell_angle_gamma    113.04415509545761

_space_group_name_H-M_alt    "P 1"
_space_group_IT_number       1

loop_
  _space_group_symop_operation_xyz
  'x, y, z'

loop_
  _atom_site_type_symbol
  _atom_site_label
  _atom_site_symmetry_multiplicity
  _atom_site_fract_x
  _atom_site_fract_y
  _atom_site_fract_z
  _atom_site_occupancy
  Ni  Ni1       1.0  0.6491889813182112  0.6491908117641715  0.9999974746947516  1.0000
  Ni  Ni2       1.0  0.8993597180683041  0.399362150164734  0.5000035919528188  1.0000
  Ni  Ni3       1.0  0.14262464886084553  0.1426249012323737  0.9999949902924713  1.0000
  Ni  Ni4       1.0  0.3926484176738399  0.8926463093140315  0.5000038664657184  1.0000
  H   H1        1.0  0.1028384199492648  0.8126198195179909  0.5011376612943437  1.0000
  H   H2        1.0  0.31148623050624735  0.6016964682533938  0.4988615447219474  1.0000
  H   H3        1.0  0.06257833914003191  0.06139371591473973  0.20977414594696603  1.0000
  H   H4        1.0  0.8516170358760108  0.8528022972212314  0.7902242187763592  1.0000
  H   H5        1.0  0.6103434765410185  0.10900318939043532  0.2965303408580483  1.0000
  H   H6        1.0  0.812478675742632  0.31381791727809377  0.7034799137911137  1.0000
  H   H7        1.0  0.5638109382060819  0.3603207313003055  0.0013733033434562049  1.0000
  H   H8        1.0  0.3589495269611118  0.5624337960346325  0.9986245381773173  1.0000
  H   H9        1.0  0.9954134114513451  0.7702437648123776  0.573577327460356  1.0000
  H   H10       1.0  0.19666800506129795  0.4218320633202736  0.42642047510988595  1.0000
  H   H11       1.0  0.020197532108831247  0.946529127976831  0.27476689807905075  1.0000
  H   H12       1.0  0.6717617001796441  0.7454294594313141  0.7252365413417011  1.0000
  H   H13       1.0  0.498355739000651  0.929708030922825  0.22982402531122403  1.0000
  H   H14       1.0  0.6998814444918439  0.26853333479271424  0.7701790277531161  1.0000
  H   H15       1.0  0.5185890908369899  0.24826538982406282  0.06867538999447471  1.0000
  H   H16       1.0  0.17959274423095203  0.44991560213376397  0.9313238554084294  1.0000
  H   H17       1.0  0.25115237093190507  0.9114550706798282  0.8439569328978536  1.0000
  H   H18       1.0  0.06749668272516368  0.40719862751838315  0.1560453287467283  1.0000
  H   H19       1.0  0.16145504754959464  0.8174958313404019  0.16027576090394294  1.0000
  H   H20       1.0  0.6572250164256559  0.0011835133418359141  0.8397273470599487  1.0000
  H   H21       1.0  0.7475180980510601  0.903419844169136  0.33679052495373446  1.0000
  H   H22       1.0  0.5666306961788762  0.41072823094567196  0.663205214475468  1.0000
  H   H23       1.0  0.6607603353433263  0.4973933448026601  0.34416832379197626  1.0000
  H   H24       1.0  0.1532236926388393  0.31659056845908395  0.6558309332178425  1.0000
  H   H25       1.0  0.35752787010556375  0.957245490401519  0.771576918883568  1.0000
  H   H26       1.0  0.18567111949588622  0.5859547729546009  0.22842461473992162  1.0000
  H   H27       1.0  0.2074127733653555  0.9358299564963701  0.0999018207348001  1.0000
  H   H28       1.0  0.8359322399080328  0.10751367932045502  0.9000988178424195  1.0000
  H   H29       1.0  0.8585550144142856  0.08224867317819215  0.40006573801841927  1.0000
  H   H30       1.0  0.6821881011762019  0.45848966860317125  0.5999323712913383  1.0000
  H   H31       1.0  0.7085249329070961  0.6084073158139985  0.2763284108783352  1.0000
  H   H32       1.0  0.3320770835799465  0.4321909838986856  0.72366744466391  1.0000
  H   H33       1.0  0.9344353585483487  0.6682302876024692  0.6242102236704382  1.0000
  H   H34       1.0  0.04401813201659625  0.31022422496064195  0.3757883233600979  1.0000
  H   H35       1.0  0.9184649440279172  0.7941901042824143  0.2340148106707787  1.0000
  H   H36       1.0  0.5601772190712992  0.6844530541696019  0.7659872299295075  1.0000
  H   H37       1.0  0.43444673172948  0.8131680332928963  0.2681482970034494  1.0000
  H   H38       1.0  0.5450176248074287  0.16629865819662365  0.731849982835236  1.0000
  H   H39       1.0  0.4163565669480604  0.1843193125489648  0.12129380313203347  1.0000
  H   H40       1.0  0.06302800154949047  0.2950652914672176  0.8787092636320253  1.0000
  H   H41       1.0  0.8302362533828287  0.609295627780135  0.6905684854627482  1.0000
  H   H42       1.0  0.9187217517915298  0.1396664779761919  0.3094276281144416  1.0000
  H   H43       1.0  0.8595721472087803  0.6689166614268202  0.2793607526566715  1.0000
  H   H44       1.0  0.3895601674013278  0.5802165906283322  0.7206445094194083  1.0000
  H   H45       1.0  0.3296690787343691  0.6416000793187138  0.22224717644572686  1.0000
  H   H46       1.0  0.4193506879826572  0.10742148463079818  0.7777484792902315  1.0000
  H   H47       1.0  0.35742739181105077  0.07967132818187396  0.1881896867338426  1.0000
  H   H48       1.0  0.8914844190563044  0.16923957820335292  0.8118132332164195  1.0000
  H   H49       1.0  0.042664641265844246  0.8699801751410305  0.9618677327415313  1.0000
  H   H50       1.0  0.9081129333315018  0.08079809340227935  0.038130697595945985  1.0000
  H   H51       1.0  0.12002678560777723  0.6580071332613925  0.3272061600980153  1.0000
  H   H52       1.0  0.3308102765036408  0.792830729931147  0.672796009279189  1.0000
  H   H53       1.0  0.5398086338056912  0.5819345127409576  0.16954746431724735  1.0000
  H   H54       1.0  0.41239350334401337  0.37026858699426407  0.8304517183886092  1.0000
  H   H55       1.0  0.6203338337017146  0.28985645416456424  0.45803157684374435  1.0000
  H   H56       1.0  0.8318278183248538  0.16230170334653596  0.5419681833706421  1.0000
  H   H57       1.0  0.14874477933667407  0.9278671486940197  0.8962989757356185  1.0000
  H   H58       1.0  0.03157062271887409  0.25244697024663754  0.1037009062379184  1.0000
  H   H59       1.0  0.17792209324546343  0.7814581823948431  0.2789536845154288  1.0000
  H   H60       1.0  0.5025139828330226  0.8989779744054474  0.7210521821810333  1.0000
  H   H61       1.0  0.6455500879047946  0.7532780619928303  0.21719473520145272  1.0000
  H   H62       1.0  0.5360872007313588  0.4283573360691193  0.7828014300212446  1.0000
  H   H63       1.0  0.678442718203371  0.3954553663372026  0.39227061564835  1.0000
  H   H64       1.0  0.0031868323377891917  0.28617120364872045  0.6077289564578906  1.0000
  H   H65       1.0  0.9804977936901551  0.7682488341285065  0.01614038581853071  1.0000
  H   H66       1.0  0.7521053527487922  0.964361661769253  0.9838588129094106  1.0000
  H   H67       1.0  0.018264841370147153  0.5021509542164465  0.287617961914215  1.0000
  H   H68       1.0  0.21453992058528837  0.7306541661715258  0.7123841865136458  1.0000
  H   H69       1.0  0.4761387304938864  0.46357014322241963  0.20946607784051713  1.0000
  H   H70       1.0  0.2541099973354618  0.2666759285357542  0.7905294754146581  1.0000
  H   H71       1.0  0.5167101243967877  0.22612454189219727  0.5126724896392787  1.0000
  H   H72       1.0  0.7134506968911012  0.00403901890593523  0.4873290765498055  1.0000
  H   H73       1.0  0.866659518634826  0.7235173516727472  0.08138883913111544  1.0000
  H   H74       1.0  0.6421230362344302  0.7852724621812968  0.9186046707280369  1.0000
  H   H75       1.0  0.9736491687213302  0.3921867272742858  0.35678624016006905  1.0000
  H   H76       1.0  0.03540948425820288  0.6168719707253485  0.6432206156636369  1.0000
  H   H77       1.0  0.35944091349335144  0.285541732706328  0.14268184445212037  1.0000
  H   H78       1.0  0.1428603497586068  0.21675956594501145  0.8573064479994771  1.0000
  H   H79       1.0  0.4667222428932618  0.109398609682856  0.5739819321105984  1.0000
  H   H80       1.0  0.5354183293638285  0.8927429421156177  0.4260246906600713  1.0000
  H   H81       1.0  0.6230953353296228  0.5914756055235985  0.8213970623579173  1.0000
  H   H82       1.0  0.7700672291711042  0.8016931546987536  0.1785987331414774  1.0000
  H   H83       1.0  0.8415633236260832  0.5200280878769947  0.46828926438669083  1.0000
  H   H84       1.0  0.051743117835997054  0.3732783465192995  0.5317168944530409  1.0000
  H   H85       1.0  0.1192952112705044  0.30744463176469583  0.033277079019754296  1.0000
  H   H86       1.0  0.27416230317017204  0.08601704595429988  0.9667180101257103  1.0000
  H   H87       1.0  0.33601200504277534  0.8693344794067954  0.3119008694487917  1.0000
  H   H88       1.0  0.5574402395058511  0.02412246877840824  0.6881056965714548  1.0000
  H   H89       1.0  0.72648634373342  0.6276180478283492  0.7429209550607895  1.0000
  H   H90       1.0  0.8846925234799059  0.9835625513351403  0.25707722370902547  1.0000
  H   H91       1.0  0.8778317094617806  0.6347628270282328  0.4011847997014756  1.0000
  H   H92       1.0  0.23357926748739985  0.47664750467825456  0.5988128502103081  1.0000
  H   H93       1.0  0.22544255670018745  0.4880056701899065  0.09793563045454332  1.0000
  H   H94       1.0  0.3900680008585553  0.12750614962602227  0.9020643301559305  1.0000
  H   H95       1.0  0.3774444602094817  0.9755199134670391  0.23750525565759517  1.0000
  H   H96       1.0  0.7380202402967126  0.13994891872786033  0.7624986423814022  1.0000
  C   C1        1.0  0.2985892391852047  0.904138028895936  0.5843694692821799  1.0000
  C   C2        1.0  0.319776131037635  0.7142246488224941  0.41563614466834753  1.0000
  C   C3        1.0  0.1541822505590957  0.06987127180191519  0.10569496909176478  1.0000
  C   C4        1.0  0.9641751043701561  0.04848594716973765  0.894300442072435  1.0000
  C   C5        1.0  0.8136531734184229  0.21519358585467782  0.39959098118659864  1.0000
  C   C6        1.0  0.8156062625717057  0.41406838244925137  0.600415951187344  1.0000
  C   C7        1.0  0.6640242684083759  0.5634428644376541  0.0984092470565583  1.0000
  C   C8        1.0  0.46503094577884246  0.5656073824053962  0.9015866615511997  1.0000
  C   C9        1.0  0.23686455171460344  0.8881898364391391  0.6317261429895566  1.0000
  C   C10       1.0  0.25646590500480937  0.6051376347761988  0.3682754347185338  1.0000
  C   C11       1.0  0.13832759686754065  0.006570226031819027  0.15149883018198554  1.0000
  C   C12       1.0  0.8550720987157944  0.9868278366908854  0.848499230793344  1.0000
  C   C13       1.0  0.741899571849615  0.10688127970611566  0.35207311312051104  1.0000
  C   C14       1.0  0.7548121845948117  0.3898311270695416  0.6479333188961505  1.0000
  C   C15       1.0  0.6399149423734231  0.4917698976223194  0.13508776352347246  1.0000
  C   C16       1.0  0.3566818538938962  0.5048228534396486  0.8649109880390214  1.0000
  C   C17       1.0  0.1343889820079057  0.8351594890301756  0.576543297038029  1.0000
  C   C18       1.0  0.25861560155637164  0.5578418833510099  0.42345699619406935  1.0000
  C   C19       1.0  0.08520675520019692  0.00860540623435921  0.20084031069933422  1.0000
  C   C20       1.0  0.8077632862812294  0.8843637050027268  0.7991576880867085  1.0000
  C   C21       1.0  0.639908013117818  0.06331891118436056  0.3042410344956251  1.0000
  C   C22       1.0  0.7590818541923738  0.335670983921851  0.69576720128363  1.0000
  C   C23       1.0  0.5857379939985776  0.3898090814292273  0.07663670037747032  1.0000
  C   C24       1.0  0.31317239674685743  0.5090957102864452  0.9233618916120463  1.0000
  C   C25       1.0  0.07483328107038999  0.810581178338488  0.6172396602076305  1.0000
  C   C26       1.0  0.1933408890454587  0.45758865729859366  0.38275916271497584  1.0000
  C   C27       1.0  0.0606061415973471  0.9432832676723281  0.23577036090365772  1.0000
  C   C28       1.0  0.7075116574122262  0.8248345912891536  0.7642299633955006  1.0000
  C   C29       1.0  0.5774797626639341  0.9629169716392881  0.2679210502395862  1.0000
  C   C30       1.0  0.6949955270579691  0.3095598387096101  0.7320815618072485  1.0000
  C   C31       1.0  0.5597094183086142  0.3273685763510841  0.11462441580418663  1.0000
  C   C32       1.0  0.21274545382527085  0.4450821073651596  0.8853740738155838  1.0000
  C   C33       1.0  0.11496775933490254  0.8364600373557848  0.7139512532002642  1.0000
  C   C34       1.0  0.12250890336541427  0.4010168300268049  0.2860467716807591  1.0000
  C   C35       1.0  0.08650275910742519  0.8724841240847496  0.22149621140204093  1.0000
  C   C36       1.0  0.650991967764  0.8650091170835098  0.7785079929068532  1.0000
  C   C37       1.0  0.6142942701140514  0.9030415263015784  0.27891882186649747  1.0000
  C   C38       1.0  0.6241226805461366  0.33537537990796545  0.7210801257947494  1.0000
  C   C39       1.0  0.5854964466084739  0.3641395821544365  0.2112992092725605  1.0000
  C   C40       1.0  0.15284198239153574  0.37419492095003903  0.7886999223905705  1.0000
  C   C41       1.0  0.2179940781091501  0.891806311622659  0.769202324360144  1.0000
  C   C42       1.0  0.12260681971673652  0.4487961536892159  0.23079986033010164  1.0000
  C   C43       1.0  0.1418710615741006  0.872645445083748  0.17386259784220928  1.0000
  C   C44       1.0  0.6987872979045306  0.9680125707507798  0.8261403759953795  1.0000
  C   C45       1.0  0.7168367690912448  0.9474936150992335  0.3256223938517096  1.0000
  C   C46       1.0  0.6218726890898055  0.3912165194867329  0.6743767823297093  1.0000
  C   C47       1.0  0.6413252342180371  0.46667850321578197  0.2694280186256038  1.0000
  C   C48       1.0  0.19725026812096752  0.37189375611065145  0.7305709802666485  1.0000
  C   C49       1.0  0.2779624237188756  0.9176082709321774  0.7288669546437775  1.0000
  C   C50       1.0  0.18874235808635825  0.5490984476543871  0.27113469259743533  1.0000
  C   C51       1.0  0.16774989931100492  0.9388651920769816  0.13980277705192634  1.0000
  C   C52       1.0  0.7990659744660106  0.027949469099688654  0.8601982900499652  1.0000
  C   C53       1.0  0.7792243464388733  0.04734671622286865  0.3611882782209079  1.0000
  C   C54       1.0  0.6861614143854737  0.4180377410177413  0.638812298619527  1.0000
  C   C55       1.0  0.6681554277937707  0.5290731176049731  0.23195584347429582  1.0000
  C   C56       1.0  0.2971169147919498  0.43619601357137583  0.768041526030416  1.0000
  C   C57       1.0  0.050988515783245654  0.8028148284849906  0.75469033378441  1.0000
  C   C58       1.0  0.048124468806392394  0.2962986354984807  0.2453083207226285  1.0000
  C   C59       1.0  0.0529202112268976  0.7981252298512019  0.2518503150613967  1.0000
  C   C60       1.0  0.5462800787287421  0.8010732619247989  0.7481532687073981  1.0000
  C   C61       1.0  0.5489411204352805  0.7980494400501571  0.24678958119518063  1.0000
  C   C62       1.0  0.5512565745216449  0.302149912244623  0.7532046242999185  1.0000
  C   C63       1.0  0.5522104066957425  0.29877923215415336  0.25090655224122566  1.0000
  C   C64       1.0  0.04787397246459341  0.3013043141191575  0.7490926902190084  1.0000
  C   C65       1.0  0.9588082135872185  0.7140068276154138  0.6984103075814189  1.0000
  C   C66       1.0  0.015593718860017734  0.2603974939613352  0.30158708458054667  1.0000
  C   C67       1.0  0.9641869096915627  0.7656885891531927  0.25533614039064634  1.0000
  C   C68       1.0  0.510354955281322  0.7088539924711696  0.7446666719171945  1.0000
  C   C69       1.0  0.4576184438699685  0.7626633988354783  0.24504878516541592  1.0000
  C   C70       1.0  0.5176119890169418  0.21256920315952496  0.7549473486944508  1.0000
  C   C71       1.0  0.4626154247950538  0.20749883308696582  0.19499037823828044  1.0000
  C   C72       1.0  0.012510735135535406  0.2676262969462683  0.8050110242304173  1.0000
  C   C73       1.0  0.8986621228577079  0.6805668604209317  0.736217032610398  1.0000
  C   C74       1.0  0.944347460557914  0.16244474075918444  0.2637799392715792  1.0000
  C   C75       1.0  0.9308075532940947  0.6945259599316387  0.28214297825039136  1.0000
  C   C76       1.0  0.41238586833461705  0.6486670745054538  0.7178594558580826  1.0000
  C   C77       1.0  0.3974965336054623  0.6646534749964134  0.21826242004194543  1.0000
  C   C78       1.0  0.4463881952571568  0.1792322846655239  0.7817309368206935  1.0000
  C   C79       1.0  0.4292816597941211  0.1474457842192223  0.23293647708006662  1.0000
  C   C80       1.0  0.914512026940798  0.19634761467479206  0.7670656350073414  1.0000
  C   C81       1.0  0.9281528345863563  0.7352327642616387  0.832349171578656  1.0000
  C   C82       1.0  0.9028843395424603  0.09580257020358841  0.1676489029975416  1.0000
  C   C83       1.0  0.9854156737015746  0.6529845883968903  0.3071510931327524  1.0000
  C   C84       1.0  0.3458377198618551  0.6782675304321585  0.6928473771600779  1.0000
  C   C85       1.0  0.4260633637163592  0.5975243816351394  0.19145168821673764  1.0000
  C   C86       1.0  0.4060727195988674  0.23461209973209643  0.808544771848055  1.0000
  C   C87       1.0  0.4846604927976159  0.17605795767162397  0.32866040160444504  1.0000
  C   C88       1.0  0.8473993014224775  0.15600265532246047  0.6713412106596407  1.0000
  C   C89       1.0  0.019999421287387596  0.8237365383650967  0.8885826068871127  1.0000
  C   C90       1.0  0.9351529765827421  0.13141709322367484  0.11141568193692546  1.0000
  C   C91       1.0  0.0738537420508649  0.685146948931667  0.3036967549631838  1.0000
  C   C92       1.0  0.3814582402361425  0.7701648886795311  0.6963084407680427  1.0000
  C   C93       1.0  0.517142044244217  0.6326033521314685  0.19315344366417259  1.0000
  C   C94       1.0  0.43945045094835683  0.3239911086321073  0.806841309283378  1.0000
  C   C95       1.0  0.5740493691310533  0.26712312469342686  0.3846545885228282  1.0000
  C   C96       1.0  0.8824712743023682  0.1893950710722622  0.6153460859382989  1.0000
  C   C97       1.0  0.08022629123264127  0.856711915650635  0.8507910254084479  1.0000
  C   C98       1.0  0.0059216702198270025  0.2294365326290233  0.14920815556981643  1.0000
  C   C99       1.0  0.10681501398841685  0.7558813049309876  0.27640835038533146  1.0000
  C   C100      1.0  0.47948035935493044  0.8304147262797346  0.7235978528212926  1.0000
  C   C101      1.0  0.5772570007402463  0.7306314205498837  0.22021604822325705  1.0000
  C   C102      1.0  0.5104152560879952  0.35704207274471145  0.7797791568233166  1.0000
  C   C103      1.0  0.6071038898180987  0.3271568486786621  0.346671373922277  1.0000
  C   C104      1.0  0.9804882550118563  0.26043273389201005  0.6533288356334667  1.0000
  C   C105      1.0  0.8639647796211352  0.7038382697981832  0.8731093710118573  1.0000
  C   C106      1.0  0.8307267972595866  0.9908533278900292  0.12688948306957554  1.0000
  C   C107      1.0  0.9540101828753575  0.5808127976458052  0.33990351427621573  1.0000
  C   C108      1.0  0.2409149081159471  0.6141108352806199  0.6600947460093282  1.0000
  C   C109      1.0  0.3611887770723214  0.4926453318012705  0.15874366653803657  1.0000
  C   C110      1.0  0.33390293636529844  0.20244611284858394  0.8412531937529053  1.0000
  C   C111      1.0  0.452433701519233  0.11120506785311329  0.3686486574051314  1.0000
  C   C112      1.0  0.7425588725381329  0.08378840113872582  0.6313547349692568  1.0000
  C   C113      1.0  0.9018057195940798  0.7289594615031731  0.9694723015850786  1.0000
  C   C114      1.0  0.7594854831855004  0.9323348718790997  0.030526584023618814  1.0000
  C   C115      1.0  0.9790519319443477  0.5095448780901464  0.3270779554306458  1.0000
  C   C116      1.0  0.18247363309024692  0.6519787570453347  0.6729219205795688  1.0000
  C   C117      1.0  0.3975703434466737  0.43292790855710456  0.17107216709079157  1.0000
  C   C118      1.0  0.26185888746663727  0.22650127788033103  0.8289249994414335  1.0000
  C   C119      1.0  0.4764845468455974  0.14757390216458788  0.464735794177912  1.0000
  C   C120      1.0  0.6828386879594389  0.011750782838483156  0.5352669226368221  1.0000
  C   C121      1.0  0.8390615751690831  0.7046081903790481  0.007004667087272767  1.0000
  C   C122      1.0  0.6975981958886449  0.8320568833828972  0.9929919979186295  1.0000
  C   C123      1.0  0.9547376630687835  0.44764612873707676  0.3654757872906627  1.0000
  C   C124      1.0  0.0821787414667982  0.5892688622375741  0.6345279811370761  1.0000
  C   C125      1.0  0.3329605671905895  0.33321037223731753  0.1339127466971631  1.0000
  C   C126      1.0  0.19929609037026091  0.19904649642567307  0.8660788057277103  1.0000
  C   C127      1.0  0.4489871260044964  0.08295034044176217  0.4998257514932689  1.0000
  C   C128      1.0  0.5831265614438124  0.9491645876346126  0.5001790928485618  1.0000
  C   C129      1.0  0.7028275109029494  0.6290953075272583  0.8604015307153221  1.0000
  C   C130      1.0  0.768685309975048  0.8424230049790254  0.13959315375632292  1.0000
  C   C131      1.0  0.879252451805641  0.5187202413733943  0.4262435427183179  1.0000
  C   C132      1.0  0.09248112785319057  0.4530133875420007  0.573760551155772  1.0000
  C   C133      1.0  0.19891943847532895  0.346038220775668  0.07424547515823576  1.0000
  C   C134      1.0  0.2717885048633804  0.12467223097101511  0.9257486588293633  1.0000
  C   C135      1.0  0.37462033862720284  0.9489442472345218  0.3529286434542128  1.0000
  C   C136      1.0  0.5960198822184067  0.02169922032991415  0.6470769302410845  1.0000
  C   C137      1.0  0.7612155941521337  0.6500959886080437  0.818234596736481  1.0000
  C   C138      1.0  0.8318565285091211  0.9429779826575384  0.18176396164309236  1.0000
  C   C139      1.0  0.9002942332949928  0.5819230494304151  0.3889147853132329  1.0000
  C   C140      1.0  0.19301163373396688  0.511383931581726  0.6110841424090124  1.0000
  C   C141      1.0  0.2586657859935713  0.44626829541021357  0.11029521874051804  1.0000
  C   C142      1.0  0.3359707768623323  0.14836892454187736  0.8897017830547612  1.0000
  C   C143      1.0  0.39830133781629223  0.008705356983227802  0.3124672218879566  1.0000
  C   C144      1.0  0.6962417005674268  0.08583954985514464  0.6875360526633258  1.0000
  N   N1        1.0  0.7410048035295985  0.6575448062822102  0.9541147661302672  1.0000
  N   N2        1.0  0.703423561443671  0.7868898132756571  0.045882349424068915  1.0000
  N   N3        1.0  0.907705639233889  0.4534708214247729  0.41648912180899345  1.0000
  N   N4        1.0  0.03698660832534989  0.4912220637208903  0.5835157361111031  1.0000
  N   N5        1.0  0.2348303763508355  0.28918768090337466  0.084413381432384  1.0000
  N   N6        1.0  0.20476994959263797  0.15041593894697056  0.9155781204942669  1.0000
  N   N7        1.0  0.4003621076145194  0.9848384150743996  0.4456930468715257  1.0000
  N   N8        1.0  0.5391486642215781  0.9546749568255919  0.5543136910094121  1.0000
  O   O1        1.0  0.3927341527461579  0.9576541577352629  0.6329026094070757  1.0000
  O   O2        1.0  0.32475863659959714  0.7598347014372067  0.36710348157147626  1.0000
  O   O3        1.0  0.20780909735636752  0.07504197458489871  0.0651823696648179  1.0000
  O   O4        1.0  0.009857582290450716  0.1426246851475668  0.9348149776265728  1.0000
  O   O5        1.0  0.9043282913297687  0.24728716086384833  0.4370059621574212  1.0000
  O   O6        1.0  0.8102836126876768  0.4673274965354397  0.5629997772478319  1.0000
  O   O7        1.0  0.7173141056031727  0.6541494442237906  0.1569086633168552  1.0000
  O   O8        1.0  0.49723634025951924  0.5603978342319563  0.8430856263105682  1.0000
  O   O9        1.0  0.25653178295303286  0.8587330184008976  0.49406353128777175  1.0000
  O   O10       1.0  0.3646820146942034  0.7624669362120146  0.5059406991144614  1.0000
  O   O11       1.0  0.10856264134394415  0.11454824494838081  0.1021738140719037  1.0000
  O   O12       1.0  0.012369662925344584  0.006385677321617391  0.8978164098579314  1.0000
  O   O13       1.0  0.7795235646916652  0.2720565117629405  0.4043208389593716  1.0000
  O   O14       1.0  0.8677404669447668  0.37520896075439947  0.5956878347162019  1.0000
  O   O15       1.0  0.6250209854220898  0.5292487107339311  0.007397376479538338  1.0000
  O   O16       1.0  0.5218496064692176  0.6176205297657092  0.9925982998120448  1.0000
