data_image0
_chemical_formula_structural       Na2H44C24S4N2O18F12
_chemical_formula_sum              "Na2 H44 C24 S4 N2 O18 F12"
_cell_length_a       8.06723848376202
_cell_length_b       8.941935576923925
_cell_length_c       15.853389644019508
_cell_angle_alpha    80.723226419818
_cell_angle_beta     88.8947460420523
_cell_angle_gamma    68.64820648073018

_space_group_name_H-M_alt    "P 1"
_space_group_IT_number       1

loop_
  _space_group_symop_operation_xyz
  'x, y, z'

loop_
  _atom_site_type_symbol
  _atom_site_label
  _atom_site_symmetry_multiplicity
  _atom_site_fract_x
  _atom_site_fract_y
  _atom_site_fract_z
  _atom_site_occupancy
  Na  Na1       1.0  0.2989506524335823  0.16401472046118218  0.7493305067109262  1.0000
  Na  Na2       1.0  0.7010425200042291  0.8359855372705738  0.2506692350866118  1.0000
  H   H1        1.0  0.1748999580397665  0.25985353749696577  0.47056641348681433  1.0000
  H   H2        1.0  0.8251001535460035  0.7401479511587467  0.5294318795119609  1.0000
  H   H3        1.0  0.3529393128696369  0.2765777357578898  0.530249365278884  1.0000
  H   H4        1.0  0.6470600576320181  0.7234225307032177  0.4697509392657579  1.0000
  H   H5        1.0  0.12971590339780184  0.4063216465707242  0.54170265221655  1.0000
  H   H6        1.0  0.8702834613427939  0.5936786217048678  0.45829639066275263  1.0000
  H   H7        1.0  0.0606101178510343  0.027214106798673803  0.6465178674282086  1.0000
  H   H8        1.0  0.9393845511576515  0.9727885907860738  0.3534810054409476  1.0000
  H   H9        1.0  0.983140426732497  0.14893853407832583  0.5437315257759038  1.0000
  H   H10       1.0  0.016857696090909306  0.8510617331771826  0.45626689988784364  1.0000
  H   H11       1.0  0.8910369016636182  0.4013184506160457  0.6154174715268894  1.0000
  H   H12       1.0  0.10896147869399898  0.5986842545651427  0.3845800988255803  1.0000
  H   H13       1.0  0.77309104543113  0.269056163467134  0.6496319919406232  1.0000
  H   H14       1.0  0.22690436754219692  0.7309477554049691  0.3503655002153252  1.0000
  H   H15       1.0  0.7410226669023102  0.43224437520189696  0.7761650601163765  1.0000
  H   H16       1.0  0.25898041494826884  0.5677558988556511  0.223833941911586  1.0000
  H   H17       1.0  0.91529257697637  0.504508009397547  0.7421527305546505  1.0000
  H   H18       1.0  0.0847080268008895  0.49549226080536357  0.2578462987075412  1.0000
  H   H19       1.0  0.8943749745970209  0.45771534172435935  0.9019371136625621  1.0000
  H   H20       1.0  0.10562439014357496  0.5422849265512325  0.0980619292167404  1.0000
  H   H21       1.0  0.9352032779897215  0.24748523890543342  0.8998725682865256  1.0000
  H   H22       1.0  0.06479856482420127  0.7525150332248032  0.100126447358555  1.0000
  H   H23       1.0  0.2158706737062985  0.13021706189169177  0.969448722952869  1.0000
  H   H24       1.0  0.7841309488529902  0.8697868620808222  0.030551855280869213  1.0000
  H   H25       1.0  0.18874661853676136  0.32493504900641307  0.9955491973794324  1.0000
  H   H26       1.0  0.8112525230686669  0.6750688720186985  0.004450777255868811  1.0000
  H   H27       1.0  0.45407494219175953  0.3266314887383004  0.9135426278424036  1.0000
  H   H28       1.0  0.5459241907720838  0.6733724350085237  0.08645545429488517  1.0000
  H   H29       1.0  0.5047162153916034  0.1577912155587811  0.9997232701579435  1.0000
  H   H30       1.0  0.49528588495652315  0.8422114944971283  0.0002748901758594081  1.0000
  H   H31       1.0  0.7698459517025995  0.05233494002710161  0.9021066430521499  1.0000
  H   H32       1.0  0.2301492122107972  0.9476726397596736  0.09788610336576654  1.0000
  H   H33       1.0  0.6614160930396482  0.2219317773855707  0.8200417217516147  1.0000
  H   H34       1.0  0.33857406880593305  0.7780697076456917  0.17994847935933928  1.0000
  H   H35       1.0  0.8658781032516031  0.9770743563652644  0.7638259112981558  1.0000
  H   H36       1.0  0.13410731710822435  0.0229173693668514  0.2361690135745675  1.0000
  H   H37       1.0  0.7343181934936563  0.8630520696133175  0.8091876687012345  1.0000
  H   H38       1.0  0.26566680364007306  0.13694695435991383  0.1908141663448504  1.0000
  H   H39       1.0  0.6732874430217919  0.825712756817893  0.6704685083539914  1.0000
  H   H40       1.0  0.3267103677046634  0.17427898818742446  0.3295262803476007  1.0000
  H   H41       1.0  0.7858778434741753  0.9515368692633216  0.6180921706614627  1.0000
  H   H42       1.0  0.21411532608311032  0.0484633893756694  0.38190694030340205  1.0000
  H   H43       1.0  0.5518205711531509  0.0026590750729056003  0.594713957581881  1.0000
  H   H44       1.0  0.4481772482148898  0.9973326672106921  0.4052827236177237  1.0000
  C   C1        1.0  0.21485751483690763  0.2829224580364382  0.5319127199322794  1.0000
  C   C2        1.0  0.7851401244365946  0.7170790249501522  0.4680868619660643  1.0000
  C   C3        1.0  0.03701239666445841  0.14682929755504398  0.6075396566702337  1.0000
  C   C4        1.0  0.9629852368479846  0.8531721872460307  0.3924586635627634  1.0000
  C   C5        1.0  0.9054006012832478  0.2793944058081762  0.6499384092328384  1.0000
  C   C6        1.0  0.09459654291823218  0.7206082965384512  0.3500598055694155  1.0000
  C   C7        1.0  0.8867999781646315  0.39918401629181227  0.7762784841938313  1.0000
  C   C8        1.0  0.11320062561262753  0.6008162539111054  0.2237205450683604  1.0000
  C   C9        1.0  0.9607787530983032  0.3554458269940568  0.8673325981870477  1.0000
  C   C10       1.0  0.03922185355948222  0.6445544423016116  0.1326670619078101  1.0000
  C   C11       1.0  0.23833983256174215  0.2447519746386106  0.9470942760144538  1.0000
  C   C12       1.0  0.76165881973273  0.7552531639320605  0.052905593190104114  1.0000
  C   C13       1.0  0.4340089533028573  0.21177951770062722  0.9370068624225567  1.0000
  C   C14       1.0  0.5659901825415119  0.7882244051389621  0.06299185054739809  1.0000
  C   C15       1.0  0.6706270694147063  0.09763159174386259  0.8479099575290688  1.0000
  C   C16       1.0  0.329366334632546  0.9023711120787256  0.1520832514631607  1.0000
  C   C17       1.0  0.730562809024505  0.98611890879959  0.7824769218279498  1.0000
  C   C18       1.0  0.26942389341261475  0.0138789068133178  0.2175199583703957  1.0000
  C   C19       1.0  0.6583346224136618  0.9523618655320193  0.6446793656658159  1.0000
  C   C20       1.0  0.3416607188810517  0.0476298728969411  0.3553173427680107  1.0000
  C   C21       1.0  0.2241813606450975  0.72034569516061  0.9108864030168036  1.0000
  C   C22       1.0  0.7758629016832116  0.2796509679752504  0.08912635787454092  1.0000
  C   C23       1.0  0.3747383656040526  0.6581109527189994  0.6006922553928645  1.0000
  C   C24       1.0  0.6252473697332589  0.341889294356065  0.3993069372746731  1.0000
  S   S1        1.0  0.37804163572617006  0.7334754534982508  0.8215328234834445  1.0000
  S   S2        1.0  0.6219659158406329  0.26652604490689674  0.178466649477997  1.0000
  S   S3        1.0  0.2646719387325619  0.5931631242008777  0.6974672811823764  1.0000
  S   S4        1.0  0.7353259524814033  0.40683469696379865  0.3025376772866721  1.0000
  N   N1        1.0  0.391884367449073  0.5849086486853564  0.7750491881401018  1.0000
  N   N2        1.0  0.6081155096467228  0.4150903947867591  0.2249550068313084  1.0000
  O   O1        1.0  0.20827429564611316  0.161061715416011  0.6006208312563784  1.0000
  O   O2        1.0  0.7917230774515929  0.838937332366619  0.39937771345522327  1.0000
  O   O3        1.0  0.9710369580388658  0.25964111385583516  0.7357589821189593  1.0000
  O   O4        1.0  0.028962896012693237  0.7403579368741974  0.2642401661910867  1.0000
  O   O5        1.0  0.14833274644181677  0.3195663445609113  0.8659067020931488  1.0000
  O   O6        1.0  0.8516661318683488  0.6804351403529979  0.1340928661880838  1.0000
  O   O7        1.0  0.49954840868080197  0.1026661114437957  0.8764328808181857  1.0000
  O   O8        1.0  0.5004457681363874  0.8973378045937538  0.123565255787554  1.0000
  O   O9        1.0  0.608073150481438  0.052010745110671094  0.7096508358208736  1.0000
  O   O10       1.0  0.3919134889186537  0.9479748873373737  0.2903471531533555  1.0000
  O   O11       1.0  0.2882878660957007  0.894472407714936  0.7726904131842643  1.0000
  O   O12       1.0  0.7117129838609627  0.10552420248054518  0.227312730983293  1.0000
  O   O13       1.0  0.5474675496260701  0.6967189982366762  0.8647066774110216  1.0000
  O   O14       1.0  0.4525548300532662  0.30328253599767413  0.13528380048767022  1.0000
  O   O15       1.0  0.08652767584120377  0.7146812686793281  0.690938110728446  1.0000
  O   O16       1.0  0.9134642892457734  0.28531897714546534  0.3090685838455798  1.0000
  O   O17       1.0  0.2884424371664878  0.42814172745049456  0.6892845996278467  1.0000
  O   O18       1.0  0.7115569506183449  0.5718585335671803  0.3107194899128202  1.0000
  F   F1        1.0  0.17242669299460558  0.8599489013377591  0.9451262567401315  1.0000
  F   F2        1.0  0.8276374025618907  0.1400477899135097  0.05488817877542121  1.0000
  F   F3        1.0  0.07596392234244576  0.70266247401662  0.8832101730987602  1.0000
  F   F4        1.0  0.9240643617984503  0.2973463263624297  0.11681616519059189  1.0000
  F   F5        1.0  0.30776941055682966  0.5938392859118197  0.9734286481916854  1.0000
  F   F6        1.0  0.6922820169351311  0.4061549544912424  0.02658236297757101  1.0000
  F   F7        1.0  0.3529047549731813  0.8168806991283759  0.5916363857740237  1.0000
  F   F8        1.0  0.6470737921562487  0.1831219779374038  0.4083595099542379  1.0000
  F   F9        1.0  0.5515328578456787  0.5685618228344325  0.6049566583063566  1.0000
  F   F10       1.0  0.44845512090767414  0.43144208447375115  0.3950409155522721  1.0000
  F   F11       1.0  0.3015201102651162  0.6345526219810936  0.5298448723147686  1.0000
  F   F12       1.0  0.6984581766168816  0.36544151650417683  0.4701587414394268  1.0000
