data_image0
_chemical_formula_structural       K2H48C40I4Cl2O12F36
_chemical_formula_sum              "K2 H48 C40 I4 Cl2 O12 F36"
_cell_length_a       9.78345009578267
_cell_length_b       12.210247750895729
_cell_length_c       15.2514
_cell_angle_alpha    104.90993931977927
_cell_angle_beta     108.6981439783646
_cell_angle_gamma    90.00263957957503

_space_group_name_H-M_alt    "P 1"
_space_group_IT_number       1

loop_
  _space_group_symop_operation_xyz
  'x, y, z'

loop_
  _atom_site_type_symbol
  _atom_site_label
  _atom_site_symmetry_multiplicity
  _atom_site_fract_x
  _atom_site_fract_y
  _atom_site_fract_z
  _atom_site_occupancy
  K   K1        1.0  0.49999899323559294  0.4999997826158165  0.9999998465338817  1.0000
  K   K2        1.0  0.4999996715796158  0.0  0.9999999652452869  1.0000
  H   H1        1.0  0.6734197799175875  0.6947715827321377  0.9012379022362537  1.0000
  H   H2        1.0  0.7721793998859212  0.805228616100564  0.09876487375860413  1.0000
  H   H3        1.0  0.3265792856414577  0.3052279824995026  0.09876201274242645  1.0000
  H   H4        1.0  0.2278196656731168  0.19477094913107612  0.9012343855425653  1.0000
  H   H5        1.0  0.7486102898062511  0.6083404156885025  0.8170290178087283  1.0000
  H   H6        1.0  0.9315757232455225  0.8916563792032335  0.18296901660296777  1.0000
  H   H7        1.0  0.2513899525361722  0.3916600005283826  0.18297065879227148  1.0000
  H   H8        1.0  0.06842451909690077  0.1083440370136444  0.8170306599980249  1.0000
  H   H9        1.0  0.5053013592628375  0.5432068562852237  0.7062369195810446  1.0000
  H   H10       1.0  0.7990589560507003  0.9567907895917501  0.29375800556397275  1.0000
  H   H11       1.0  0.49469780399173396  0.4567935599316543  0.2937631907865422  1.0000
  H   H12       1.0  0.20094128629172295  0.043209626625127805  0.7062416710370198  1.0000
  H   H13       1.0  0.4323880311349839  0.6296124937716172  0.7921146310599098  1.0000
  H   H14       1.0  0.6402757455438604  0.870374089297222  0.2078797687879684  1.0000
  H   H15       1.0  0.5676111321195876  0.3703879224452677  0.20788547930767715  1.0000
  H   H16       1.0  0.3597243991030297  0.129625475934418  0.792120368101635  1.0000
  H   H17       1.0  0.9027141028697585  0.4867235618623412  0.10145323070045006  1.0000
  H   H18       1.0  0.8012660793084193  0.013264306960096003  0.8985492631571005  1.0000
  H   H19       1.0  0.09728496268928669  0.5132760033692989  0.8985466842782299  1.0000
  H   H20       1.0  0.198734163034004  0.986736109256782  0.10145106912140987  1.0000
  H   H21       1.0  0.9907426459490977  0.6280994420121361  0.1392126295727464  1.0000
  H   H22       1.0  0.8515174640626454  0.8718828861304928  0.8607895952453857  1.0000
  H   H23       1.0  0.009257498697792202  0.3719001232195041  0.8607868516393393  1.0000
  H   H24       1.0  0.148482778279778  0.12811753008638502  0.13921073703311748  1.0000
  H   H25       1.0  0.9264137642964982  0.637084144192457  0.9737895266487652  1.0000
  H   H26       1.0  0.9526108643226436  0.8629075447878308  0.026205333723289866  1.0000
  H   H27       1.0  0.07358647804592519  0.36291627202442106  0.026210805629737894  1.0000
  H   H28       1.0  0.04738928032425349  0.1370920204438093  0.9737948031663064  1.0000
  H   H29       1.0  0.8481051283312837  0.4928651223506364  0.9372525219470089  1.0000
  H   H30       1.0  0.9108485937473247  0.0071270013980111015  0.06274488603170171  1.0000
  H   H31       1.0  0.15189393722775427  0.5071344428810036  0.06274739303167107  1.0000
  H   H32       1.0  0.08915164859509869  0.9928734148188667  0.9372547905692981  1.0000
  H   H33       1.0  0.38577826977688545  0.3684978842237712  0.7200437921087968  1.0000
  H   H34       1.0  0.6657358580361361  0.1314908355839037  0.27994739053568907  1.0000
  H   H35       1.0  0.6142219725655379  0.6315025319931067  0.2799558844922031  1.0000
  H   H36       1.0  0.3342643843062874  0.8685095806329743  0.7200522860653036  1.0000
  H   H37       1.0  0.2604390744625107  0.46515363894467754  0.6765244824319794  1.0000
  H   H38       1.0  0.5839160798506099  0.034844441700656106  0.32347822684732813  1.0000
  H   H39       1.0  0.7395611678799128  0.5348467772722003  0.32347584984653105  1.0000
  H   H40       1.0  0.41608426018734695  0.9651568255014669  0.676522300820089  1.0000
  H   H41       1.0  0.9171676328385627  0.5905522711843005  0.2678052331121562  1.0000
  H   H42       1.0  0.6493634524277141  0.9094445237074282  0.7321962482512062  1.0000
  H   H43       1.0  0.08283260950386047  0.4094481450325773  0.7321950991663471  1.0000
  H   H44       1.0  0.3506366922191759  0.0905550415242047  0.2678038886383972  1.0000
  H   H45       1.0  0.8120731729981968  0.6970020150502522  0.22394794815899377  1.0000
  H   H46       1.0  0.5881104409056661  0.8029888229447907  0.7760528060368371  1.0000
  H   H47       1.0  0.18792697164869307  0.302997550181388  0.7760521887306024  1.0000
  H   H48       1.0  0.41188980143675735  0.19701159327208734  0.2239481819191765  1.0000
  C   C1        1.0  0.2621925989679994  0.7987602772795128  0.3172854879057282  1.0000
  C   C2        1.0  0.9449592553011142  0.7012569412580163  0.6827138156595393  1.0000
  C   C3        1.0  0.7378075456788906  0.2012392879521272  0.6827146489838681  1.0000
  C   C4        1.0  0.055040987041309095  0.29874347495886167  0.31728586094146033  1.0000
  C   C5        1.0  0.3017063096322232  0.6980419190154308  0.3633208534489539  1.0000
  C   C6        1.0  0.9383839196893361  0.8019684916401675  0.6366756021231125  1.0000
  C   C7        1.0  0.6982938350146739  0.3019576462162092  0.6366792834406423  1.0000
  C   C8        1.0  0.061616322653087294  0.1980319245767106  0.36332473015539063  1.0000
  C   C9        1.0  0.2534203585285866  0.7026100077920887  0.4530258948430868  1.0000
  C   C10       1.0  0.8004140190390814  0.7973825321734367  0.5469666801619865  1.0000
  C   C11       1.0  0.7465798838138369  0.2973904084247891  0.5469744374354234  1.0000
  C   C12       1.0  0.1995861256078086  0.2026170330582033  0.45303345672760986  1.0000
  C   C13       1.0  0.3355686666852051  0.6266578730129453  0.5182566973996285  1.0000
  C   C14       1.0  0.8173290218082343  0.8733236041444458  0.4817330917237894  1.0000
  C   C15       1.0  0.6644315756572183  0.3733425432039397  0.4817436348788816  1.0000
  C   C16       1.0  0.1826711228386557  0.12667596108719442  0.518267045165814  1.0000
  C   C17       1.0  0.7073158229296437  0.6092339501921346  0.8766485420445917  1.0000
  C   C18       1.0  0.8306691700522177  0.8907636956848464  0.1233588850781827  1.0000
  C   C19       1.0  0.29268432171724607  0.3907656150395056  0.12335159484500477  1.0000
  C   C20       1.0  0.1693309745946721  0.10923586954679373  0.8766412518114137  1.0000
  C   C21       1.0  0.4702360761675735  0.5451309339163758  0.7686506055099895  1.0000
  C   C22       1.0  0.7015878362569409  0.9548420333885945  0.23134662504459402  1.0000
  C   C23       1.0  0.5297641661748499  0.4548694823005022  0.2313497267685206  1.0000
  C   C24       1.0  0.2984124060854824  0.04515838282828351  0.7686537072339161  1.0000
  C   C25       1.0  0.8861050850648482  0.5781832006983194  0.12028274079118964  1.0000
  C   C26       1.0  0.7658029468409565  0.9217999784295473  0.8797111061349764  1.0000
  C   C27       1.0  0.113893980494197  0.42181636453332066  0.8797171741874833  1.0000
  C   C28       1.0  0.2341971978059334  0.0781995868020928  0.12028903075461979  1.0000
  C   C29       1.0  0.8259635821812665  0.5829708436673045  0.9578998433329529  1.0000
  C   C30       1.0  0.8680645790262672  0.9170225472834659  0.0420971310547315  1.0000
  C   C31       1.0  0.17403558107330502  0.4170295725495806  0.04210026703463401  1.0000
  C   C32       1.0  0.13193566331615608  0.082977868933412  0.9579032012237787  1.0000
  C   C33       1.0  0.3480136967418516  0.45382872735008567  0.739665547218486  1.0000
  C   C34       1.0  0.6083449946013813  0.0461565885166308  0.2603206325890496  1.0000
  C   C35       1.0  0.6519853688171864  0.5461708378815544  0.2603343677601869  1.0000
  C   C36       1.0  0.39165524774104193  0.9538438277002543  0.739679044011943  1.0000
  C   C37       1.0  0.8328202310048097  0.6063014550497385  0.20522618902371886  1.0000
  C   C38       1.0  0.6276061176443335  0.8936749161962043  0.7947804612395755  1.0000
  C   C39       1.0  0.16717991364208015  0.39369811018190154  0.7947739478658773  1.0000
  C   C40       1.0  0.37239412469809  0.1063255000206809  0.20521987103893474  1.0000
  I   I1        1.0  0.3030364768136806  0.7726614109063024  0.179841575782028  1.0000
  I   I2        1.0  0.12325835831618548  0.7273847411294412  0.8201551158750744  1.0000
  I   I3        1.0  0.6969636678332165  0.22733815432533794  0.820157905430058  1.0000
  I   I4        1.0  0.8767417863307044  0.2726148241021988  0.17984502101452898  1.0000
  Cl  Cl1       1.0  0.6315629553480377  0.24998712652928393  1.2943144796247515e-06  1.0000
  Cl  Cl2       1.0  0.3684371892988523  0.7500124387023562  0.9999981868976061  1.0000
  O   O1        1.0  0.5876876445311439  0.5250195997027376  0.8452771052113517  1.0000
  O   O2        1.0  0.7424211767497936  0.9749814501152019  0.15471967773247286  1.0000
  O   O3        1.0  0.4123115187234276  0.4749808165141404  0.15472300515623513  1.0000
  O   O4        1.0  0.2575790655926298  0.0250189661016762  0.8452799988685199  1.0000
  O   O5        1.0  0.7808134049141771  0.6046267160943587  0.04060616777432099  1.0000
  O   O6        1.0  0.740196945579342  0.8953751847088257  0.9594087394509427  1.0000
  O   O7        1.0  0.21918683742824635  0.3953737001225193  0.9593941645041822  1.0000
  O   O8        1.0  0.25980329676308134  0.10462523150805943  0.040591592827567496  1.0000
  O   O9        1.0  0.2964111161473753  0.46482090371523554  0.8186961776584241  1.0000
  O   O10       1.0  0.4777178845942628  0.0351754749596225  0.18130504156935953  1.0000
  O   O11       1.0  0.7035890284995148  0.5351786615164045  0.18130395923117243  1.0000
  O   O12       1.0  0.5222823577481605  0.9648249412572625  0.8186952907091508  1.0000
  F   F1        1.0  0.11784093579797165  0.8130857628358257  0.30476412631958977  1.0000
  F   F2        1.0  0.8131219180890668  0.6869246478197725  0.6952488910474556  1.0000
  F   F3        1.0  0.8821593065444517  0.18691465338105226  0.6952355502814099  1.0000
  F   F4        1.0  0.18687822655782324  0.31307491741186777  0.30475059016463035  1.0000
  F   F5        1.0  0.3411791057520333  0.896190428570236  0.3810619189241463  1.0000
  F   F6        1.0  0.9601432753035581  0.6038233860263348  0.6189364562158913  1.0000
  F   F7        1.0  0.6588211365903902  0.10380998764664891  0.6189384133543567  1.0000
  F   F8        1.0  0.03985696703886529  0.39617703019055034  0.38106387606261183  1.0000
  F   F9        1.0  0.2375632238354441  0.5985864228498131  0.2954701663218343  1.0000
  F   F10       1.0  0.9420094097367481  0.9014129249976506  0.7045248333922556  1.0000
  F   F11       1.0  0.7624369208114458  0.401413142381827  0.7045293148902514  1.0000
  F   F12       1.0  0.0579907349101489  0.09858664023398941  0.29547530349734064  1.0000
  F   F13       1.0  0.44892346133214284  0.6940227157195693  0.3904163910898148  1.0000
  F   F14       1.0  0.058539566988194694  0.8060447109472122  0.6096099923229089  1.0000
  F   F15       1.0  0.5510757019224357  0.3059777004973085  0.6095830636002616  1.0000
  F   F16       1.0  0.9414607730497618  0.19395655625491065  0.3903905353445082  1.0000
  F   F17       1.0  0.27384336901808126  0.811683339157746  0.5102659287954052  1.0000
  F   F18       1.0  0.7635751426134191  0.6883023929258486  0.4897431609772055  1.0000
  F   F19       1.0  0.7261567756288086  0.1883162260738942  0.489734208094191  1.0000
  F   F20       1.0  0.2364240206411594  0.3116980232910365  0.5102569493903814  1.0000
  F   F21       1.0  0.10964672472571378  0.6665792926647073  0.42152389905186977  1.0000
  F   F22       1.0  0.6881607161916037  0.8334192041975117  0.5784919901838348  1.0000
  F   F23       1.0  0.8903545967045615  0.3334211235521707  0.5784759994600461  1.0000
  F   F24       1.0  0.3118394284552863  0.16658036103412852  0.4215081467057614  1.0000
  F   F25       1.0  0.3415379260092877  0.5210242239936421  0.4646027734662183  1.0000
  F   F26       1.0  0.8770498303910156  0.9789436373998799  0.5353822697322669  1.0000
  F   F27       1.0  0.6584623163331358  0.4789761922232359  0.5353975588122849  1.0000
  F   F28       1.0  0.12295031425588118  0.0210559278317604  0.46461786715733655  1.0000
  F   F29       1.0  0.47180313966647697  0.6731727263162669  0.571407997932411  1.0000
  F   F30       1.0  0.9003357048216002  0.8267398210365544  0.4285504251523377  1.0000
  F   F31       1.0  0.5281970049804129  0.32682683891537323  0.4285921389571924  1.0000
  F   F32       1.0  0.0996644398252968  0.1732597441950858  0.5714497117372586  1.0000
  F   F33       1.0  0.2637451845071368  0.6183445981882018  0.5792665015179208  1.0000
  F   F34       1.0  0.6845146483007126  0.8816964479360936  0.4207797265378089  1.0000
  F   F35       1.0  0.7362550578352867  0.38165581802867626  0.4207331750830717  1.0000
  F   F36       1.0  0.3154844172583323  0.11830311729554673  0.5792201884408711  1.0000
