data_image0
_chemical_formula_structural       Mn2H28PtC38S6N10O4
_chemical_formula_sum              "Mn2 H28 Pt1 C38 S6 N10 O4"
_cell_length_a       10.199082618324441
_cell_length_b       10.526300919388149
_cell_length_c       10.967460452300202
_cell_angle_alpha    95.07734128628803
_cell_angle_beta     107.90433807778511
_cell_angle_gamma    107.8509233953907

_space_group_name_H-M_alt    "P 1"
_space_group_IT_number       1

loop_
  _space_group_symop_operation_xyz
  'x, y, z'

loop_
  _atom_site_type_symbol
  _atom_site_label
  _atom_site_symmetry_multiplicity
  _atom_site_fract_x
  _atom_site_fract_y
  _atom_site_fract_z
  _atom_site_occupancy
  Mn  Mn1       1.0  0.5026174141180134  0.4148739879026452  0.365811821312505  1.0000
  Mn  Mn2       1.0  0.4973844359564126  0.585123131476969  0.6341868229861588  1.0000
  H   H1        1.0  0.14884856376952627  0.5382905703230491  0.11785042000067848  1.0000
  H   H2        1.0  0.8511494186480135  0.46170452448849625  0.8821487737283604  1.0000
  H   H3        1.0  0.1575173441581512  0.6815711282697166  0.9494386713053515  1.0000
  H   H4        1.0  0.8424814173425758  0.3184260008382935  0.05055999955963131  1.0000
  H   H5        1.0  0.39208310908589544  0.7877899387554878  0.9116958973218203  1.0000
  H   H6        1.0  0.607916821966512  0.2122102547307847  0.08830518184609555  1.0000
  H   H7        1.0  0.6144720281157348  0.7364615291573812  0.032656852608347636  1.0000
  H   H8        1.0  0.3855249241593057  0.26353356027458125  0.9673402215767908  1.0000
  H   H9        1.0  0.7325407365742435  0.624436573373572  0.17555645008317103  1.0000
  H   H10       1.0  0.2674590542744966  0.375560550028105  0.824441603812275  1.0000
  H   H11       1.0  0.8810878283724576  0.5528670991198794  0.33352470713994364  1.0000
  H   H12       1.0  0.11891739015333506  0.44713614330992596  0.6664781367950567  1.0000
  H   H13       1.0  0.7734374102885014  0.3768620423864918  0.27995585219976254  1.0000
  H   H14       1.0  0.22657128595533746  0.6231422019201958  0.7200453354801652  1.0000
  H   H15       1.0  0.8876152038880248  0.39780173622119724  0.5118292348240274  1.0000
  H   H16       1.0  0.11238586736803315  0.6021933525572579  0.4881708445098313  1.0000
  H   H17       1.0  0.8533977663459636  0.5507067986715768  0.5494453755473643  1.0000
  H   H18       1.0  0.14661040160917338  0.44929337872645886  0.450558065233416  1.0000
  H   H19       1.0  0.7486039422890797  0.2597537372330407  0.6104968950056033  1.0000
  H   H20       1.0  0.25139804904832636  0.7402464670123905  0.3895084232501134  1.0000
  H   H21       1.0  0.1661226847959725  0.20781744240203892  0.5225203235183002  1.0000
  H   H22       1.0  0.8338741849121333  0.7921909003362797  0.4774768929837804  1.0000
  H   H23       1.0  0.15629822376011754  0.0084893780087683  0.629772863947963  1.0000
  H   H24       1.0  0.8436983964776487  0.9915210158182645  0.37022718317304276  1.0000
  H   H25       1.0  0.3744830465718962  0.9368889093573713  0.701802383567589  1.0000
  H   H26       1.0  0.6255124051735023  0.0631184348726137  0.29819890393506643  1.0000
  H   H27       1.0  0.6047578272938096  0.0685496985644605  0.6668635442863645  1.0000
  H   H28       1.0  0.3952395442680868  0.9314545826447757  0.33313804486046905  1.0000
  Pt  Pt1       1.0  7.637363382463353e-07  0.9999987536557668  0.9999971906935555  1.0000
  C   C1        1.0  0.37457540508538045  0.5520155376353486  0.16797234109868947  1.0000
  C   C2        1.0  0.6254205175768136  0.447979553807649  0.83202443788484  1.0000
  C   C3        1.0  0.24934039222361562  0.580497594440587  0.09671804873972432  1.0000
  C   C4        1.0  0.7506573401939249  0.41949954406906903  0.903282151265941  1.0000
  C   C5        1.0  0.2561357008036609  0.662686776764204  0.004930779092582283  1.0000
  C   C6        1.0  0.743864620982066  0.3373144504991785  0.9950741434134684  1.0000
  C   C7        1.0  0.38796871486154316  0.7217771895676888  0.9824628792591312  1.0000
  C   C8        1.0  0.612034195497884  0.278228115363504  0.017544029233860725  1.0000
  C   C9        1.0  0.5114812188549748  0.6937591142749469  0.050118870401810484  1.0000
  C   C10       1.0  0.4885179331142453  0.306239044914868  0.9498827316301615  1.0000
  C   C11       1.0  0.5075045443240214  0.6079782104947142  0.14198588298776826  1.0000
  C   C12       1.0  0.4924948581748581  0.3920179123876011  0.8580165371098544  1.0000
  C   C13       1.0  0.6374434502826034  0.5788762087568244  0.2044948359642333  1.0000
  C   C14       1.0  0.3625567297104837  0.42112192625013023  0.7955015882424733  1.0000
  C   C15       1.0  0.7872455433655501  0.4720009837345033  0.3410012083546192  1.0000
  C   C16       1.0  0.21275928522140933  0.5280012360041157  0.6590005287556834  1.0000
  C   C17       1.0  0.8104785912873709  0.4520945116585438  0.4810721588834922  1.0000
  C   C18       1.0  0.18952403919438154  0.5479046604940622  0.5189305234068442  1.0000
  C   C19       1.0  0.650680772478843  0.2817663111499015  0.5559028028915733  1.0000
  C   C20       1.0  0.34931954824757133  0.7182349013322594  0.4440984709298945  1.0000
  C   C21       1.0  0.5137978744691836  0.20795193215792548  0.5701415801385039  1.0000
  C   C22       1.0  0.48619885582973416  0.792053351581707  0.4298553476045369  1.0000
  C   C23       1.0  0.3878988067279749  0.24782503662392946  0.528324615891762  1.0000
  C   C24       1.0  0.6120985643042687  0.7521792371946957  0.4716751489127802  1.0000
  C   C25       1.0  0.2605514747215878  0.1747512425154198  0.5522777864307002  1.0000
  C   C26       1.0  0.7394456455161702  0.8252550639153994  0.44772024813703837  1.0000
  C   C27       1.0  0.2563933439059554  0.06394541668335312  0.6130169849147009  1.0000
  C   C28       1.0  0.743602107044957  0.9360619164607159  0.3869815660745175  1.0000
  C   C29       1.0  0.37955570314562687  0.023979044449411905  0.6543677069708309  1.0000
  C   C30       1.0  0.6204393586609385  0.9760272770893865  0.34563247370712713  1.0000
  C   C31       1.0  0.5070808570902942  0.0967733630522645  0.6342869467570011  1.0000
  C   C32       1.0  0.49291406424777046  0.9032298847066259  0.3657092964773412  1.0000
  C   C33       1.0  0.01838784306630003  0.260762236796019  0.8610829943808298  1.0000
  C   C34       1.0  0.9816085766827739  0.7392287266024198  0.1389017381668296  1.0000
  C   C35       1.0  0.9828968703110161  0.16473511721813597  0.2566402032824086  1.0000
  C   C36       1.0  0.017109098744427356  0.8352620015079637  0.7433614461649753  1.0000
  C   C37       1.0  0.3466985293120429  0.11989569220758506  0.15797869818074867  1.0000
  C   C38       1.0  0.6533081124730346  0.8801086226366551  0.8420383181765773  1.0000
  S   S1        1.0  0.09325056707465512  0.24261793766277154  0.012772151375195107  1.0000
  S   S2        1.0  0.9067461320224481  0.7573791511236436  0.9872149830328281  1.0000
  S   S3        1.0  0.0546081938375949  0.04721519020137071  0.23235174609318676  1.0000
  S   S4        1.0  0.9453914570723043  0.9527788668110092  0.767644194700935  1.0000
  S   S5        1.0  0.2399844389641288  0.9857981012438087  0.041004795728746  1.0000
  S   S6        1.0  0.7600167724956036  0.014200057619248701  0.9589983088775894  1.0000
  N   N1        1.0  0.651665684279969  0.5024058890541666  0.29103256976762276  1.0000
  N   N2        1.0  0.34833694540729715  0.49759327201252307  0.7089673760092836  1.0000
  N   N3        1.0  0.6665410864955489  0.37412303403341707  0.48538395259236466  1.0000
  N   N4        1.0  0.333461042926892  0.6258802107341808  0.5146170935666632  1.0000
  N   N5        1.0  0.9707439717139295  0.28084248693572517  0.755097417529818  1.0000
  N   N6        1.0  0.0292539787073026  0.7191444018366937  0.24488924635076614  1.0000
  N   N7        1.0  0.932563727928205  0.24587965851813456  0.2827698621700208  1.0000
  N   N8        1.0  0.06744338186055643  0.7541123628907654  0.7172326117855903  1.0000
  N   N9        1.0  0.42912693132463176  0.21414769927707766  0.24182739994036956  1.0000
  N   N10       1.0  0.5708680770824585  0.7858423579956479  0.7581842078864937  1.0000
  O   O1        1.0  0.3636339445207071  0.4753266542536494  0.2559465796254443  1.0000
  O   O2        1.0  0.636359389832613  0.5246643632168357  0.74404912554229  1.0000
  O   O3        1.0  0.3881491810309257  0.3554909886409803  0.47211474917048685  1.0000
  O   O4        1.0  0.6118533682080382  0.6445214552944947  0.5278926362925205  1.0000
