data_image0
_chemical_formula_structural       Ag8H4C20O16
_chemical_formula_sum              "Ag8 H4 C20 O16"
_cell_length_a       6.2768205675505895
_cell_length_b       8.405726489537786
_cell_length_c       10.89416976677775
_cell_angle_alpha    89.67168139213508
_cell_angle_beta     90.0004211178811
_cell_angle_gamma    89.99851720442562

_space_group_name_H-M_alt    "P 1"
_space_group_IT_number       1

loop_
  _space_group_symop_operation_xyz
  'x, y, z'

loop_
  _atom_site_type_symbol
  _atom_site_label
  _atom_site_symmetry_multiplicity
  _atom_site_fract_x
  _atom_site_fract_y
  _atom_site_fract_z
  _atom_site_occupancy
  Ag  Ag1       1.0  0.5474624585953762  0.8996196243328569  0.2976920476383711  1.0000
  Ag  Ag2       1.0  0.047464729228835295  0.10037076845468108  0.2023043057312961  1.0000
  Ag  Ag3       1.0  0.45255538678048873  0.10034642626467162  0.7023192397659982  1.0000
  Ag  Ag4       1.0  0.9525403694867478  0.8996642536065022  0.7976858870196821  1.0000
  Ag  Ag5       1.0  0.8312086246850041  0.14925418088048295  0.5576864676969393  1.0000
  Ag  Ag6       1.0  0.33119579089848367  0.8507434133255101  0.9423168326879079  1.0000
  Ag  Ag7       1.0  0.1688060340398181  0.8507287546097189  0.4423206846877292  1.0000
  Ag  Ag8       1.0  0.6688140874378732  0.1492844279097625  0.0576740837987373  1.0000
  H   H1        1.0  0.8020491857488139  0.6114082757804693  0.3785559709799599  1.0000
  H   H2        1.0  0.3020386460046184  0.388571816778203  0.1214541233658082  1.0000
  H   H3        1.0  0.19796387984560943  0.3885702454494789  0.6214446307177681  1.0000
  H   H4        1.0  0.6979616737262828  0.6114387992018847  0.878547349702778  1.0000
  C   C1        1.0  0.5840379010030787  0.6492209371639177  0.5294747180260373  1.0000
  C   C2        1.0  0.08402706907120461  0.3507667265372874  0.9705345370251022  1.0000
  C   C3        1.0  0.41598313013685845  0.3507803849764527  0.47054487656081523  1.0000
  C   C4        1.0  0.9159605059410937  0.6492032095883358  0.02944837640522019  1.0000
  C   C5        1.0  0.6670202220286896  0.5640477872547152  0.4301799186867258  1.0000
  C   C6        1.0  0.16699138515250667  0.43593884079618306  0.0698223888224589  1.0000
  C   C7        1.0  0.33298965761271393  0.4359124658910714  0.5698284552227193  1.0000
  C   C8        1.0  0.832967511960412  0.5640910864623618  0.9301740963274979  1.0000
  C   C9        1.0  0.41584608318981964  0.5844791417814931  0.5998337318680456  1.0000
  C   C10       1.0  0.9158303366986401  0.41553803706295867  0.9001741603213702  1.0000
  C   C11       1.0  0.5841701691169091  0.41547788571787675  0.4001681236444695  1.0000
  C   C12       1.0  0.0841444916252172  0.5845241032681867  0.0998434106647679  1.0000
  C   C13       1.0  0.6717772088416681  0.808198931676827  0.5623515513566913  1.0000
  C   C14       1.0  0.1717794750689094  0.19179283159616034  0.9376389219652594  1.0000
  C   C15       1.0  0.32822789126350227  0.19176687583941285  0.43766432287050344  1.0000
  C   C16       1.0  0.8282224376362066  0.8082232687376559  0.062348919656727696  1.0000
  C   C17       1.0  0.31242011137528886  0.680189406284036  0.6999014822127164  1.0000
  C   C18       1.0  0.8124302589615625  0.31983125642727106  0.8000775543805786  1.0000
  C   C19       1.0  0.6875881746744882  0.3197926324207855  0.3001001336669162  1.0000
  C   C20       1.0  0.1875684671744295  0.680195931271349  0.19990323874285557  1.0000
  O   O1        1.0  0.7573295562896264  0.8957166950588725  0.4775258409998245  1.0000
  O   O2        1.0  0.25733083418429464  0.10428067766748937  0.0224661451522152  1.0000
  O   O3        1.0  0.24267395048385512  0.10425340815160672  0.52247636950041  1.0000
  O   O4        1.0  0.7426455874090935  0.8957576948598173  0.9775057646947047  1.0000
  O   O5        1.0  0.6538270197431402  0.8521559330159291  0.6729444637340548  1.0000
  O   O6        1.0  0.15383091595180082  0.1478551649459092  0.8270694200855927  1.0000
  O   O7        1.0  0.3461828596479322  0.14781441333672515  0.3270531599305002  1.0000
  O   O8        1.0  0.8461630305577542  0.8521928568451569  0.1729450115426232  1.0000
  O   O9        1.0  0.35580962751718914  0.6486295417890061  0.8105994343558152  1.0000
  O   O10       1.0  0.8558044151710577  0.3513755139748368  0.6894115301523058  1.0000
  O   O11       1.0  0.6441938788241187  0.3513676094463988  0.1894090226634333  1.0000
  O   O12       1.0  0.14419590471077734  0.6486256897669588  0.3105878499852963  1.0000
  O   O13       1.0  0.18099316786238973  0.7865810262574796  0.6619466712390291  1.0000
  O   O14       1.0  0.6809741106538214  0.21342543040327655  0.838055267211949  1.0000
  O   O15       1.0  0.8190151180473677  0.21340511356390826  0.33804495039567667  1.0000
  O   O16       1.0  0.3189816006234878  0.7865801880401758  0.1619506635194128  1.0000
