data_image0
_chemical_formula_structural       Al2H10C26N2Cl6O10
_chemical_formula_sum              "Al2 H10 C26 N2 Cl6 O10"
_cell_length_a       6.604952091957848
_cell_length_b       11.076738904387962
_cell_length_c       16.92328204343243
_cell_angle_alpha    83.8487526923268
_cell_angle_beta     82.80916270905219
_cell_angle_gamma    73.73716580976777

_space_group_name_H-M_alt    "P 1"
_space_group_IT_number       1

loop_
  _space_group_symop_operation_xyz
  'x, y, z'

loop_
  _atom_site_type_symbol
  _atom_site_label
  _atom_site_symmetry_multiplicity
  _atom_site_fract_x
  _atom_site_fract_y
  _atom_site_fract_z
  _atom_site_occupancy
  Al  Al1       1.0  0.49178973408547916  0.5056804311210783  0.4973591419781444  1.0000
  Al  Al2       1.0  0.9921219889065894  0.5035912005135972  0.4992564163232345  1.0000
  H   H1        1.0  0.18228501160283625  0.6584977984065504  0.45149035865161125  1.0000
  H   H2        1.0  0.7416774471223205  0.4326564333070239  0.5944339579226324  1.0000
  H   H3        1.0  0.9138572000293052  0.41192700075298927  0.7424276977180571  1.0000
  H   H4        1.0  0.8670390936940819  0.3967252689715367  0.8917956091925419  1.0000
  H   H5        1.0  0.3959957654371919  0.5524257175921435  0.8920349838974533  1.0000
  H   H6        1.0  0.5694265979559958  0.5641695918126433  0.09726431963882483  1.0000
  H   H7        1.0  0.23186753919036823  0.3948490484812908  0.12276496983009372  1.0000
  H   H8        1.0  0.15554824151225682  0.41271096975759763  0.2705427182170653  1.0000
  H   H9        1.0  0.8313468214218248  0.7689395985907128  0.6133529415278005  1.0000
  H   H10       1.0  0.6314068049301299  0.23789654179992678  0.5906636499702105  1.0000
  C   C1        1.0  0.6219269200110772  0.7318785546292831  0.5038901468845653  1.0000
  C   C2        1.0  0.7967640608168625  0.5055111920967192  0.3560463587890723  1.0000
  C   C3        1.0  0.360759953388076  0.2815512518155928  0.48987726738335624  1.0000
  C   C4        1.0  0.19567095907467538  0.49414928828810656  0.6437074766491477  1.0000
  C   C5        1.0  0.17980522084901904  0.4895584329588376  0.732653104504145  1.0000
  C   C6        1.0  0.01905699103629386  0.44191666286375414  0.776019181768014  1.0000
  C   C7        1.0  0.9918365112133002  0.43370921080865804  0.8586813596782437  1.0000
  C   C8        1.0  0.1280006263451979  0.4751394123422728  0.9003063730713949  1.0000
  C   C9        1.0  0.2925120317588111  0.5202460544785978  0.8587342183937923  1.0000
  C   C10       1.0  0.3174279775957701  0.528444481033084  0.7754873998842131  1.0000
  C   C11       1.0  0.6974592807579327  0.5307654684631375  0.1357435823048476  1.0000
  C   C12       1.0  0.9042576247125284  0.4803483179025322  0.10146241489448471  1.0000
  C   C13       1.0  0.0719584958766646  0.43579132427557704  0.14985446335268193  1.0000
  C   C14       1.0  0.028930265012526463  0.4455509050630014  0.2314754637614698  1.0000
  C   C15       1.0  0.8229989898571263  0.49912640676161873  0.26756563297571745  1.0000
  C   C16       1.0  0.6562120809145922  0.5422793399621355  0.21787464414752122  1.0000
  C   C17       1.0  0.5551171266084367  0.8733165175188093  0.5011520179681314  1.0000
  C   C18       1.0  0.6413669915849098  0.9375209471883963  0.5515830105170283  1.0000
  C   C19       1.0  0.4125434261924069  0.9413627168123925  0.44819952239566874  1.0000
  C   C20       1.0  0.7845247423396058  0.8715379041738985  0.6074846476042952  1.0000
  C   C21       1.0  0.870123836838694  0.935195573439863  0.6544010258621074  1.0000
  C   C22       1.0  0.43016908520737457  0.14016501820677263  0.49239820517414057  1.0000
  C   C23       1.0  0.347540268055397  0.0756491205165943  0.4444461872297652  1.0000
  C   C24       1.0  0.5809393278537555  0.07268125352971569  0.5460899755635114  1.0000
  C   C25       1.0  0.6710847637560491  0.13562901243030723  0.595139772051077  1.0000
  C   C26       1.0  0.8140541582362104  0.0693225046798602  0.647425697212384  1.0000
  N   N1        1.0  0.10994218326977992  0.4766144348362077  0.9844427230124283  1.0000
  N   N2        1.0  0.9257697388352284  0.47970979401228664  0.01737748873552651  1.0000
  Cl  Cl1       1.0  0.5141727729710439  0.5942309496619275  0.7288485474586326  1.0000
  Cl  Cl2       1.0  0.3964711117055727  0.6131866056224384  0.2516659017664935  1.0000
  Cl  Cl3       1.0  0.1728718713191384  0.15646871178870467  0.3772996083083626  1.0000
  Cl  Cl4       1.0  0.32103949932420744  0.8658738867604255  0.3820359637970228  1.0000
  Cl  Cl5       1.0  0.04580220398214131  0.8512791551129485  0.7204981432485555  1.0000
  Cl  Cl6       1.0  0.9248057702349328  0.1505996471577831  0.7036534593025295  1.0000
  O   O1        1.0  0.4754859504300838  0.676677288866273  0.5186096115007146  1.0000
  O   O2        1.0  0.9650930168410528  0.4847298478766293  0.39069124730144017  1.0000
  O   O3        1.0  0.16555187102883195  0.3329711375077623  0.5078119769463998  1.0000
  O   O4        1.0  0.3802864361416524  0.4707798301238599  0.6063334070078384  1.0000
  O   O5        1.0  0.5050524443063864  0.3382528517130581  0.47323426133119284  1.0000
  O   O6        1.0  0.022449887298201052  0.5174674550014374  0.6116649902644229  1.0000
  O   O7        1.0  0.8195341132403157  0.6791464548100947  0.49085678822481793  1.0000
  O   O8        1.0  0.6104696297782154  0.5311265245557878  0.39162343473292094  1.0000
  O   O9        1.0  0.22093409986977258  0.5684679316767289  0.46646239297150077  1.0000
  O   O10       1.0  0.7561330349444972  0.44697606603888573  0.5365991135161964  1.0000
