data_image0
_chemical_formula_structural       Cu2H56C52N4O16
_chemical_formula_sum              "Cu2 H56 C52 N4 O16"
_cell_length_a       9.078538796050017
_cell_length_b       11.08715044142463
_cell_length_c       13.412569889818624
_cell_angle_alpha    107.71280513273476
_cell_angle_beta     89.99967165465655
_cell_angle_gamma    90.00028503625863

_space_group_name_H-M_alt    "P 1"
_space_group_IT_number       1

loop_
  _space_group_symop_operation_xyz
  'x, y, z'

loop_
  _atom_site_type_symbol
  _atom_site_label
  _atom_site_symmetry_multiplicity
  _atom_site_fract_x
  _atom_site_fract_y
  _atom_site_fract_z
  _atom_site_occupancy
  Cu  Cu1       1.0  1.5553957409999911e-07  2.023720519200877e-06  0.9999995805340449  1.0000
  Cu  Cu2       1.0  0.49999988213541247  0.9999981149178863  0.4999996417376451  1.0000
  H   H1        1.0  0.6261299981564221  0.0698003982109228  0.685405414581318  1.0000
  H   H2        1.0  0.126132000544338  0.9302010638899603  0.81459663377872  1.0000
  H   H3        1.0  0.37386672355442124  0.9301989928685754  0.31459610126012183  1.0000
  H   H4        1.0  0.8738691271669196  0.06979927178565498  0.18540437228733714  1.0000
  H   H5        1.0  0.7636215410707976  0.0681349275878347  0.8835894686328915  1.0000
  H   H6        1.0  0.26361862935671343  0.9318631390348668  0.6164082194142324  1.0000
  H   H7        1.0  0.23637738365355432  0.9318644523018873  0.11640831655414974  1.0000
  H   H8        1.0  0.7363780923548332  0.0681334070825486  0.3835910950817195  1.0000
  H   H9        1.0  0.43670679279620117  0.7729444384598023  0.8238155446277132  1.0000
  H   H10       1.0  0.9367014197001282  0.22705225025017475  0.6761848595882967  1.0000
  H   H11       1.0  0.5632965379045487  0.22705495486792424  0.17618671733357166  1.0000
  H   H12       1.0  0.06329530201200129  0.7729461917624288  0.32381567376125275  1.0000
  H   H13       1.0  0.592476686843696  0.6684466431250654  0.9297345584316686  1.0000
  H   H14       1.0  0.09247381892183877  0.3315518781437063  0.5702661400566669  1.0000
  H   H15       1.0  0.4075266438639673  0.33155464162065573  0.0702674301228328  1.0000
  H   H16       1.0  0.9075240042872607  0.6684456170422095  0.42973415692945593  1.0000
  H   H17       1.0  0.8307120001498801  0.7722475073419588  0.005425448155989391  1.0000
  H   H18       1.0  0.33071150256797205  0.22775536565077198  0.49457634228021163  1.0000
  H   H19       1.0  0.1692902290708957  0.22775661340985207  0.9945757572249576  1.0000
  H   H20       1.0  0.6692885236425636  0.7722440231949432  0.5054244274258721  1.0000
  H   H21       1.0  0.3985219522308086  0.94823964406455  0.7563981134454921  1.0000
  H   H22       1.0  0.8985215483188256  0.05175598875175069  0.743602920051032  1.0000
  H   H23       1.0  0.6014758709764151  0.0517569042930717  0.24360194717893083  1.0000
  H   H24       1.0  0.10147847788479677  0.9482415086759701  0.2563981230618353  1.0000
  H   H25       1.0  0.4893024064346037  0.09241750718703658  0.8207982702285364  1.0000
  H   H26       1.0  0.9893055547673125  0.9075793393321021  0.6792034616085162  1.0000
  H   H27       1.0  0.51069431527565  0.9075799879972732  0.17920202675930597  1.0000
  H   H28       1.0  0.0106955729319935  0.092418160335825  0.320798327632815  1.0000
  H   H29       1.0  0.3083322153840414  0.5431571852256738  0.7521423012363472  1.0000
  H   H30       1.0  0.8083177178208415  0.4568533294368107  0.7478613041059106  1.0000
  H   H31       1.0  0.6916733183269415  0.456846940008141  0.24786039639980828  1.0000
  H   H32       1.0  0.19167459791923847  0.5431488886895649  0.2521364440463856  1.0000
  H   H33       1.0  0.19902680441943227  0.678432432383822  0.160005570185568  1.0000
  H   H34       1.0  0.6990305273988325  0.3215662671925941  0.3399949408460188  1.0000
  H   H35       1.0  0.8009732217954519  0.32157074601366986  0.8399968910975064  1.0000
  H   H36       1.0  0.30097060031886963  0.6784293231485633  0.6600011527605787  1.0000
  H   H37       1.0  0.05310118256114288  0.5668093312192538  0.1168864028694188  1.0000
  H   H38       1.0  0.5531030152337307  0.4331860935327042  0.38311087131124566  1.0000
  H   H39       1.0  0.9468988436531517  0.43319195128304955  0.883114839560065  1.0000
  H   H40       1.0  0.44689921397649357  0.5668095012872526  0.6168867145540062  1.0000
  H   H41       1.0  0.041683587676580196  0.7199245895152231  0.09893953299348368  1.0000
  H   H42       1.0  0.5416854375572624  0.28007364691583087  0.4010599782700766  1.0000
  H   H43       1.0  0.958318641538568  0.28007669075169866  0.9010609633023563  1.0000
  H   H44       1.0  0.4583167916585892  0.7199247883890081  0.5989383166802754  1.0000
  H   H45       1.0  0.41518019518217386  0.3044266955499281  0.7489266599818052  1.0000
  H   H46       1.0  0.9151748334717879  0.6955746555957633  0.7510720089008843  1.0000
  H   H47       1.0  0.5848198310352827  0.6955745847137819  0.2510738363174809  1.0000
  H   H48       1.0  0.0848185837400521  0.3044218927554353  0.2489280517304309  1.0000
  H   H49       1.0  0.30932120043538447  0.24247987917861022  0.8339173132181159  1.0000
  H   H50       1.0  0.8093257501640424  0.7575230615296389  0.6660836519749723  1.0000
  H   H51       1.0  0.6906777242819402  0.7575223501503885  0.16608416557478733  1.0000
  H   H52       1.0  0.19067427604709047  0.24247822321126475  0.33391833658469483  1.0000
  H   H53       1.0  0.48237002296632153  0.3168450132763922  0.8755148185019834  1.0000
  H   H54       1.0  0.9823645602989969  0.6831517995902769  0.6244824582659945  1.0000
  H   H55       1.0  0.5176311047443534  0.6831534265040418  0.12448496871047607  1.0000
  H   H56       1.0  0.017631059907373  0.3168447510027263  0.37551834849206506  1.0000
  C   C1        1.0  0.7215723623852311  0.9787971572001053  0.8901808694539497  1.0000
  C   C2        1.0  0.22157167571291575  0.0212026782678194  0.6098166767982108  1.0000
  C   C3        1.0  0.2784276638348046  0.021202224929822898  0.10981766186155541  1.0000
  C   C4        1.0  0.7784261475081421  0.9787976529257844  0.39018283701263806  1.0000
  C   C5        1.0  0.5894145747471098  0.9272944056089328  0.8430070645313704  1.0000
  C   C6        1.0  0.08941269894227588  0.0727031554295436  0.656991914917846  1.0000
  C   C7        1.0  0.4105843499658731  0.07270403416828938  0.15699272268454223  1.0000
  C   C8        1.0  0.9105862257725831  0.9272962311759728  0.3430081086597668  1.0000
  C   C9        1.0  0.5410947182312427  0.8143713017307802  0.8578519512520019  1.0000
  C   C10       1.0  0.041089249779091085  0.18562611620842517  0.6421464333153821  1.0000
  C   C11       1.0  0.45890861247583803  0.18562808711975257  0.1421488184489093  1.0000
  C   C12       1.0  0.958908573435046  0.8143723235671912  0.3578533539022501  1.0000
  C   C13       1.0  0.6264758725482338  0.7569802399350534  0.9172701641269897  1.0000
  C   C14       1.0  0.12647456293782258  0.24301837372997426  0.5827281895497691  1.0000
  C   C15       1.0  0.37352525516935486  0.24302009126336793  0.08272934967867938  1.0000
  C   C16       1.0  0.8735265647728523  0.7569800660504526  0.41727159766269745  1.0000
  C   C17       1.0  0.7582911283191293  0.8134251844755981  0.9599181764534919  1.0000
  C   C18       1.0  0.25828873628172727  0.18657476474316328  0.5400814932609705  1.0000
  C   C19       1.0  0.24170999940221086  0.18657704037941866  0.040081810075584194  1.0000
  C   C20       1.0  0.7417079854285261  0.8134227304411469  0.459918803726879  1.0000
  C   C21       1.0  0.5074734566613444  0.9924325797621943  0.776115177816763  1.0000
  C   C22       1.0  0.007473920334533101  0.007564742416143099  0.7238840581071742  1.0000
  C   C23       1.0  0.49252656955236057  0.007566806844920402  0.22388484575912324  1.0000
  C   C24       1.0  0.9925261058772961  0.9924336973626849  0.27611572910701204  1.0000
  C   C25       1.0  0.15113624490285818  0.7601344696541046  0.9001140764137219  1.0000
  C   C26       1.0  0.6511315983771127  0.23986895898846683  0.5998883664097576  1.0000
  C   C27       1.0  0.8488659843192111  0.23986870203080454  0.0998861464753347  1.0000
  C   C28       1.0  0.34886622483573854  0.7601304298540366  0.40011240329977216  1.0000
  C   C29       1.0  0.18490178449886233  0.5924722479020873  0.9936054189657781  1.0000
  C   C30       1.0  0.684898952974848  0.40752938775382563  0.5063971915744006  1.0000
  C   C31       1.0  0.815102647705771  0.407528090016946  0.006396333225296808  1.0000
  C   C32       1.0  0.31510327623784207  0.5924690497896136  0.4936018495061488  1.0000
  C   C33       1.0  0.2008817250806061  0.6368519457505428  0.9084837975494864  1.0000
  C   C34       1.0  0.7008734939081549  0.3631525702491345  0.5915172336759369  1.0000
  C   C35       1.0  0.7991260116312375  0.3631521772478833  0.0915181539530323  1.0000
  C   C36       1.0  0.29912543081432114  0.6368458628122935  0.40848031514940425  1.0000
  C   C37       1.0  0.2789978620071025  0.5404453185089507  0.8296348093919834  1.0000
  C   C38       1.0  0.7789829381971314  0.4595613233282377  0.6703679423216258  1.0000
  C   C39       1.0  0.7210087731976812  0.4595578621367763  0.1703683980109432  1.0000
  C   C40       1.0  0.22100937753216243  0.5404418505808195  0.3296330267131324  1.0000
  C   C41       1.0  0.30718365105524004  0.44428518690527596  0.8701783841350093  1.0000
  C   C42       1.0  0.8071773675469132  0.5557177408403006  0.6298203493750592  1.0000
  C   C43       1.0  0.6928185781611943  0.5557151442947514  0.12982112966894016  1.0000
  C   C44       1.0  0.19281604968321628  0.44428163904139223  0.37017743582059376  1.0000
  C   C45       1.0  0.115955217981103  0.6419431350505675  0.09813188560852376  1.0000
  C   C46       1.0  0.6159575355223268  0.35805437105938137  0.4018671568199679  1.0000
  C   C47       1.0  0.8840481127328914  0.35805814521796003  0.9018686106855968  1.0000
  C   C48       1.0  0.3840468966874581  0.6419421705920811  0.5981306654035379  1.0000
  C   C49       1.0  0.38199614354040523  0.3204939982870342  0.8304040441027498  1.0000
  C   C50       1.0  0.881989173691579  0.6795063092944033  0.6695944922879278  1.0000
  C   C51       1.0  0.6180049841721454  0.6795053883216866  0.1695959794714099  1.0000
  C   C52       1.0  0.11800424352717438  0.32049213047478986  0.3304052949366039  1.0000
  N   N1        1.0  0.8044663510715323  0.9230539882133755  0.9463646152890276  1.0000
  N   N2        1.0  0.30446427821804173  0.0769460911323492  0.5536334176345932  1.0000
  N   N3        1.0  0.1955347766511011  0.07694728757474677  0.0536343887481578  1.0000
  N   N4        1.0  0.6955335450011403  0.9230532932329609  0.4463658598145487  1.0000
  O   O1        1.0  0.079440658665149  0.8298327254375619  0.980096614792302  1.0000
  O   O2        1.0  0.5794395724430003  0.17016669794546146  0.5199021224675775  1.0000
  O   O3        1.0  0.9205604690574845  0.17016855035056008  0.019902389244883505  1.0000
  O   O4        1.0  0.4205582507856746  0.8298326797040542  0.4800949165909926  1.0000
  O   O5        1.0  0.1808441072542308  0.7902212413359562  0.8184864624780417  1.0000
  O   O6        1.0  0.6808440912395283  0.20978321626476776  0.6815146314529272  1.0000
  O   O7        1.0  0.819155918962643  0.2097781430325654  0.1815128149676539  1.0000
  O   O8        1.0  0.3191526304832735  0.790219010822419  0.3184861012132388  1.0000
  O   O9        1.0  0.587828168949855  0.9833947020743921  0.6822363314872107  1.0000
  O   O10       1.0  0.0878356000717631  0.0166075840174571  0.8177623424610658  1.0000
  O   O11       1.0  0.41217075575679724  0.016603742180016895  0.3177649479890833  1.0000
  O   O12       1.0  0.912171035148262  0.9833936895400938  0.1822359154373103  1.0000
  O   O13       1.0  0.2502369280400103  0.47543423710743565  0.9711060798581953  1.0000
  O   O14       1.0  0.750232414459404  0.524568526876017  0.528893578024409  1.0000
  O   O15       1.0  0.7497664026810112  0.5245641937218224  0.028890722830055927  1.0000
  O   O16       1.0  0.24976320577029298  0.47543179983718176  0.4711044435294981  1.0000
