data_image0
_chemical_formula_structural       Zn2H26C58N2Cl4O32
_chemical_formula_sum              "Zn2 H26 C58 N2 Cl4 O32"
_cell_length_a       10.784604489281824
_cell_length_b       18.212070872248443
_cell_length_c       19.64153764647337
_cell_angle_alpha    89.84285643264943
_cell_angle_beta     91.06691930246011
_cell_angle_gamma    89.41786477356341

_space_group_name_H-M_alt    "P 1"
_space_group_IT_number       1

loop_
  _space_group_symop_operation_xyz
  'x, y, z'

loop_
  _atom_site_type_symbol
  _atom_site_label
  _atom_site_symmetry_multiplicity
  _atom_site_fract_x
  _atom_site_fract_y
  _atom_site_fract_z
  _atom_site_occupancy
  Zn  Zn1       1.0  0.49980817461823085  0.42160132919488547  0.5023693910226259  1.0000
  Zn  Zn2       1.0  0.5079885122900266  0.5759501147457586  0.5009427643263963  1.0000
  H   H1        1.0  0.9028995099971341  0.5477871503526404  0.39332594796557885  1.0000
  H   H2        1.0  0.650065492152372  0.6915046353676646  0.4320123035767979  1.0000
  H   H3        1.0  0.5605712557100305  0.16632838582272313  0.6037282173528455  1.0000
  H   H4        1.0  0.35287320594948574  0.8281188311318889  0.572139507581639  1.0000
  H   H5        1.0  0.44235704071807197  0.17006875848764483  0.3918729587281292  1.0000
  H   H6        1.0  0.6488752833490637  0.8294494136064544  0.4263273081437832  1.0000
  H   H7        1.0  0.5359382299787115  0.7299782129890533  0.6984929150499186  1.0000
  H   H8        1.0  0.7273267958664179  0.31438985213336684  0.3220683848932638  1.0000
  H   H9        1.0  0.31111434974285873  0.7034501758423206  0.3073998636639104  1.0000
  H   H10       1.0  0.3595114522946545  0.2806554956602483  0.687658332924201  1.0000
  H   H11       1.0  0.47594166643871477  0.6950830040478592  0.9270052781173632  1.0000
  H   H12       1.0  0.10554307783641552  0.4410125156675095  0.5961014769234084  1.0000
  H   H13       1.0  0.6390301961877045  0.3109441466093442  0.08987760657919353  1.0000
  H   H14       1.0  0.33274896873012244  0.6753642750770724  0.08028871088992423  1.0000
  H   H15       1.0  0.4314590143997209  0.29350519618662213  0.9093059605071971  1.0000
  H   H16       1.0  0.15128435750711597  0.10655922324075823  0.4027829942552047  1.0000
  H   H17       1.0  0.8808597791583425  0.8976185644140031  0.5545438382544534  1.0000
  H   H18       1.0  0.8495884802551644  0.0990734127674671  0.5951270503510102  1.0000
  H   H19       1.0  0.11257739540758394  0.9092847399914349  0.4503611916113783  1.0000
  H   H20       1.0  0.6642644260313946  0.5144565023386038  0.9346753437759503  1.0000
  H   H21       1.0  0.2851355590880829  0.4706326681766271  0.06878894325664932  1.0000
  H   H22       1.0  0.6774295276633995  0.5125504857076918  0.061001563879933905  1.0000
  H   H23       1.0  0.271732531388338  0.4731380324812591  0.9424406162849693  1.0000
  H   H24       1.0  0.5560027659787963  0.3040483697222812  0.6007756114465579  1.0000
  H   H25       1.0  0.36649637176095246  0.6902665398803906  0.5711094760709089  1.0000
  H   H26       1.0  0.43997898177337197  0.3078407952378016  0.39870559527421534  1.0000
  C   C1        1.0  0.5091766643924487  0.5048612993065974  0.36792459313322473  1.0000
  C   C2        1.0  0.4267398338488705  0.7239145084581794  0.5401065587968646  1.0000
  C   C3        1.0  0.46533314143636784  0.27367073001454406  0.4426419835091836  1.0000
  C   C4        1.0  0.5868289610192434  0.7245811842786695  0.4622731300490345  1.0000
  C   C5        1.0  0.5341956836719676  0.19534426307443917  0.5569896671877004  1.0000
  C   C6        1.0  0.41955283782814934  0.8001004819570812  0.5399792726312642  1.0000
  C   C7        1.0  0.4667004720659804  0.19742197233996006  0.4394704200337571  1.0000
  C   C8        1.0  0.5856564744880047  0.8007880246672843  0.4596215015473177  1.0000
  C   C9        1.0  0.5009684204318035  0.1570292220886031  0.4977483881741308  1.0000
  C   C10       1.0  0.5008019372037611  0.8395581511778119  0.49927136107061193  1.0000
  C   C11       1.0  0.39246327637449946  0.0376191581695409  0.4794452651483924  1.0000
  C   C12       1.0  0.4841818403626945  0.5019656385281054  0.6353784814370373  1.0000
  C   C13       1.0  0.605498791085097  0.9589771470473211  0.5209936507922565  1.0000
  C   C14       1.0  0.6085864630127703  0.03587557375203691  0.5166145086651639  1.0000
  C   C15       1.0  0.3936643253966424  0.9605294949944607  0.476570744717094  1.0000
  C   C16       1.0  0.499450405259303  0.9209116151286382  0.49875362983217303  1.0000
  C   C17       1.0  0.5010172823010991  0.07569050476838872  0.4974530691162613  1.0000
  C   C18       1.0  0.2667174380738545  0.5039008960304941  0.49325535514257274  1.0000
  C   C19       1.0  0.740833389475043  0.4869287383956831  0.5025555841976939  1.0000
  C   C20       1.0  0.04543577913717909  0.46064065486682904  0.4387991129763266  1.0000
  C   C21       1.0  0.9626060833549559  0.5293241479571265  0.5515474098577543  1.0000
  C   C22       1.0  0.9753349761697551  0.4224113384007708  0.498949674473181  1.0000
  C   C23       1.0  0.5812102306155255  0.5049118721322261  0.9642035858272138  1.0000
  C   C24       1.0  0.031871839965219806  0.5676025500168509  0.4911087105709342  1.0000
  C   C25       1.0  0.9490411948199694  0.5251862566707501  0.4387396840008861  1.0000
  C   C26       1.0  0.05818114838742622  0.46467149669945235  0.551420808102975  1.0000
  C   C27       1.0  0.8781644979643418  0.48715122893172247  0.49837031948158755  1.0000
  C   C28       1.0  0.12914306696546873  0.503127705303939  0.49205449904212645  1.0000
  C   C29       1.0  0.507721353142138  0.5637700550103378  0.7498911754289352  1.0000
  C   C30       1.0  0.5789882306934545  0.4524940854953456  0.256903072752344  1.0000
  C   C31       1.0  0.42432808591958354  0.5503922509097593  0.2551745241816975  1.0000
  C   C32       1.0  0.4204958298819436  0.44164827032124526  0.7445796394746369  1.0000
  C   C33       1.0  0.49886908367251703  0.5623832652067265  0.8211562518654107  1.0000
  C   C34       1.0  0.3682313977603686  0.4802052172183054  0.03928691033273421  1.0000
  C   C35       1.0  0.5689406680132764  0.44674492497114937  0.18580698661072156  1.0000
  C   C36       1.0  0.4194748488785792  0.5475147145889637  0.18376732019203962  1.0000
  C   C37       1.0  0.421504738340488  0.43801287808015144  0.8159418797343394  1.0000
  C   C38       1.0  0.46131285922457005  0.49826993934005515  0.8550393583540697  1.0000
  C   C39       1.0  0.4895133886039035  0.4946644752213487  0.14847380523373496  1.0000
  C   C40       1.0  0.469415941645174  0.5030199995256766  0.7114762345620705  1.0000
  C   C41       1.0  0.5042256740729628  0.5029188350650458  0.2914350061148029  1.0000
  C   C42       1.0  0.5650683877448801  0.6295721235764591  0.7163322758955957  1.0000
  C   C43       1.0  0.6743153888413859  0.4097272150449528  0.2980123278695785  1.0000
  C   C44       1.0  0.3417453525478465  0.6022746268429414  0.2937507249162863  1.0000
  C   C45       1.0  0.5887304415730698  0.5032963580603251  0.0349571017005701  1.0000
  C   C46       1.0  0.35797280384530694  0.38233621308681626  0.7038108920817197  1.0000
  C   C47       1.0  0.5342377214621763  0.6296209063161129  0.8606950963997239  1.0000
  C   C48       1.0  0.6474933454103253  0.3906101074816136  0.1506355059019455  1.0000
  C   C49       1.0  0.33523699875247814  0.6008094735530352  0.14664016566705132  1.0000
  C   C50       1.0  0.3775692398746244  0.3694378472544032  0.8501000493558026  1.0000
  C   C51       1.0  0.2735823485157667  0.08068912970055922  0.46915508336611117  1.0000
  C   C52       1.0  0.7088159326650754  0.9162762178475533  0.5554935076739086  1.0000
  C   C53       1.0  0.7281908164195274  0.0765303143344127  0.5276468747606416  1.0000
  C   C54       1.0  0.28643259297312806  0.9192675003263131  0.44603270278385315  1.0000
  C   C55       1.0  0.3608363350060629  0.4811749958203038  0.9684524731625007  1.0000
  C   C56       1.0  0.48204692306969593  0.4917835803138714  0.07312645892608322  1.0000
  C   C57       1.0  0.46705768038250994  0.49440348297752484  0.9303748543348717  1.0000
  C   C58       1.0  0.5314321627731574  0.2715712637096175  0.5560010481166489  1.0000
  N   N1        1.0  0.49671068491137765  0.3095956328188975  0.4999757054581055  1.0000
  N   N2        1.0  0.5092164693446862  0.6874161917272873  0.5020697015298198  1.0000
  Cl  Cl1       1.0  0.0986760062346121  0.41641294367940423  0.36708959874144403  1.0000
  Cl  Cl2       1.0  0.9092012330921263  0.5723880144488902  0.6235219097551977  1.0000
  Cl  Cl3       1.0  0.9442901524757732  0.32913540902364974  0.5025989203109448  1.0000
  Cl  Cl4       1.0  0.06272484677342761  0.6610338115182232  0.4869626323296714  1.0000
  O   O1        1.0  0.5014443570466298  0.4429573221439256  0.3972426123071032  1.0000
  O   O2        1.0  0.4875937772938175  0.6892030560731969  0.7166376485064064  1.0000
  O   O3        1.0  0.7571034847769557  0.43907401771072335  0.3305389091022235  1.0000
  O   O4        1.0  0.6586562671937488  0.33589027997311405  0.29494662134631977  1.0000
  O   O5        1.0  0.259455155441259  0.5825498155620893  0.33076612875927225  1.0000
  O   O6        1.0  0.3697524107949093  0.6737058519982784  0.2812818647939608  1.0000
  O   O7        1.0  0.26214158959064093  0.392193107932478  0.6712917082932321  1.0000
  O   O8        1.0  0.41432456692822944  0.3154220338216832  0.7111881028800796  1.0000
  O   O9        1.0  0.6320434549403587  0.661937629976272  0.8551957988350338  1.0000
  O   O10       1.0  0.442801846970852  0.652262665040702  0.902878748217596  1.0000
  O   O11       1.0  0.7599305540484097  0.3856546260912738  0.1572932527004056  1.0000
  O   O12       1.0  0.4802269302562723  0.5635394467611692  0.6051823224582052  1.0000
  O   O13       1.0  0.5791842249832585  0.34415987113715835  0.11123191924725971  1.0000
  O   O14       1.0  0.2242753916770894  0.6066442623364808  0.15647191910602495  1.0000
  O   O15       1.0  0.39646493890926143  0.6437296992732513  0.1017862268618188  1.0000
  O   O16       1.0  0.27312925908390184  0.34498202107613457  0.8440024712711036  1.0000
  O   O17       1.0  0.4689917786504056  0.33653814702638124  0.8881444986113182  1.0000
  O   O18       1.0  0.22396287733278805  0.11391459449249204  0.5150419212931396  1.0000
  O   O19       1.0  0.22934392635097825  0.0782498250374957  0.4041123366931957  1.0000
  O   O20       1.0  0.6931936883762618  0.8780417011237847  0.6054305297977722  1.0000
  O   O21       1.0  0.8208798123810939  0.9253725058041271  0.52608442570493  1.0000
  O   O22       1.0  0.780244727973532  0.10873605558388992  0.4821651526917707  1.0000
  O   O23       1.0  0.5008942850254671  0.4393008502562383  0.6086464229088193  1.0000
  O   O24       1.0  0.7705413390167596  0.07274783974465754  0.5930523294520003  1.0000
  O   O25       1.0  0.29629011806558486  0.8763112406983495  0.39904117568809033  1.0000
  O   O26       1.0  0.17696455863022456  0.9355635485906292  0.47619889271000204  1.0000
  O   O27       1.0  0.5198307482863456  0.5674560901271095  0.39507765699473657  1.0000
  O   O28       1.0  0.31660631407638123  0.44051709985352266  0.4991104266423961  1.0000
  O   O29       1.0  0.69046741280323  0.5503539108255141  0.5052691448602147  1.0000
  O   O30       1.0  0.6866278897606791  0.4255480594674452  0.5039115102878072  1.0000
  O   O31       1.0  0.3210860569274773  0.5650547173661737  0.49023333993044826  1.0000
  O   O32       1.0  0.6700355843818856  0.6304784637939419  0.6952609541087045  1.0000
