data_image0
_chemical_formula_structural       Na4Cd2H16C32O20
_chemical_formula_sum              "Na4 Cd2 H16 C32 O20"
_cell_length_a       6.538173067329475
_cell_length_b       11.456701624676752
_cell_length_c       11.560798386670905
_cell_angle_alpha    77.8409831856886
_cell_angle_beta     76.92201849909395
_cell_angle_gamma    77.21839300265837

_space_group_name_H-M_alt    "P 1"
_space_group_IT_number       1

loop_
  _space_group_symop_operation_xyz
  'x, y, z'

loop_
  _atom_site_type_symbol
  _atom_site_label
  _atom_site_symmetry_multiplicity
  _atom_site_fract_x
  _atom_site_fract_y
  _atom_site_fract_z
  _atom_site_occupancy
  Na  Na1       1.0  0.426896752523227  0.8472551951930499  0.028272332450249796  1.0000
  Na  Na2       1.0  0.5731042222043572  0.15274427244788313  0.9717263164486308  1.0000
  Na  Na3       1.0  0.8760207463161437  0.3629107768671389  0.03825648526512987  1.0000
  Na  Na4       1.0  0.12397710767152152  0.6370886814530436  0.9617451660060323  1.0000
  Cd  Cd1       1.0  0.8589492520438216  0.8442176064914763  0.1626781914948906  1.0000
  Cd  Cd2       1.0  0.1410532952658272  0.1557818707458196  0.8373211160867129  1.0000
  H   H1        1.0  0.6028618919490399  0.6365400369095866  0.940366650878161  1.0000
  H   H2        1.0  0.3971403852689264  0.36346036221091543  0.05963855188167593  1.0000
  H   H3        1.0  0.5940494603763046  0.6969882811733895  0.807413514910017  1.0000
  H   H4        1.0  0.4059540193294212  0.30300847977417084  0.19258970582563956  1.0000
  H   H5        1.0  0.388180556597149  0.058456115444023696  0.4695521821580824  1.0000
  H   H6        1.0  0.6118226357833266  0.9415460896537624  0.5304447348997454  1.0000
  H   H7        1.0  0.04949944571402653  0.1714137418782968  0.5708094847886898  1.0000
  H   H8        1.0  0.9505043601224304  0.8285866490690025  0.429188601125922  1.0000
  H   H9        1.0  0.7651556823162338  0.1872868936933116  0.26569189497091367  1.0000
  H   H10       1.0  0.23484307964329798  0.8127098384651674  0.7343093497165611  1.0000
  H   H11       1.0  0.06795667214586835  0.4767048364449594  0.42201116226872404  1.0000
  H   H12       1.0  0.9320427544238613  0.523294631471593  0.5779911476851678  1.0000
  H   H13       1.0  0.29388240970117613  0.3055102734988253  0.5348003854500973  1.0000
  H   H14       1.0  0.7061214107898053  0.6944901233716578  0.4652002923071663  1.0000
  H   H15       1.0  0.8555415886595769  0.41018854778190666  0.2951968814855235  1.0000
  H   H16       1.0  0.1444593860680074  0.5898109198590262  0.7048017674133504  1.0000
  C   C1        1.0  0.48239092673107814  0.9939891379096367  0.24965389495268636  1.0000
  C   C2        1.0  0.517614446802604  0.0060112606596263  0.7503439856971068  1.0000
  C   C3        1.0  0.2730786680881821  0.0592090811394428  0.3085420500962286  1.0000
  C   C4        1.0  0.7269235700510567  0.9407913021858928  0.6914562410832161  1.0000
  C   C5        1.0  0.252329922030711  0.08566594937736481  0.4242379425817617  1.0000
  C   C6        1.0  0.747673883805746  0.9143344415699416  0.5757601433328572  1.0000
  C   C7        1.0  0.06380778377219094  0.14913125804259408  0.4820798951554721  1.0000
  C   C8        1.0  0.9361928915546684  0.8508691196351706  0.5179194652363392  1.0000
  C   C9        1.0  0.8909006576628614  0.1880731360028705  0.42313771608409206  1.0000
  C   C10       1.0  0.10910031217987642  0.8119263296636703  0.5768600688672335  1.0000
  C   C11       1.0  0.9042346627114953  0.1608970795041316  0.3089281794999792  1.0000
  C   C12       1.0  0.09576662118649891  0.8391014820487613  0.6910714858010606  1.0000
  C   C13       1.0  0.09446419545168541  0.09736410566957691  0.2512762010352033  1.0000
  C   C14       1.0  0.9055355207490837  0.9026344482613451  0.7487236695306618  1.0000
  C   C15       1.0  0.09779426315218842  0.0724864366716389  0.12797779517418206  1.0000
  C   C16       1.0  0.9022041896369332  0.9275112015748802  0.8720224331111196  1.0000
  C   C17       1.0  0.18840955063941323  0.6428657378139776  0.2339012369983564  1.0000
  C   C18       1.0  0.8115898759303095  0.357133730102575  0.7661010729555426  1.0000
  C   C19       1.0  0.3318465943368027  0.5416173026835978  0.29765983393819073  1.0000
  C   C20       1.0  0.6681519047216896  0.45838488349708245  0.7023394268092032  1.0000
  C   C21       1.0  0.24107692072657028  0.4622448967014705  0.39554128541571026  1.0000
  C   C22       1.0  0.7589234551995574  0.5377563910131329  0.6044587864690243  1.0000
  C   C23       1.0  0.3655108624920588  0.365208413744071  0.4574214686784614  1.0000
  C   C24       1.0  0.6344882549072538  0.6347919602605216  0.5425798248732647  1.0000
  C   C25       1.0  0.5867095739929908  0.34568245192801333  0.418976343104532  1.0000
  C   C26       1.0  0.4132892244662259  0.6543188242158281  0.5810222061499316  1.0000
  C   C27       1.0  0.6819560256941203  0.42392799785982044  0.3216139770390924  1.0000
  C   C28       1.0  0.3180399514259095  0.5760723589264529  0.6783868630947295  1.0000
  C   C29       1.0  0.555678957118893  0.5214037394298358  0.2606052284059216  1.0000
  C   C30       1.0  0.4443195468244384  0.4785984487252363  0.7393948962890206  1.0000
  C   C31       1.0  0.6652170985857639  0.606248234250934  0.15993058104331942  1.0000
  C   C32       1.0  0.33477542908456587  0.39375301140505303  0.8400687892704182  1.0000
  O   O1        1.0  0.6182812642487934  0.9369584186197956  0.3146086161582388  1.0000
  O   O2        1.0  0.3817203604344642  0.0630437788560201  0.6853885061644147  1.0000
  O   O3        1.0  0.5218996644110022  0.9974174057124686  0.1349113854986043  1.0000
  O   O4        1.0  0.4780997328496782  0.0025820503577094  0.8650857407699915  1.0000
  O   O5        1.0  0.11279540660681427  0.9642601737555979  0.11277230728111927  1.0000
  O   O6        1.0  0.8872058772911873  0.035738387797295004  0.8872273580199275  1.0000
  O   O7        1.0  0.08020997236161523  0.16577072402279916  0.04553861961766609  1.0000
  O   O8        1.0  0.9197866035598709  0.8342278126897966  0.9544607975302879  1.0000
  O   O9        1.0  0.7055312850060107  0.25010200199496074  0.4836340124951446  1.0000
  O   O10       1.0  0.29447094824838166  0.7498983793559757  0.5163634147367446  1.0000
  O   O11       1.0  0.01739352669517302  0.6925112687671131  0.2969095832806516  1.0000
  O   O12       1.0  0.9826055955889861  0.30748910721187883  0.7030925742186226  1.0000
  O   O13       1.0  0.23892700698748104  0.6739532368950308  0.12003784101985811  1.0000
  O   O14       1.0  0.7610695835885296  0.3260453057407489  0.8799641679707474  1.0000
  O   O15       1.0  0.6240085070170381  0.717495528107392  0.17065483573234982  1.0000
  O   O16       1.0  0.37599375554640374  0.2825048650899191  0.8293477751848355  1.0000
  O   O17       1.0  0.7923588463376774  0.5615456588700027  0.07216674184165575  1.0000
  O   O18       1.0  0.20762865930089447  0.4384564660593355  0.9278304999692819  1.0000
  O   O19       1.0  0.509255030369019  0.6918432397399171  0.8886966626835285  1.0000
  O   O20       1.0  0.4907465773539101  0.3081544216481121  0.1113066108623286  1.0000
