data_image0
_chemical_formula_structural       Zn2H18C30N2O16F2
_chemical_formula_sum              "Zn2 H18 C30 N2 O16 F2"
_cell_length_a       11.18088052607767
_cell_length_b       14.07443504837406
_cell_length_c       15.285802624366722
_cell_angle_alpha    89.9991608881174
_cell_angle_beta     86.14638070940748
_cell_angle_gamma    90.00466412947424

_space_group_name_H-M_alt    "P 1"
_space_group_IT_number       1

loop_
  _space_group_symop_operation_xyz
  'x, y, z'

loop_
  _atom_site_type_symbol
  _atom_site_label
  _atom_site_symmetry_multiplicity
  _atom_site_fract_x
  _atom_site_fract_y
  _atom_site_fract_z
  _atom_site_occupancy
  Zn  Zn1       1.0  0.49999959346052236  0.40207630543642375  0.4999909575209714  1.0000
  Zn  Zn2       1.0  0.500014010710281  0.6002135664551033  0.4999958897304283  1.0000
  H   H1        1.0  0.8887697402017665  0.6316990442090072  0.5154389577743501  1.0000
  H   H2        1.0  0.11128602731523068  0.6316933175552464  0.4845353980318806  1.0000
  H   H3        1.0  0.32759581395393417  0.43394188172090503  0.06342884652610793  1.0000
  H   H4        1.0  0.3333498477464616  0.5819858602580794  0.9453584839427978  1.0000
  H   H5        1.0  0.6666528530779986  0.5820490466384671  0.05464590891621411  1.0000
  H   H6        1.0  0.6724839095788724  0.43402288640091063  0.9365546885403193  1.0000
  H   H7        1.0  0.532565653851492  0.9291065379041399  0.35888699192723555  1.0000
  H   H8        1.0  0.467383511653111  0.9290969041099044  0.6411109249355891  1.0000
  H   H9        1.0  0.5312739876833419  0.7511696078398984  0.36503387742814664  1.0000
  H   H10       1.0  0.46873049190414656  0.7511644908892238  0.6349663341476275  1.0000
  H   H11       1.0  0.8307542072853096  0.3706281123657006  0.4408444346749506  1.0000
  H   H12       1.0  0.1692337217452433  0.37063245280297946  0.5591656434043487  1.0000
  H   H13       1.0  0.2441357376661557  0.4043462658226175  0.19833740622607376  1.0000
  H   H14       1.0  0.3521854976634771  0.6010667822786645  0.7145600604851126  1.0000
  H   H15       1.0  0.6478073613826254  0.6011309348029383  0.285437772756744  1.0000
  H   H16       1.0  0.7559223493453969  0.40443601915693245  0.8016306540302696  1.0000
  H   H17       1.0  0.6909457824269154  0.10215103257981893  0.6391351602742219  1.0000
  H   H18       1.0  0.309003938611923  0.10214943428884028  0.36084785001654057  1.0000
  C   C1        1.0  0.4957830376561746  0.5009028470141104  0.33010594807638693  1.0000
  C   C2        1.0  0.5042207042474942  0.5008854056172041  0.6698811347300551  1.0000
  C   C3        1.0  0.49848871048951787  0.5062030199290319  0.04853681687995252  1.0000
  C   C4        1.0  0.5015464263736362  0.5062186985346955  0.951452076377777  1.0000
  C   C5        1.0  0.5178740521878781  0.8927307138953822  0.42153528132452334  1.0000
  C   C6        1.0  0.48208411775675597  0.8927216735375508  0.578456999833584  1.0000
  C   C7        1.0  0.517555548800658  0.7940567292620743  0.42428293779288867  1.0000
  C   C8        1.0  0.48242906464582813  0.7940577207916846  0.575729627613278  1.0000
  C   C9        1.0  0.49996510713548037  0.9438380135228998  0.5000053056249387  1.0000
  C   C10       1.0  0.573203085891528  0.1007384693964255  0.5542226752658125  1.0000
  C   C11       1.0  0.4267284698410237  0.1007355950710789  0.4457836922771464  1.0000
  C   C12       1.0  0.5705358211896296  0.1998705814883266  0.5498073784324832  1.0000
  C   C13       1.0  0.4294123540272282  0.19986650412716503  0.450195358777009  1.0000
  C   C14       1.0  0.4999462041705982  0.0488621248036836  0.5000029965723131  1.0000
  C   C15       1.0  0.2694553577891626  0.49795222266295264  0.5113330901810331  1.0000
  C   C16       1.0  0.7305630350159832  0.49796581299386844  0.48864517538402213  1.0000
  C   C17       1.0  0.9359258402434562  0.5652095898808512  0.500613897469272  1.0000
  C   C18       1.0  0.06411245413850962  0.5651955499989184  0.4993839817300768  1.0000
  C   C19       1.0  0.8636977973859672  0.4913683538011853  0.48065174803444694  1.0000
  C   C20       1.0  0.1363118244754844  0.49136123006125837  0.5193372826326981  1.0000
  C   C21       1.0  0.40085132176844235  0.46549574202558114  0.09731275253949431  1.0000
  C   C22       1.0  0.4080904700405271  0.5475342219283519  0.908581921515733  1.0000
  C   C23       1.0  0.3991577069784498  0.462287611436949  0.18871971357724962  1.0000
  C   C24       1.0  0.41353587431496663  0.5503304671327455  0.8169386402341277  1.0000
  C   C25       1.0  0.4923235996121349  0.5040730830233572  0.23335443419091464  1.0000
  C   C26       1.0  0.5076978753822701  0.5040564552663652  0.7666380815284841  1.0000
  C   C27       1.0  0.5864722685634121  0.5503782748113508  0.1830627586471607  1.0000
  C   C28       1.0  0.6008815634679153  0.46232880667948006  0.8112670285539709  1.0000
  C   C29       1.0  0.5919359427764306  0.5475721647985808  0.09140991854229702  1.0000
  C   C30       1.0  0.5992113408468284  0.4655308813997791  0.9026733973101317  1.0000
  N   N1        1.0  0.5000070337759865  0.7456375203905665  0.5000010103204391  1.0000
  N   N2        1.0  0.49999232255779463  0.24903996687963573  0.5000006228207143  1.0000
  O   O1        1.0  0.46250850043971786  0.42673781099072977  0.3714436740539925  1.0000
  O   O2        1.0  0.5374704408526513  0.4267155342186015  0.6285469107292416  1.0000
  O   O3        1.0  0.5385828847042405  0.5757292089597853  0.3664941010009316  1.0000
  O   O4        1.0  0.46142334460961376  0.5757062583150797  0.6334886878214476  1.0000
  O   O5        1.0  0.3221862075326527  0.42099980619374117  0.5338090056887099  1.0000
  O   O6        1.0  0.6778075493069055  0.4210108071254908  0.46616755697676393  1.0000
  O   O7        1.0  0.32152183324379285  0.5737317336096553  0.4844357472932615  1.0000
  O   O8        1.0  0.6785001296639095  0.5737405205002161  0.5155349134973266  1.0000
  O   O9        1.0  0.9051143540693474  0.40662080498157843  0.44887749733973703  1.0000
  O   O10       1.0  0.0948899568724428  0.40662062546079614  0.5511310773188214  1.0000
  O   O11       1.0  0.3060486765387155  0.4209695461244821  0.23756113782559402  1.0000
  O   O12       1.0  0.325504712781644  0.5974383173904271  0.7780214570845346  1.0000
  O   O13       1.0  0.6744971805962336  0.5975136386975919  0.22197228230336216  1.0000
  O   O14       1.0  0.6940127887695271  0.42105812307386253  0.7624216849470928  1.0000
  O   O15       1.0  0.6463342273278273  0.05476505947375189  0.6077677753261952  1.0000
  O   O16       1.0  0.3535791582203487  0.05476712532315991  0.3922337200892443  1.0000
  F   F1        1.0  0.6451781205688931  0.24816324100306988  0.5993382433070025  1.0000
  F   F2        1.0  0.3548182218522058  0.24816600164278668  0.4006424453032197  1.0000
