data_image0
_chemical_formula_structural       Cd2H28C24N6O12
_chemical_formula_sum              "Cd2 H28 C24 N6 O12"
_cell_length_a       8.835357297128702
_cell_length_b       10.199639890087239
_cell_length_c       9.946034718102826
_cell_angle_alpha    99.67941314264588
_cell_angle_beta     114.87917965373319
_cell_angle_gamma    107.45500765867165

_space_group_name_H-M_alt    "P 1"
_space_group_IT_number       1

loop_
  _space_group_symop_operation_xyz
  'x, y, z'

loop_
  _atom_site_type_symbol
  _atom_site_label
  _atom_site_symmetry_multiplicity
  _atom_site_fract_x
  _atom_site_fract_y
  _atom_site_fract_z
  _atom_site_occupancy
  Cd  Cd1       1.0  0.6822816836026037  0.9097774563540142  0.2525859347882502  1.0000
  Cd  Cd2       1.0  0.3177179978521494  0.09022587958427408  0.7474110587376116  1.0000
  H   H1        1.0  0.4684900992404764  0.7996795614268707  0.9047065660654497  1.0000
  H   H2        1.0  0.5315058099045658  0.20032373200799466  0.09528999685665696  1.0000
  H   H3        1.0  0.5308309244584635  0.6856502075918627  0.9800767802506627  1.0000
  H   H4        1.0  0.4691739973026615  0.31435867587817523  0.019928121959665583  1.0000
  H   H5        1.0  0.8435619677250229  0.882821556575621  0.5472128226185545  1.0000
  H   H6        1.0  0.15643096817855454  0.11717085438665718  0.452781861961796  1.0000
  H   H7        1.0  0.8881226699115672  0.046062608671412895  0.5849756425306084  1.0000
  H   H8        1.0  0.11186665636118694  0.9539275819794569  0.4150173159122589  1.0000
  H   H9        1.0  0.3952027201850755  0.0795971237730839  0.24034370928247034  1.0000
  H   H10       1.0  0.6048102802031822  0.9204129864911084  0.7596674682714522  1.0000
  H   H11       1.0  0.949785981848855  0.6654463302234175  0.9697874843358533  1.0000
  H   H12       1.0  0.05022328061259878  0.33456361976742943  0.030211190780775585  1.0000
  H   H13       1.0  0.048646392603607994  0.0505261558006467  0.1741964648223657  1.0000
  H   H14       1.0  0.9513615330224142  0.9494762193096379  0.8258045025272409  1.0000
  H   H15       1.0  0.8682998862695115  0.8843671697047953  0.02912427478855056  1.0000
  H   H16       1.0  0.13170951021841404  0.1156407006196574  0.9708831646556318  1.0000
  H   H17       1.0  0.19069323011684253  0.7782339979659129  0.3749882711307819  1.0000
  H   H18       1.0  0.809307330760099  0.22176605544458278  0.6250045035608167  1.0000
  H   H19       1.0  0.2141280508787062  0.3667168624294916  0.394789824947587  1.0000
  H   H20       1.0  0.7858692401785632  0.6332843982206529  0.6052189991237428  1.0000
  H   H21       1.0  0.7059896562015029  0.41148458800086735  0.25556416956001726  1.0000
  H   H22       1.0  0.2940058472318158  0.5885155036086047  0.7444377555258014  1.0000
  H   H23       1.0  0.5052557734889548  0.6388396162087701  0.5676494150700861  1.0000
  H   H24       1.0  0.49474311373379715  0.3611572571937812  0.43235226686644523  1.0000
  H   H25       1.0  0.4776331599920454  0.7672987938121877  0.4683460926438342  1.0000
  H   H26       1.0  0.5223662784298712  0.23269916249271463  0.5316549675120186  1.0000
  H   H27       1.0  0.4670497638164689  0.6000346817551189  0.3723261217085181  1.0000
  H   H28       1.0  0.5329478611943159  0.39996219383655784  0.6276770933369704  1.0000
  C   C1        1.0  0.31594676222516677  0.9627905615487933  0.18091983370316458  1.0000
  C   C2        1.0  0.6840664008419849  0.0372173709073991  0.8190900483170294  1.0000
  C   C3        1.0  0.08865792501087807  0.749648212630639  0.04121344233947607  1.0000
  C   C4        1.0  0.9113545356391839  0.25036077547456165  0.9587943330506122  1.0000
  C   C5        1.0  0.0036403740906081417  0.9665367828254221  0.0642027444307374  1.0000
  C   C6        1.0  0.9963684855243571  0.033469955525887905  0.9358002868634899  1.0000
  C   C7        1.0  0.8239455205922895  0.6900630790858743  0.2729982825339121  1.0000
  C   C8        1.0  0.17605064501756126  0.3099282620349939  0.7269944364724951  1.0000
  C   C9        1.0  0.935074814809795  0.6021093622450663  0.3070053797660817  1.0000
  C   C10       1.0  0.06492424082233576  0.3978853137211757  0.6929929946644648  1.0000
  C   C11       1.0  0.12297126751420243  0.6636267504512928  0.3588066830701989  1.0000
  C   C12       1.0  0.877028011094069  0.3363733738474438  0.6411946666332541  1.0000
  C   C13       1.0  0.22690348322881695  0.5813524226088731  0.39233338536793366  1.0000
  C   C14       1.0  0.773096811693357  0.4186423296815178  0.6076715038426741  1.0000
  C   C15       1.0  0.1371596760969922  0.43384785006383453  0.3694186904679952  1.0000
  C   C16       1.0  0.8628399164080919  0.5661479578755575  0.6305840921125068  1.0000
  C   C17       1.0  0.949014533398554  0.37033367521422633  0.31675830152319423  1.0000
  C   C18       1.0  0.05098347153677455  0.6296664905302763  0.6832486052337288  1.0000
  C   C19       1.0  0.8497248725549725  0.45595645025863973  0.28856984130202784  1.0000
  C   C20       1.0  0.15027289507801095  0.5440383162241601  0.7114391201126296  1.0000
  C   C21       1.0  0.8545958345069167  0.21283127149960285  0.2909124040001458  1.0000
  C   C22       1.0  0.14539535974373052  0.7871676456333034  0.7090846823319623  1.0000
  C   C23       1.0  0.4295766072623834  0.6506630942049867  0.45320947001768985  1.0000
  C   C24       1.0  0.570423536441858  0.3493337966367632  0.5467926907821337  1.0000
  N   N1        1.0  0.3829903974859051  0.8631448374253311  0.17772341557375176  1.0000
  N   N2        1.0  0.6170195559316696  0.13686409617316295  0.822281390117496  1.0000
  N   N3        1.0  0.2393564646723192  0.7272464685246617  0.08912115316535815  1.0000
  N   N4        1.0  0.7606568725346889  0.27275924686689723  0.910883409376602  1.0000
  N   N5        1.0  0.12991538459862523  0.8957599374596011  0.09553288262338085  1.0000
  N   N6        1.0  0.8700972272693623  0.10424691209424002  0.9044776211774915  1.0000
  O   O1        1.0  0.6557177606520382  0.6341413782722185  0.22980118882510675  1.0000
  O   O2        1.0  0.3442693950798129  0.3658365307614844  0.7701567883916524  1.0000
  O   O3        1.0  0.9075741781347942  0.8247044605439128  0.28873974370830513  1.0000
  O   O4        1.0  0.09242401240136638  0.1752934488793159  0.711257819625871  1.0000
  O   O5        1.0  0.679041808222671  0.15105505376162404  0.22034009422008444  1.0000
  O   O6        1.0  0.3209522760502637  0.8489471982166563  0.7796626475361705  1.0000
  O   O7        1.0  0.9488322740236013  0.13988499100165086  0.3379344375945265  1.0000
  O   O8        1.0  0.051150998548322966  0.8601105411574324  0.6620570898325155  1.0000
  O   O9        1.0  0.5767215046870292  0.786078494515664  0.9814180131029814  1.0000
  O   O10       1.0  0.4232773145369891  0.21392806506545978  0.01857716334038174  1.0000
  O   O11       1.0  0.7809952355835464  0.9480843043616289  0.519808167581033  1.0000
  O   O12       1.0  0.21898977577605905  0.05190473144099171  0.4801819640803799  1.0000
