data_image0
_chemical_formula_structural       Cu2H22C26N2O18
_chemical_formula_sum              "Cu2 H22 C26 N2 O18"
_cell_length_a       10.415838146648651
_cell_length_b       10.828529315838502
_cell_length_c       10.875327215341315
_cell_angle_alpha    87.78118530865895
_cell_angle_beta     99.5692232609098
_cell_angle_gamma    106.33756532954344

_space_group_name_H-M_alt    "P 1"
_space_group_IT_number       1

loop_
  _space_group_symop_operation_xyz
  'x, y, z'

loop_
  _atom_site_type_symbol
  _atom_site_label
  _atom_site_symmetry_multiplicity
  _atom_site_fract_x
  _atom_site_fract_y
  _atom_site_fract_z
  _atom_site_occupancy
  Cu  Cu1       1.0  0.3679859791871963  0.46580601076006173  0.48119502126378677  1.0000
  Cu  Cu2       1.0  0.6320139478219744  0.5341874680150127  0.5188131040943417  1.0000
  H   H1        1.0  0.26466521978752416  0.7491571366429852  0.1684156696700114  1.0000
  H   H2        1.0  0.7353428811961321  0.25084157070305213  0.8315872511616715  1.0000
  H   H3        1.0  0.6855523960101378  0.9202674469635993  0.61857943042326  1.0000
  H   H4        1.0  0.31445155208903935  0.07973403460407268  0.3814190843977556  1.0000
  H   H5        1.0  0.4447628613446568  0.666817018518678  0.1146625728287063  1.0000
  H   H6        1.0  0.5552435535398742  0.333167325210546  0.8853412585123476  1.0000
  H   H7        1.0  0.6223451102677657  0.13652181045809897  0.11701276641882426  1.0000
  H   H8        1.0  0.3776441561629866  0.8634682029553885  0.8830019657441212  1.0000
  H   H9        1.0  0.13950749958655007  0.5664536257201789  0.33881943526129277  1.0000
  H   H10       1.0  0.86048855709992  0.43355900580296236  0.6611757500261317  1.0000
  H   H11       1.0  0.9661202384526746  0.5990710130103026  0.2234983324860949  1.0000
  H   H12       1.0  0.033874526791272806  0.40094814595139644  0.7765002011142667  1.0000
  H   H13       1.0  0.8049071587944993  0.5260192498808182  0.2686446797085082  1.0000
  H   H14       1.0  0.1950853998333884  0.4739912143481249  0.7313554947895751  1.0000
  H   H15       1.0  0.857567667733349  0.4540956678425089  0.1471567773432696  1.0000
  H   H16       1.0  0.1424264352601767  0.5459245836598895  0.8528342703675093  1.0000
  H   H17       1.0  0.8393955812216304  0.23976100433303313  0.29312433171661206  1.0000
  H   H18       1.0  0.16060899612907784  0.7602503744229024  0.7068584671606003  1.0000
  H   H19       1.0  0.7787552321202112  0.32670523959313863  0.3966207591687619  1.0000
  H   H20       1.0  0.2212431916508493  0.6732972672165474  0.6033639613084247  1.0000
  H   H21       1.0  0.9277637549345313  0.2747269572460453  0.44886335161643837  1.0000
  H   H22       1.0  0.07223568029118611  0.7252794800672289  0.5511177819284611  1.0000
  C   C1        1.0  0.5023252604525296  0.7350291577404632  0.48095120310476597  1.0000
  C   C2        1.0  0.49769014729891836  0.2649869283987627  0.519054425472575  1.0000
  C   C3        1.0  0.503226633820212  0.8732628909151359  0.48373802526458576  1.0000
  C   C4        1.0  0.4967913197530719  0.12673622755742997  0.5162655716042933  1.0000
  C   C5        1.0  0.6056356953664163  0.9565576963653583  0.5657175905102889  1.0000
  C   C6        1.0  0.39437196162229776  0.04343534565406769  0.4342826034193478  1.0000
  C   C7        1.0  0.3974918582685234  0.9174897695796317  0.41669148726330707  1.0000
  C   C8        1.0  0.6025241514319218  0.08250165805754509  0.58331193524166  1.0000
  C   C9        1.0  0.2891575867799289  0.8373146173958188  0.32134528897496745  1.0000
  C   C10       1.0  0.7108589212827636  0.16269025860413677  0.6786533676543128  1.0000
  C   C11       1.0  0.49111585190765794  0.48308793703389336  0.266102175671989  1.0000
  C   C12       1.0  0.5088758087913233  0.5168958431842227  0.7338983452918555  1.0000
  C   C13       1.0  0.4933059700930115  0.4862799330558473  0.128150235191093  1.0000
  C   C14       1.0  0.5066786550300151  0.5137147595740926  0.8718590565670326  1.0000
  C   C15       1.0  0.46707875639025087  0.592735361082049  0.06380661793461681  1.0000
  C   C16       1.0  0.5329164527297506  0.4072587990340324  0.9362044060503649  1.0000
  C   C17       1.0  0.5268039775172967  0.3923848342980846  0.0637466361762975  1.0000
  C   C18       1.0  0.4731938698196743  0.6076121602234393  0.9362702832796684  1.0000
  C   C19       1.0  0.5506229891568069  0.2764853531361737  0.13021251898445033  1.0000
  C   C20       1.0  0.4493567960432329  0.7234901549482443  0.8697944998067653  1.0000
  C   C21       1.0  0.08718914630989623  0.4727792688794992  0.3760103058837956  1.0000
  C   C22       1.0  0.9128027846162893  0.5272246962972388  0.6239816087453889  1.0000
  C   C23       1.0  0.8921958100404126  0.5068552671972668  0.2367812284352624  1.0000
  C   C24       1.0  0.10779777980124547  0.4931591700782006  0.7632135220734068  1.0000
  C   C25       1.0  0.8699672118364388  0.31122078694643557  0.36952555968695566  1.0000
  C   C26       1.0  0.13002898807391014  0.6887844869700074  0.6304587478069692  1.0000
  N   N1        1.0  0.9549033824975977  0.43197556821282745  0.3294115058281334  1.0000
  N   N2        1.0  0.045094694583710314  0.5680334199350269  0.6705803965328129  1.0000
  O   O1        1.0  0.38545029995063373  0.6534693171275804  0.4639971794325389  1.0000
  O   O2        1.0  0.6145742882010125  0.3465329193212839  0.5360074395622688  1.0000
  O   O3        1.0  0.6169137037335659  0.7119629823855717  0.500230687516705  1.0000
  O   O4        1.0  0.3830899939569646  0.2880336888525433  0.4997697148405677  1.0000
  O   O5        1.0  0.16746914899063373  0.8155654508550754  0.32021716799608396  1.0000
  O   O6        1.0  0.8325461639106491  0.18443466091570565  0.6797795425986307  1.0000
  O   O7        1.0  0.3419490236913277  0.7978080319402637  0.2281786157704886  1.0000
  O   O8        1.0  0.6580531420276045  0.20219037767832754  0.771826103907415  1.0000
  O   O9        1.0  0.6069927990293493  0.5152165248633124  0.3342294013450342  1.0000
  O   O10       1.0  0.3929916374174168  0.48476965736225  0.6657772575811619  1.0000
  O   O11       1.0  0.37535655757090314  0.4582129256919599  0.298911508796138  1.0000
  O   O12       1.0  0.6246377414045056  0.5417890210177205  0.7010900258974075  1.0000
  O   O13       1.0  0.6148313405046862  0.21184039208915806  0.06638623566588113  1.0000
  O   O14       1.0  0.38516621594078526  0.7881436007705177  0.9336161605659823  1.0000
  O   O15       1.0  0.5171579165306852  0.23975067720291313  0.23075624447159268  1.0000
  O   O16       1.0  0.48282642854503166  0.7602391412830511  0.7692576904084658  1.0000
  O   O17       1.0  0.1481414503115772  0.4134666199427953  0.4553806239821227  1.0000
  O   O18       1.0  0.8518517572675179  0.586538451931233  0.544606879256321  1.0000
