data_image0
_chemical_formula_structural       Ga2P2H8C2O8F2
_chemical_formula_sum              "Ga2 P2 H8 C2 O8 F2"
_cell_length_a       4.988047035399884
_cell_length_b       7.105499190951509
_cell_length_c       8.366611004981463
_cell_angle_alpha    108.70848918279535
_cell_angle_beta     91.43558620454047
_cell_angle_gamma    108.73082072403864

_space_group_name_H-M_alt    "P 1"
_space_group_IT_number       1

loop_
  _space_group_symop_operation_xyz
  'x, y, z'

loop_
  _atom_site_type_symbol
  _atom_site_label
  _atom_site_symmetry_multiplicity
  _atom_site_fract_x
  _atom_site_fract_y
  _atom_site_fract_z
  _atom_site_occupancy
  Ga  Ga1       1.0  1.38853925341291e-06  0.5000011112423975  3.3823064165740834e-07  1.0000
  Ga  Ga2       1.0  0.5000057378373485  1.4321567929739065e-07  0.999999794980489  1.0000
  P   P1        1.0  0.47843614320971983  0.46521282207906  0.22728591488240102  1.0000
  P   P2        1.0  0.5215644120979733  0.5347881643569607  0.7727145341739641  1.0000
  H   H1        1.0  0.8142340763951452  0.5454722696146277  0.4643054108206285  1.0000
  H   H2        1.0  0.1857567094810051  0.45453360144755806  0.5357021180964379  1.0000
  H   H3        1.0  0.6338526398877279  0.7304174653756731  0.5026630629561735  1.0000
  H   H4        1.0  0.366128423527158  0.2695804900910658  0.4973349858689317  1.0000
  H   H5        1.0  0.767549392405151  0.8534146554727257  0.17370138555482117  1.0000
  H   H6        1.0  0.2324583896455295  0.14658468188167006  0.8262987709602069  1.0000
  H   H7        1.0  0.9836475137623708  0.0745216415558119  0.17742349770185226  1.0000
  H   H8        1.0  0.01635752171780774  0.9254761204905078  0.8225749876052144  1.0000
  C   C1        1.0  0.6026538879575724  0.5604905398125763  0.45227854903667697  1.0000
  C   C2        1.0  0.3973346662704317  0.43951055015195806  0.5477228785778506  1.0000
  O   O1        1.0  0.7180951724128449  0.5834100440447969  0.14339905036610645  1.0000
  O   O2        1.0  0.28190812946534993  0.41659251769930705  0.8566030698982271  1.0000
  O   O3        1.0  0.4043992593736121  0.22163372481151095  0.16294615997691148  1.0000
  O   O4        1.0  0.5956073340915466  0.7783671928144995  0.8370508078025335  1.0000
  O   O5        1.0  0.2057949024119736  0.5168187976285238  0.20680844659789685  1.0000
  O   O6        1.0  0.7942049190443685  0.48318059056274604  0.7931891708248668  1.0000
  O   O7        1.0  0.782124289292476  0.0012752631076508977  0.18567867926422815  1.0000
  O   O8        1.0  0.2178835078052473  0.9987240674284477  0.8143202804516602  1.0000
  F   F1        1.0  0.8064979375551006  0.1932745967713743  0.9384705318610711  1.0000
  F   F2        1.0  0.19351062348807352  0.8067263183728669  0.061528865890146216  1.0000
