data_image0
_chemical_formula_structural       Co2H36C36N8O8
_chemical_formula_sum              "Co2 H36 C36 N8 O8"
_cell_length_a       7.634908874557429
_cell_length_b       8.081396379741697
_cell_length_c       14.651653061225547
_cell_angle_alpha    101.42793460936564
_cell_angle_beta     90.00066611032169
_cell_angle_gamma    90.001121312749

_space_group_name_H-M_alt    "P 1"
_space_group_IT_number       1

loop_
  _space_group_symop_operation_xyz
  'x, y, z'

loop_
  _atom_site_type_symbol
  _atom_site_label
  _atom_site_symmetry_multiplicity
  _atom_site_fract_x
  _atom_site_fract_y
  _atom_site_fract_z
  _atom_site_occupancy
  Co  Co1       1.0  0.5902514286292161  0.7500088784589067  0.7500010171801466  1.0000
  Co  Co2       1.0  0.40974450482370617  0.2499937644652733  0.24999971371814678  1.0000
  H   H1        1.0  0.9616529046280248  0.0264768767079104  0.5984624860040316  1.0000
  H   H2        1.0  0.9616257906309754  0.4735747224306338  0.9015526368221746  1.0000
  H   H3        1.0  0.0383338604538324  0.9735346946023854  0.4015331167145605  1.0000
  H   H4        1.0  0.0383714525209484  0.5264267396209875  0.09844249956282884  1.0000
  H   H5        1.0  0.8408943659688503  0.19928147297133594  0.6584337423942163  1.0000
  H   H6        1.0  0.8408896328230425  0.3007549782675483  0.8415837028940347  1.0000
  H   H7        1.0  0.15909370887663948  0.8007262602167131  0.34156483682597394  1.0000
  H   H8        1.0  0.15911022991308946  0.6992477156410146  0.15841362111513752  1.0000
  H   H9        1.0  0.0454160907532639  0.36806451627258246  0.5586419670374884  1.0000
  H   H10       1.0  0.045407203039602  0.13193190378934364  0.9413585867590089  1.0000
  H   H11       1.0  0.9546021085267565  0.6319090408016876  0.441358871053673  1.0000
  H   H12       1.0  0.9546005185827509  0.8680884230017939  0.05864347138519582  1.0000
  H   H13       1.0  0.11639923307576078  0.3642078681164734  0.44087609532220295  1.0000
  H   H14       1.0  0.11640824920221597  0.13578632647828937  0.05912230705053643  1.0000
  H   H15       1.0  0.8836137271175203  0.6357643959408819  0.5591266434205125  1.0000
  H   H16       1.0  0.8835955430478959  0.8642327888203952  0.9408762007017731  1.0000
  H   H17       1.0  0.23493672823847325  0.5132330592497567  0.6850903014846924  1.0000
  H   H18       1.0  0.23492110473021904  0.9867636042170389  0.8149064938265129  1.0000
  H   H19       1.0  0.7650552759622115  0.4867720574840888  0.31491412324237444  1.0000
  H   H20       1.0  0.7650695893668595  0.013218860679330601  0.1850905787703  1.0000
  H   H21       1.0  0.5652238671709495  0.798685901071984  0.5438298789209315  1.0000
  H   H22       1.0  0.5652063555356435  0.7013137043191832  0.9561678927803714  1.0000
  H   H23       1.0  0.43480088069345857  0.2012713569853162  0.4561615988976017  1.0000
  H   H24       1.0  0.43480660552031475  0.298721557322665  0.043850196027243306  1.0000
  H   H25       1.0  0.26391970175968976  0.022832905326033895  0.6090344297637389  1.0000
  H   H26       1.0  0.26392780053787124  0.4772167281139161  0.8910042138045714  1.0000
  H   H27       1.0  0.7360683729545341  0.9771647388747127  0.3909623203166889  1.0000
  H   H28       1.0  0.7360707524094463  0.5227847033843176  0.10899296672927511  1.0000
  H   H29       1.0  0.5450226305851515  0.135667619645055  0.6777519315583195  1.0000
  H   H30       1.0  0.5450267356786184  0.3643762600246063  0.8222945917194128  1.0000
  H   H31       1.0  0.4549641342515612  0.8643160464750609  0.3222493727785648  1.0000
  H   H32       1.0  0.4549691976201941  0.635615041704142  0.1777034851881752  1.0000
  H   H33       1.0  0.3073879277128881  0.6369128203824772  0.42087539019103576  1.0000
  H   H34       1.0  0.30737488818395053  0.8630753352954629  0.07911854859320043  1.0000
  H   H35       1.0  0.6926342005568314  0.3630380849075223  0.5791180957918416  1.0000
  H   H36       1.0  0.692636763096793  0.13696891594567973  0.9208903237809525  1.0000
  C   C1        1.0  0.8454330228706295  0.9899179764919595  0.7264043471358337  1.0000
  C   C2        1.0  0.8454413483362229  0.5101139023996168  0.7735940175212409  1.0000
  C   C3        1.0  0.15455767150023547  0.010091070064198997  0.2735909686595691  1.0000
  C   C4        1.0  0.15455720454068  0.4898927620868321  0.22639147203179996  1.0000
  C   C5        1.0  0.10296323438895877  0.18414249413628175  0.7101831330090109  1.0000
  C   C6        1.0  0.10296425011261327  0.3159090417561217  0.7898465581609033  1.0000
  C   C7        1.0  0.8970274599517082  0.8158653104006391  0.2898106765543248  1.0000
  C   C8        1.0  0.8970290637518729  0.6840975105992728  0.21014642656246715  1.0000
  C   C9        1.0  0.9368814541991026  0.1025462193776221  0.6681593506196324  1.0000
  C   C10       1.0  0.9368773311314199  0.39749840183193186  0.8318657493346965  1.0000
  C   C11       1.0  0.0631066206324604  0.897462816963028  0.33183664654590933  1.0000
  C   C12       1.0  0.0631172925578696  0.6025080792144948  0.16813200506200596  1.0000
  C   C13       1.0  0.07847112330971838  0.44476951547026994  0.5073069760285878  1.0000
  C   C14       1.0  0.07846952801310178  0.05522507165972  0.992692205274253  1.0000
  C   C15       1.0  0.921545766112956  0.5551990225692836  0.4926912440344113  1.0000
  C   C16       1.0  0.9215421230051176  0.9447990016068175  0.0073130088203897025  1.0000
  C   C17       1.0  0.2928051817157423  0.5709120137230099  0.6314716079330298  1.0000
  C   C18       1.0  0.2927907713818455  0.9290883397790567  0.8685266409506627  1.0000
  C   C19       1.0  0.7071999200102894  0.4290779849462467  0.3685290510676467  1.0000
  C   C20       1.0  0.7072077816626318  0.0709155248131736  0.13147695895291636  1.0000
  C   C21       1.0  0.4578216754194315  0.7172312387515872  0.5546942673892945  1.0000
  C   C22       1.0  0.45781096065928745  0.7827661851668494  0.9453026037366856  1.0000
  C   C23       1.0  0.542193904200495  0.2827373400302521  0.4453012271437375  1.0000
  C   C24       1.0  0.5421993806126792  0.21725399900635983  0.05470899375416141  1.0000
  C   C25       1.0  0.26360714781652206  0.12398731144667609  0.6707762959022151  1.0000
  C   C26       1.0  0.2636051144423561  0.3760674160743775  0.8292595119764673  1.0000
  C   C27       1.0  0.736380926928682  0.8760128575481191  0.3292207411178724  1.0000
  C   C28       1.0  0.7363868896472354  0.6239365707180794  0.17073591132622576  1.0000
  C   C29       1.0  0.42290945637059  0.18762217202890952  0.709663598718912  1.0000
  C   C30       1.0  0.4229064775747418  0.3124306804924259  0.7903770593671242  1.0000
  C   C31       1.0  0.5770786182580564  0.8123678876007929  0.29033297192366103  1.0000
  C   C32       1.0  0.5770815970930198  0.6875631765172443  0.20961926030382477  1.0000
  C   C33       1.0  0.3311873651062881  0.6416828290288308  0.49420012207351516  1.0000
  C   C34       1.0  0.3311739234174097  0.8583133334943083  0.005798283999958184  1.0000
  C   C35       1.0  0.6688308339902065  0.35827942760558773  0.5057953365024732  1.0000
  C   C36       1.0  0.6688324886747522  0.14171949498703637  0.9942133854104757  1.0000
  N   N1        1.0  0.4332756487181085  0.6715697309497701  0.6403528183468838  1.0000
  N   N2        1.0  0.4332627538089539  0.8284347789413076  0.8596440263810552  1.0000
  N   N3        1.0  0.5667360018443688  0.3284190257667632  0.35964633444918104  1.0000
  N   N4        1.0  0.5667410384047143  0.17157283213961697  0.14036272947845424  1.0000
  N   N5        1.0  0.22824001704098149  0.5494005253889328  0.5437563692489464  1.0000
  N   N6        1.0  0.22822931295046084  0.9505947498968156  0.9562395450777432  1.0000
  N   N7        1.0  0.7717690138052402  0.4505756277085382  0.4562399860756018  1.0000
  N   N8        1.0  0.7717731695533913  0.04942047630854062  0.043765346070777915  1.0000
  O   O1        1.0  0.7261949253067355  0.8915893314525009  0.6817805485288633  1.0000
  O   O2        1.0  0.7261854401338181  0.6084274198253754  0.8182208325522782  1.0000
  O   O3        1.0  0.2738075569500821  0.10840697917527109  0.31822082780997374  1.0000
  O   O4        1.0  0.27380394458873525  0.3915814535062624  0.18178606671664713  1.0000
  O   O5        1.0  0.8807979287736101  0.9995879546887495  0.8103165837420436  1.0000
  O   O6        1.0  0.8808238490361617  0.5004531941997852  0.6897021604956637  1.0000
  O   O7        1.0  0.11918883645343928  0.0004324024562479001  0.18968343017094474  1.0000
  O   O8        1.0  0.11914981858262759  0.49956698960096463  0.31030943684142903  1.0000
