data_image0
_chemical_formula_structural       Cu4Mo6H16C12N12O20
_chemical_formula_sum              "Cu4 Mo6 H16 C12 N12 O20"
_cell_length_a       8.272025249908667
_cell_length_b       10.416424798250421
_cell_length_c       10.530225194995756
_cell_angle_alpha    114.28283972095839
_cell_angle_beta     103.00669273120286
_cell_angle_gamma    92.26882559213064

_space_group_name_H-M_alt    "P 1"
_space_group_IT_number       1

loop_
  _space_group_symop_operation_xyz
  'x, y, z'

loop_
  _atom_site_type_symbol
  _atom_site_label
  _atom_site_symmetry_multiplicity
  _atom_site_fract_x
  _atom_site_fract_y
  _atom_site_fract_z
  _atom_site_occupancy
  Cu  Cu1       1.0  0.6653037634979171  0.8990216114251837  0.4068873463791506  1.0000
  Cu  Cu2       1.0  0.33469452588260395  0.10097727303549679  0.5931118385293104  1.0000
  Cu  Cu3       1.0  0.09260801129968142  0.8890464785917018  0.966839519336247  1.0000
  Cu  Cu4       1.0  0.9073887442827839  0.11095773423856768  0.03316060516235803  1.0000
  Mo  Mo1       1.0  0.43455680429824645  0.665681856656846  0.05532519965392874  1.0000
  Mo  Mo2       1.0  0.5654451844186923  0.33431700617668264  0.9446717671143504  1.0000
  Mo  Mo3       1.0  0.8154065058515626  0.5686051203530339  0.2527517784694878  1.0000
  Mo  Mo4       1.0  0.1845931933450089  0.43139481442657507  0.7472452258742238  1.0000
  Mo  Mo5       1.0  0.9081748397744889  0.5740644658534464  0.9040502896210825  1.0000
  Mo  Mo6       1.0  0.09182468271817609  0.4259344113981881  0.09594815590731531  1.0000
  H   H1        1.0  0.8130500580308961  0.8855788944491391  0.1493392404701763  1.0000
  H   H2        1.0  0.18694811435428704  0.11442637245885828  0.8506596558570365  1.0000
  H   H3        1.0  0.14007587286717887  0.895784350508762  0.27555207378804153  1.0000
  H   H4        1.0  0.8599246990470423  0.1042134582470382  0.7244461211516297  1.0000
  H   H5        1.0  0.5356144095771711  0.3607207354243016  0.4029889767488086  1.0000
  H   H6        1.0  0.46438513387549557  0.6392781531037172  0.5970123259596463  1.0000
  H   H7        1.0  0.4710068036930579  0.3555499287816417  0.5519592027207949  1.0000
  H   H8        1.0  0.5289925630556951  0.6444479022183954  0.4480435411723461  1.0000
  H   H9        1.0  0.3815786054159815  0.1726998491125897  0.1516376608221393  1.0000
  H   H10       1.0  0.6184186624896455  0.8273001188791085  0.8483655842484551  1.0000
  H   H11       1.0  0.8547609863119022  0.3337796343187946  0.34018594675192293  1.0000
  H   H12       1.0  0.1452403902312867  0.6662224571720756  0.6598198169559168  1.0000
  H   H13       1.0  0.6752692492382837  0.1884630836990553  0.5706308472392791  1.0000
  H   H14       1.0  0.3247311459720308  0.8115336675287634  0.42936878888507807  1.0000
  H   H15       1.0  0.7768354741088218  0.35126393392428673  0.5881826406411506  1.0000
  H   H16       1.0  0.22316388565326412  0.6487338933169511  0.41181915085863346  1.0000
  C   C1        1.0  0.8083667104161735  0.9942746493719171  0.22229844806621918  1.0000
  C   C2        1.0  0.19162907780675204  0.005724230712893102  0.7776974536356107  1.0000
  C   C3        1.0  0.21990162534720534  0.9834818920058408  0.27982142523779874  1.0000
  C   C4        1.0  0.7800973390870638  0.016513797626664908  0.7201775342712581  1.0000
  C   C5        1.0  0.5204554799667278  0.2946968174872636  0.4595524662204795  1.0000
  C   C6        1.0  0.4795428164004676  0.7053020707322161  0.5404476710813313  1.0000
  C   C7        1.0  0.3415140236240505  0.1219665844873603  0.21399591664711445  1.0000
  C   C8        1.0  0.6584855128419491  0.8780323002818591  0.7860044336679833  1.0000
  C   C9        1.0  0.8310267171513601  0.22209196040927282  0.31681488686376724  1.0000
  C   C10       1.0  0.16897216522088598  0.7779101304645195  0.6831885460307916  1.0000
  C   C11       1.0  0.6888906559930845  0.25383865188782545  0.5134149695890144  1.0000
  C   C12       1.0  0.3111066049258753  0.7461613123450731  0.48658732308823  1.0000
  N   N1        1.0  0.7611521380485938  0.17408276198719358  0.39536646221932864  1.0000
  N   N2        1.0  0.23884760306798114  0.8259171953451981  0.6046362564844897  1.0000
  N   N3        1.0  0.7470189138685229  0.028523372830591094  0.3366142552089287  1.0000
  N   N4        1.0  0.2529770929783055  0.9714765873349762  0.6633859196683218  1.0000
  N   N5        1.0  0.31977717621506935  0.08334427189807059  0.4018630852518186  1.0000
  N   N6        1.0  0.6802271369555584  0.9166535377833471  0.5981386059077779  1.0000
  N   N7        1.0  0.2290820645424176  0.0038856507793951995  0.1621497663395957  1.0000
  N   N8        1.0  0.7709187050357117  0.9961132267807783  0.8378498445954391  1.0000
  N   N9        1.0  0.8605086527373372  0.11101265613638836  0.20617010083065423  1.0000
  N   N10       1.0  0.13948810983179527  0.8889915604526735  0.7938309760613009  1.0000
  N   N11       1.0  0.39632732341572563  0.17130676857631497  0.3580247071461429  1.0000
  N   N12       1.0  0.603673453149078  0.8286921127426508  0.641975856182249  1.0000
  O   O1        1.0  0.6179984481418971  0.5522932532999575  0.10316031597704262  1.0000
  O   O2        1.0  0.38200249814014603  0.4477066817881904  0.896837853773313  1.0000
  O   O3        1.0  0.02175682657812673  0.49672256886349697  0.2779426072956497  1.0000
  O   O4        1.0  0.9782385802903094  0.5032741811301661  0.7220523672021529  1.0000
  O   O5        1.0  0.8553896940750294  0.7522534354651355  0.3542495559239782  1.0000
  O   O6        1.0  0.14461106152977274  0.24774543457743897  0.6457481502243638  1.0000
  O   O7        1.0  0.7206108419091207  0.5074784544218145  0.35188061756473826  1.0000
  O   O8        1.0  0.27939134447172626  0.49252147721607287  0.6481177651989043  1.0000
  O   O9        1.0  0.9604018812377078  0.5998839209895407  0.09802209318804954  1.0000
  O   O10       1.0  0.03959906504433521  0.4001160140986144  0.9019760765622992  1.0000
  O   O11       1.0  0.46578756007698974  0.7837310300497008  0.23860029856609086  1.0000
  O   O12       1.0  0.5342138705815528  0.21626464516469915  0.76139718218284  1.0000
  O   O13       1.0  0.21654416946778096  0.6529213715474496  0.9594178736627511  1.0000
  O   O14       1.0  0.7834590453746273  0.3470774803182194  0.040577401332114925  1.0000
  O   O15       1.0  0.7029806018937137  0.4915236083441457  0.838139989058206  1.0000
  O   O16       1.0  0.29701930195343346  0.5084773989986289  0.16185938367421926  1.0000
  O   O17       1.0  0.9015817902310275  0.7528388082782128  0.9316091562016311  1.0000
  O   O18       1.0  0.0984202054725785  0.247160058314101  0.06838876295999084  1.0000
  O   O19       1.0  0.5412596380384258  0.7558577522222761  0.9871323838381798  1.0000
  O   O20       1.0  0.4587429366835707  0.24414431326555783  0.012867878522840182  1.0000
