data_image0
_chemical_formula_structural       Zn8C80Br32N8O42
_chemical_formula_sum              "Zn8 C80 Br32 N8 O42"
_cell_length_a       23.615985155120914
_cell_length_b       23.61708022831737
_cell_length_c       23.616374961650788
_cell_angle_alpha    66.21781670513869
_cell_angle_beta     72.6510416741533
_cell_angle_gamma    107.36857874171102

_space_group_name_H-M_alt    "P 1"
_space_group_IT_number       1

loop_
  _space_group_symop_operation_xyz
  'x, y, z'

loop_
  _atom_site_type_symbol
  _atom_site_label
  _atom_site_symmetry_multiplicity
  _atom_site_fract_x
  _atom_site_fract_y
  _atom_site_fract_z
  _atom_site_occupancy
  Zn  Zn1       1.0  0.05890375141733966  0.9585153131825019  0.48401514586346694  1.0000
  Zn  Zn2       1.0  0.0588921502522055  0.10039481966685318  0.4570916193660112  1.0000
  Zn  Zn3       1.0  0.9411270861997495  0.9840229039932493  0.4584845423030049  1.0000
  Zn  Zn4       1.0  0.9411360555776015  0.9571017878822653  0.6003445176957105  1.0000
  Zn  Zn5       1.0  0.9425591077199301  0.542905267316705  0.015961850605584884  1.0000
  Zn  Zn6       1.0  0.057514402302409506  0.5159894681163306  0.04290176315249285  1.0000
  Zn  Zn7       1.0  0.9425339185323055  0.39963608385197325  0.041488193425642896  1.0000
  Zn  Zn8       1.0  0.05747737612762188  0.5414933525973706  0.8996112582087649  1.0000
  C   C1        1.0  0.17919608935451248  0.08963654712161431  0.41037435339095657  1.0000
  C   C2        1.0  0.9999905154614481  0.13597833900256254  0.36402144710358914  1.0000
  C   C3        1.0  2.188673910494866e-06  0.9107006780621698  0.41070172426463375  1.0000
  C   C4        1.0  0.820816430416194  0.9103984163224079  0.5895651169544894  1.0000
  C   C5        1.0  1.2125817328117602e-05  0.8640285290585364  0.6359813276361596  1.0000
  C   C6        1.0  0.9999940276251776  0.08929454305272347  0.5892906928971585  1.0000
  C   C7        1.0  2.3471011054581115e-05  0.5895750759641698  0.0896111139071964  1.0000
  C   C8        1.0  1.0423127712061138e-05  0.36402637158059997  0.1359743472680749  1.0000
  C   C9        1.0  0.8214232834002716  0.41072260198024657  0.08927688821429325  1.0000
  C   C10       1.0  0.9999857826909705  0.41037019675233205  0.9104384105132227  1.0000
  C   C11       1.0  0.999997730733689  0.6359760564710083  0.8640154192330416  1.0000
  C   C12       1.0  0.1786106454200934  0.5892719282899107  0.9107006732085597  1.0000
  C   C13       1.0  2.9401124025411222e-06  0.8054450264460229  0.6945579193062558  1.0000
  C   C14       1.0  0.9999989657123083  0.6945563462300652  0.8054399566872876  1.0000
  C   C15       1.0  0.9563047581662334  0.7759157167999432  0.7656532652221275  1.0000
  C   C16       1.0  0.041567819709556  0.7219531164274356  0.7343432487474291  1.0000
  C   C17       1.0  0.9584440949794201  0.7240967250405318  0.819606774398608  1.0000
  C   C18       1.0  0.0437030190234535  0.7780494038366822  0.6803870521618908  1.0000
  C   C19       1.0  0.9999992347832887  0.19455665923498347  0.30543901972122  1.0000
  C   C20       1.0  3.895581933509335e-06  0.30544551005169746  0.1945545909693039  1.0000
  C   C21       1.0  0.9562926395345955  0.1803812678173885  0.27803518239451114  1.0000
  C   C22       1.0  0.04158184948590099  0.31962043128380907  0.224085140270475  1.0000
  C   C23       1.0  0.9584226340965288  0.23434307890227749  0.22195026529215073  1.0000
  C   C24       1.0  0.04370816337682733  0.2656606992149833  0.27591562426881927  1.0000
  C   C25       1.0  2.0724625947806293e-05  0.6275686336140748  0.12761816593379666  1.0000
  C   C26       1.0  0.9405117867889035  0.6278407260682997  0.16307982628890733  1.0000
  C   C27       1.0  0.9406307745821462  0.6638139961156777  0.19785777383587833  1.0000
  C   C28       1.0  4.140975560308062e-05  0.699058802456129  0.19903950366092013  1.0000
  C   C29       1.0  0.05944235161412337  0.6978824275417349  0.16380771390829826  1.0000
  C   C30       1.0  0.05953575794552527  0.66306298910181  0.12787852745015743  1.0000
  C   C31       1.0  5.4091324777709115e-05  0.7347214075165809  0.23468650029452232  1.0000
  C   C32       1.0  3.1527172822675954e-05  0.7655369030817168  0.26549885970249704  1.0000
  C   C33       1.0  0.9999962271197089  0.8011715323841525  0.301172045632015  1.0000
  C   C34       1.0  0.9823471483654701  0.8558437402279606  0.28288614383945554  1.0000
  C   C35       1.0  0.9828220429893054  0.8915374385564402  0.31797420265799314  1.0000
  C   C36       1.0  5.479547077429055e-06  0.8726682753917954  0.3726651373469923  1.0000
  C   C37       1.0  0.01718335878591387  0.8179800981324089  0.39153839262549917  1.0000
  C   C38       1.0  0.01763401845552447  0.7828769233605327  0.3558583308954299  1.0000
  C   C39       1.0  0.9999418426951581  0.3723445369870432  0.8724679323135905  1.0000
  C   C40       1.0  0.059433512962563266  0.3963473613632969  0.8126986877377792  1.0000
  C   C41       1.0  0.05927827971606796  0.3614247934158141  0.7768705040765983  1.0000
  C   C42       1.0  0.9998323781303428  0.3008599116514929  0.8010498589350947  1.0000
  C   C43       1.0  0.9404407917313761  0.27671611418236364  0.8616259898240488  1.0000
  C   C44       1.0  0.9403983260811516  0.3125854211363687  0.8965062013012076  1.0000
  C   C45       1.0  0.9998080926062727  0.26519835087029964  0.765402964505711  1.0000
  C   C46       1.0  0.9998465393094094  0.23441629526321606  0.7345555453382816  1.0000
  C   C47       1.0  0.9999066538346641  0.19878605329696347  0.6988771595492198  1.0000
  C   C48       1.0  0.01759564049879708  0.23473443413489284  0.626540874391843  1.0000
  C   C49       1.0  0.017167558751069043  0.19919211268677361  0.5912961623700215  1.0000
  C   C50       1.0  0.9999861080526317  0.12732173579951933  0.6273387952393393  1.0000
  C   C51       1.0  0.9827890650909128  0.0912623381592396  0.6992120525719941  1.0000
  C   C52       1.0  0.9822885481522903  0.12647002628958168  0.7347908171303601  1.0000
  C   C53       1.0  0.7453480968556007  0.37268800078373204  0.1273075053360915  1.0000
  C   C54       1.0  0.7095345417017215  0.40874840690499775  0.10844297224653586  1.0000
  C   C55       1.0  0.6387491959057031  0.3735370994292991  0.14414306595762852  1.0000
  C   C56       1.0  0.6023500988786951  0.3012132605260618  0.19882758338511056  1.0000
  C   C57       1.0  0.6387324434782257  0.265263294363649  0.2170961750646826  1.0000
  C   C58       1.0  0.7095210117416428  0.30081709840889187  0.1819874969709972  1.0000
  C   C59       1.0  0.5310424408821534  0.26558619235143505  0.23450582488497676  1.0000
  C   C60       1.0  0.4694153745955987  0.23479819193423873  0.2653223002167097  1.0000
  C   C61       1.0  0.39810562611774697  0.1991343932971715  0.30096968301759847  1.0000
  C   C62       1.0  0.36167822418958917  0.22328486858157243  0.3362099639518733  1.0000
  C   C63       1.0  0.29092788969304456  0.18741914796100184  0.3721460727343314  1.0000
  C   C64       1.0  0.25519571490477233  0.12765444448783111  0.3723798642803545  1.0000
  C   C65       1.0  0.2909498877283951  0.10363876916358095  0.33689573785972027  1.0000
  C   C66       1.0  0.36170017513855873  0.13855398803352156  0.3021242895712463  1.0000
  C   C67       1.0  0.2546827080083176  0.6272986588113126  0.8726707495550418  1.0000
  C   C68       1.0  0.2905039162517298  0.6084248043559057  0.9087219940826546  1.0000
  C   C69       1.0  0.3612889787854528  0.6440963669576333  0.8734915449465038  1.0000
  C   C70       1.0  0.3976728658211071  0.6987622830523177  0.8011748252620452  1.0000
  C   C71       1.0  0.3612774871696016  0.7170892575265452  0.7652573109203405  1.0000
  C   C72       1.0  0.29049045051155525  0.6819965670358383  0.8008148443471942  1.0000
  C   C73       1.0  0.46898094357710834  0.7343850419952034  0.7654935208565022  1.0000
  C   C74       1.0  0.5306056616828201  0.7651739323116896  0.7346608809052104  1.0000
  C   C75       1.0  0.601917868795489  0.8008396517804851  0.6990158039123461  1.0000
  C   C76       1.0  0.63831276668796  0.8361058832558891  0.723187947183249  1.0000
  C   C77       1.0  0.7090662979348323  0.8721046138333006  0.6873298731045028  1.0000
  C   C78       1.0  0.7448200378225066  0.8723806123652191  0.6275547873306524  1.0000
  C   C79       1.0  0.7090882003757673  0.8368739657613131  0.6035252104401112  1.0000
  C   C80       1.0  0.6383381112902881  0.8020278753845173  0.6384328630133214  1.0000
  Br  Br1       1.0  0.8591346545230607  0.5763523389018841  0.1670809152580833  1.0000
  Br  Br2       1.0  0.14089706210156544  0.667082250728974  0.07638572227692474  1.0000
  Br  Br3       1.0  0.13767556838877235  0.7446953597636179  0.16662752456975483  1.0000
  Br  Br4       1.0  0.8624194875501557  0.6666796096412779  0.24460279487883724  1.0000
  Br  Br5       1.0  0.9586871878294474  0.8787355693344235  0.2101795694997369  1.0000
  Br  Br6       1.0  0.04128259473686304  0.710171720154818  0.3787564627288947  1.0000
  Br  Br7       1.0  0.036862051554201886  0.7891506474438186  0.4673603540121721  1.0000
  Br  Br8       1.0  0.9631438884971222  0.9673565980187605  0.2891527649366384  1.0000
  Br  Br9       1.0  0.14083428809698265  0.4736779122047706  0.7828139238963774  1.0000
  Br  Br10      1.0  0.8590568296219844  0.28273482461199234  0.9738712417791862  1.0000
  Br  Br11      1.0  0.8621690256782272  0.19568632907846228  0.8930747881437074  1.0000
  Br  Br12      1.0  0.13747183156412754  0.39283696208462965  0.6958117510485097  1.0000
  Br  Br13      1.0  0.04124895806369013  0.33109311267055824  0.5799993938749709  1.0000
  Br  Br14      1.0  0.9585861277722784  0.07987519455926421  0.8311634327156486  1.0000
  Br  Br15      1.0  0.9631225780256539  0.9957652900355779  0.7476930404269103  1.0000
  Br  Br16      1.0  0.036873496118630576  0.24771815812681547  0.4957885452360317  1.0000
  Br  Br17      1.0  0.7565410866485892  0.5042552992419471  0.03263204497304182  1.0000
  Br  Br18      1.0  0.7565093466569978  0.25229884306557426  0.21080384781021175  1.0000
  Br  Br19      1.0  0.5889212002151892  0.1689025861063697  0.2897967585243322  1.0000
  Br  Br20      1.0  0.5889617347742943  0.42012793021875433  0.1212667859728214  1.0000
  Br  Br21      1.0  0.41128033442567613  0.3043384886725277  0.3334004425571778  1.0000
  Br  Br22      1.0  0.411327436405614  0.10711421840614575  0.25536313924941834  1.0000
  Br  Br23      1.0  0.24347966347389166  0.026291354638289032  0.33285962033397715  1.0000
  Br  Br24      1.0  0.2434321570700462  0.21726682784399992  0.4236478197474726  1.0000
  Br  Br25      1.0  0.24349794208738712  0.5326141368220402  0.004222138400898377  1.0000
  Br  Br26      1.0  0.24349472534020575  0.7108315492528943  0.7523116075907413  1.0000
  Br  Br27      1.0  0.411085492725391  0.7898197438651022  0.6689117654426513  1.0000
  Br  Br28      1.0  0.4111082337374511  0.6211858272029002  0.9200333382690433  1.0000
  Br  Br29      1.0  0.5886823505421076  0.8332327739693209  0.8042577101755842  1.0000
  Br  Br30      1.0  0.5887254802729417  0.7552030335247294  0.6070036445998  1.0000
  Br  Br31      1.0  0.7565899112156416  0.8329023659411374  0.5261544121073245  1.0000
  Br  Br32      1.0  0.7565256091926003  0.9235990087563335  0.7172218092008154  1.0000
  N   N1        1.0  0.9049110745808522  0.7981529352605818  0.7860411417775954  1.0000
  N   N2        1.0  0.08419430198454592  0.6909474571830143  0.713946063733026  1.0000
  N   N3        1.0  0.9158259680405225  0.7018741117896709  0.8932337387744843  1.0000
  N   N4        1.0  0.09511999664266554  0.809062131790824  0.606761402496446  1.0000
  N   N5        1.0  0.9048746410948852  0.1067432893168103  0.3090437848845583  1.0000
  N   N6        1.0  0.08421889046344698  0.3932576198959906  0.20186066255301688  1.0000
  N   N7        1.0  0.9157820242920919  0.21395161603754786  0.19094121454462257  1.0000
  N   N8        1.0  0.09511130650597716  0.2860513040145633  0.298159442159495  1.0000
  O   O1        1.0  2.4361333906599774e-05  1.1419869601099468e-05  0.4999762943749603  1.0000
  O   O2        1.0  0.15010587410875334  0.024307517371504214  0.4579051160703216  1.0000
  O   O3        1.0  0.022935244573773217  0.15238519676564266  0.40048198948241526  1.0000
  O   O4        1.0  0.9454062959098621  0.9116898132602808  0.43871542752611997  1.0000
  O   O5        1.0  0.150084393256023  0.12586796341655318  0.3919407298573675  1.0000
  O   O6        1.0  0.05460508476961223  0.9387184006582101  0.41170087947303824  1.0000
  O   O7        1.0  0.9770414708628294  0.07658305728831748  0.37056040833137877  1.0000
  O   O8        1.0  0.8499245526616478  0.9579416558991337  0.5242281687639267  1.0000
  O   O9        1.0  0.9770385257670285  0.900464634409722  0.6523979907268399  1.0000
  O   O10       1.0  0.8499287572687778  0.8919676991825651  0.6257921369274019  1.0000
  O   O11       1.0  0.022995870459240328  0.8706008215219537  0.5765833813769777  1.0000
  O   O12       1.0  0.054590521515486  0.11588274710113207  0.5337083825998407  1.0000
  O   O13       1.0  0.9453946494047119  0.033700455636115234  0.6158564019281344  1.0000
  O   O14       1.0  4.3227477554843155e-05  0.5000175610649221  0.9999841535239826  1.0000
  O   O15       1.0  0.9822324579123465  0.6080144487871167  0.042064893492224066  1.0000
  O   O16       1.0  0.052871250506221656  0.4234110932153568  0.09952321506143158  1.0000
  O   O17       1.0  0.8504252206837535  0.384142656232761  0.06125850895305264  1.0000
  O   O18       1.0  0.017827676333283256  0.542039061915311  0.10803914919951303  1.0000
  O   O19       1.0  0.8504422296156735  0.46631040462364115  0.088289585269095  1.0000
  O   O20       1.0  0.9471407332368288  0.3476194903643445  0.12943458174765962  1.0000
  O   O21       1.0  0.9821964924703863  0.37414712419201374  0.975778523235782  1.0000
  O   O22       1.0  0.05282847327889336  0.629409457048851  0.8476012421333652  1.0000
  O   O23       1.0  0.01779109203631179  0.47570392175938264  0.8741987311362964  1.0000
  O   O24       1.0  0.9471559622413963  0.599554409454491  0.9234213043247128  1.0000
  O   O25       1.0  0.14961196347642405  0.5882921089885752  0.9662845647241912  1.0000
  O   O26       1.0  0.1495845262076827  0.5612541950112513  0.8841241826308635  1.0000
  O   O27       1.0  0.8574686347896476  0.7795349279787515  0.7744474016628831  1.0000
  O   O28       1.0  0.9138304959074902  0.8309978266226634  0.8148615918267055  1.0000
  O   O29       1.0  0.053980266355651514  0.6319244740947095  0.7255138532028201  1.0000
  O   O30       1.0  0.14585691530913877  0.7286763698248745  0.6851386420084968  1.0000
  O   O31       1.0  0.9460431726398684  0.7204999507618054  0.9220554721056403  1.0000
  O   O32       1.0  0.8541646464888971  0.6690398243453047  0.9171558669480506  1.0000
  O   O33       1.0  0.1425712929977434  0.8680824881677932  0.5779590844122426  1.0000
  O   O34       1.0  0.08621018016893345  0.7713271677910213  0.5828304725624565  1.0000
  O   O35       1.0  0.8574334699316424  0.07792407591325899  0.3680619389009865  1.0000
  O   O36       1.0  0.9137776234860269  0.08280917297980737  0.2713134787170192  1.0000
  O   O37       1.0  0.054017905745936984  0.4220815230911157  0.22047687009233397  1.0000
  O   O38       1.0  0.14588055945628045  0.417187004196201  0.16903032909124255  1.0000
  O   O39       1.0  0.9459836952848522  0.22554252951340448  0.13191117856521836  1.0000
  O   O40       1.0  0.8541218084720869  0.18511763603002868  0.22867100878528399  1.0000
  O   O41       1.0  0.14254760678037576  0.2744615508034087  0.2795506489568569  1.0000
  O   O42       1.0  0.08621544078124542  0.31488965370246536  0.3309844722211751  1.0000
