data_image0
_chemical_formula_structural       Er4H56C44N4O32
_chemical_formula_sum              "Er4 H56 C44 N4 O32"
_cell_length_a       8.323452041
_cell_length_b       11.982092538822391
_cell_length_c       13.1583
_cell_angle_alpha    90.0
_cell_angle_beta     90.0
_cell_angle_gamma    96.48905079846132

_space_group_name_H-M_alt    "P 1"
_space_group_IT_number       1

loop_
  _space_group_symop_operation_xyz
  'x, y, z'

loop_
  _atom_site_type_symbol
  _atom_site_label
  _atom_site_symmetry_multiplicity
  _atom_site_fract_x
  _atom_site_fract_y
  _atom_site_fract_z
  _atom_site_occupancy
  Er  Er1       1.0  0.004657704435473406  0.33584372425912085  0.5951407096661399  1.0000
  Er  Er2       1.0  0.49534248115884333  0.664157207172515  0.0951399496895462  1.0000
  Er  Er3       1.0  0.9953429592657556  0.664157207172515  0.4048592903338601  1.0000
  Er  Er4       1.0  0.5046577725849701  0.3358412043791361  0.9048592903338601  1.0000
  H   H1        1.0  0.8043534535619727  0.5200343515314074  0.6144638745126655  1.0000
  H   H2        1.0  0.695646213516639  0.4799648999802457  0.1144638745126656  1.0000
  H   H3        1.0  0.1956484115638588  0.4799665799002284  0.3855353655107407  1.0000
  H   H4        1.0  0.3043527021501049  0.5200326716114178  0.8855361254873344  1.0000
  H   H5        1.0  0.7799245265960337  0.4661601574797488  0.7264791044435839  1.0000
  H   H6        1.0  0.7200764785596477  0.5338399339918922  0.2264791044435839  1.0000
  H   H7        1.0  0.2200772018773236  0.5338399339918922  0.2735201355798225  1.0000
  H   H8        1.0  0.2799239118366401  0.4661593175197609  0.7735201355798225  1.0000
  H   H9        1.0  0.9341291979072179  0.2646923930920053  0.8065403585569583  1.0000
  H   H10       1.0  0.5658720805534116  0.7353093782996254  0.3065395985803647  1.0000
  H   H11       1.0  0.065871465794018  0.7353085383396376  0.19345964144304156  1.0000
  H   H12       1.0  0.43412724507075495  0.2646907131720155  0.6934588814664479  1.0000
  H   H13       1.0  0.1252873697363484  0.2570815155868615  0.7974662380398669  1.0000
  H   H14       1.0  0.3747137439776155  0.7429177359247847  0.2974662380398669  1.0000
  H   H15       1.0  0.874711819235344  0.7429177359247847  0.20253300198353935  1.0000
  H   H16       1.0  0.6252877111907863  0.25708067562687387  0.7025330019835394  1.0000
  H   H17       1.0  0.1588710648051048  0.2025244340601304  0.3799328180692  1.0000
  H   H18       1.0  0.34112912078921204  0.7974764973715056  0.8799328180692001  1.0000
  H   H19       1.0  0.8411327932124948  0.7974739774915207  0.6200687018839801  1.0000
  H   H20       1.0  0.6588691400628335  0.2025244340601304  0.1200687018839801  1.0000
  H   H21       1.0  0.0682916461821748  0.05200528306512811  0.2536376279610622  1.0000
  H   H22       1.0  0.431711078913807  0.9479964883265027  0.753637627961062  1.0000
  H   H23       1.0  0.9317114203682523  0.947995648366508  0.7463631320155315  1.0000
  H   H24       1.0  0.5682862538185914  0.052006123025123  0.24636541194531247  1.0000
  H   H25       1.0  0.814496269412679  0.9263843176822918  0.28700668019425274  1.0000
  H   H26       1.0  0.6855050090479436  0.073617453709339  0.787008200147433  1.0000
  H   H27       1.0  0.1855057323656268  0.073617453709339  0.7129917998525669  1.0000
  H   H28       1.0  0.3144920503794992  0.926383477722297  0.2129940797823409  1.0000
  H   H29       1.0  0.6537205735127714  0.9605841287957662  0.4454405204319726  1.0000
  H   H30       1.0  0.8462792302183145  0.03941596267587501  0.9454420403851527  1.0000
  H   H31       1.0  0.3462800901884648  0.0394168026358699  0.5545571996382535  1.0000
  H   H32       1.0  0.15372102352549893  0.9605824488757834  0.0545579596148471  1.0000
  H   H33       1.0  0.5179133679888182  0.22910328814854355  0.5004871449959367  1.0000
  H   H34       1.0  0.9820877738193374  0.7708976432830923  0.00048790497253039996  1.0000
  H   H35       1.0  0.48208489286322737  0.7708976432830923  0.4995128550040632  1.0000
  H   H36       1.0  0.01791409130649411  0.22910328814854355  0.9995136149806568  1.0000
  H   H37       1.0  0.5678008082884958  0.3720325606382602  0.5270498468647132  1.0000
  H   H38       1.0  0.932197930670462  0.6279683707933827  0.027049846864713296  1.0000
  H   H39       1.0  0.4321975892160239  0.6279692107533776  0.47295015313528666  1.0000
  H   H40       1.0  0.0678015316061717  0.3720325606382602  0.9729524330650603  1.0000
  H   H41       1.0  0.4774498781910452  0.4196927306547025  0.3477812483375543  1.0000
  H   H42       1.0  0.02255017075079731  0.5803073608169385  0.8477812483375542  1.0000
  H   H43       1.0  0.5225495840855956  0.5803082007769333  0.6522179916858589  1.0000
  H   H44       1.0  0.977448090101241  0.41969357061469753  0.15221951163903918  1.0000
  H   H45       1.0  0.4276581364284766  0.27473747465959525  0.3242637726757991  1.0000
  H   H46       1.0  0.07233964631664952  0.7252634567720407  0.8242637726757991  1.0000
  H   H47       1.0  0.5723401244235689  0.7252634567720407  0.6757362273242007  1.0000
  H   H48       1.0  0.9276575497632749  0.2747383146195901  0.1757377472773811  1.0000
  H   H49       1.0  0.7183233006286187  0.2428038756097806  0.3543687254432584  1.0000
  H   H50       1.0  0.7816753016778719  0.7571962158618604  0.8543702453964384  1.0000
  H   H51       1.0  0.2816760249955479  0.7571962158618604  0.6456289946269678  1.0000
  H   H52       1.0  0.2183202830200344  0.2428030356497928  0.1456312745567416  1.0000
  H   H53       1.0  0.6882046675442764  0.3325208425230741  0.24949195564776255  1.0000
  H   H54       1.0  0.8117939347622071  0.6674792489485739  0.7494934756009499  1.0000
  H   H55       1.0  0.3117934566552876  0.6674792489485739  0.7505072843756435  1.0000
  H   H56       1.0  0.18820418943736436  0.3325208425230741  0.2505080443522374  1.0000
  C   C1        1.0  0.047807859442556805  0.1469249621809112  0.3918864898961089  1.0000
  C   C2        1.0  0.45219486565342487  0.8530768092107196  0.8918864898961087  1.0000
  C   C3        1.0  0.9521986747291749  0.8530751292907297  0.6081142700804847  1.0000
  C   C4        1.0  0.5478032585461463  0.1469232822609214  0.10811503005707117  1.0000
  C   C5        1.0  0.9976300140967637  0.0629667609861144  0.3217718094282702  1.0000
  C   C6        1.0  0.5023705811014878  0.9370308106055489  0.8217756093112312  1.0000
  C   C7        1.0  0.002371441071638031  0.937031650565544  0.6782259106419557  1.0000
  C   C8        1.0  0.4976298092947999  0.0629684409061042  0.1782289505483234  1.0000
  C   C9        1.0  0.8551623555880284  0.9930040646820759  0.3402931989694693  1.0000
  C   C10       1.0  0.6448399876447155  0.006996866749567202  0.8402954788992503  1.0000
  C   C11       1.0  0.1448420490394682  0.006997706709555  0.6597045211007495  1.0000
  C   C12       1.0  0.3551569351302533  0.9930032247220808  0.1597075610071244  1.0000
  C   C13       1.0  0.767700623135397  0.0104785009244708  0.4278713815614451  1.0000
  C   C14       1.0  0.7323005186727514  0.9895224305071724  0.9278729015146324  1.0000
  C   C15       1.0  0.23230110533795312  0.9895215905471773  0.5721286184385548  1.0000
  C   C16       1.0  0.26769987172352927  0.010476821004481  0.0721286184385548  1.0000
  C   C17       1.0  0.8251033482940785  0.0975294348169697  0.49327192722464014  1.0000
  C   C18       1.0  0.6748965920894818  0.9024714966146661  0.9932726872012339  1.0000
  C   C19       1.0  0.17489838017927892  0.9024706566546714  0.5067273127987661  1.0000
  C   C20       1.0  0.32510232357726204  0.0975260749769973  0.0067273127987661  1.0000
  C   C21       1.0  0.7277368593069723  0.12258208159638433  0.5853119323924858  1.0000
  C   C22       1.0  0.7722654839257713  0.8774188498352515  0.0853126923690724  1.0000
  C   C23       1.0  0.2722726243238541  0.8774213697152364  0.4146857876777403  1.0000
  C   C24       1.0  0.2277359712426303  0.1225795617163996  0.9146865476543339  1.0000
  C   C25       1.0  0.3171853176107078  0.3193746286578333  0.5203901719827044  1.0000
  C   C26       1.0  0.182814867983609  0.6806263027738026  0.0203894120061108  1.0000
  C   C27       1.0  0.6828145546233556  0.6806288226537873  0.4796098280172956  1.0000
  C   C28       1.0  0.8171843209880832  0.31937294873784344  0.979610587993889  1.0000
  C   C29       1.0  0.4859137137660667  0.3130404903434894  0.4812103387215671  1.0000
  C   C30       1.0  0.014086335175768707  0.6869596011281516  0.9812126186513481  1.0000
  C   C31       1.0  0.514085748510567  0.6869604410881466  0.5187881413252455  1.0000
  C   C32       1.0  0.985913127100865  0.3130413303034842  0.0187904212550265  1.0000
  C   C33       1.0  0.5091661100000167  0.3357857670195372  0.3677367137092205  1.0000
  C   C34       1.0  0.9908336937310693  0.6642143244521037  0.867737473685807  1.0000
  C   C35       1.0  0.4908333522766242  0.6642151644120986  0.6322617663375993  1.0000
  C   C36       1.0  0.009165768545571504  0.3357866069795321  0.1322648062439669  1.0000
  C   C37       1.0  0.6830763030062172  0.3251023158565474  0.3325961560383917  1.0000
  C   C38       1.0  0.816921097875678  0.6748977756150936  0.832597675991579  1.0000
  C   C39       1.0  0.31692195784582816  0.6748986155750886  0.6674023240084208  1.0000
  C   C40       1.0  0.183076889671419  0.3251014758965525  0.1674038439616083  1.0000
  C   C41       1.0  0.8010602855101681  0.4170014988341039  0.3782601095886235  1.0000
  C   C42       1.0  0.6989389716110139  0.5829952327975647  0.8782578296588496  1.0000
  C   C43       1.0  0.1989413063107079  0.5829977526775423  0.6217391304347828  1.0000
  C   C44       1.0  0.3010598074032558  0.4170014988341039  0.12174141036456378  1.0000
  N   N1        1.0  0.9635106907380404  0.1655040372869863  0.4762780906348069  1.0000
  N   N2        1.0  0.5364907243750565  0.8344985740646395  0.9762788506114006  1.0000
  N   N3        1.0  0.03649357723697481  0.8344968941446496  0.523721909365193  1.0000
  N   N4        1.0  0.4635098026736983  0.1655015174070087  0.023721909365193  1.0000
  O   O1        1.0  0.6072378465587533  0.057523820225348715  0.6099290941838973  1.0000
  O   O2        1.0  0.892760619095256  0.9424754312863045  0.1099298541604909  1.0000
  O   O3        1.0  0.392756263409602  0.9424737513663147  0.3900701458395091  1.0000
  O   O4        1.0  0.1072382965714809  0.057522140305359015  0.8900709058161025  1.0000
  O   O5        1.0  0.7771710051528444  0.2163560552804284  0.6317358625354358  1.0000
  O   O6        1.0  0.7228313380799065  0.7836448761512074  0.13173586253543587  1.0000
  O   O7        1.0  0.2228295218959175  0.7836440361912125  0.3682633774879704  1.0000
  O   O8        1.0  0.2771713185130976  0.21635353540044383  0.8682633774879703  1.0000
  O   O9        1.0  0.2161176834110066  0.3717536939202688  0.4709719340644298  1.0000
  O   O10       1.0  0.28388061749633664  0.6282430377113997  0.9709726940410235  1.0000
  O   O11       1.0  0.7838808507459873  0.6282489174313568  0.5290288259121638  1.0000
  O   O12       1.0  0.7161169600933306  0.3717536939202688  0.0290288259121638  1.0000
  O   O13       1.0  0.2724592854758399  0.2709710940467431  0.6040423154966845  1.0000
  O   O14       1.0  0.2275435762726161  0.7290315173048825  0.10404155552009087  1.0000
  O   O15       1.0  0.7275405867582236  0.7290323572648776  0.39595844447990897  1.0000
  O   O16       1.0  0.7724609650073546  0.2709710940467431  0.8959576845033155  1.0000
  O   O17       1.0  0.8792898619054057  0.398133477490113  0.4577354217490068  1.0000
  O   O18       1.0  0.6207074023240153  0.6018657740215403  0.9577354217490066  1.0000
  O   O19       1.0  0.12071159326300318  0.6018649340615454  0.5422622983212122  1.0000
  O   O20       1.0  0.37929096673282464  0.39812843773015066  0.0422653382275797  1.0000
  O   O21       1.0  0.8139039488646134  0.5138186475762154  0.335990211501489  1.0000
  O   O22       1.0  0.6860993224877774  0.4861806039354377  0.8359909714780753  1.0000
  O   O23       1.0  0.18609884438085803  0.4861806039354377  0.6640082685453308  1.0000
  O   O24       1.0  0.3139045355298151  0.5138178076162205  0.16400902852192434  1.0000
  O   O25       1.0  0.8314345316637599  0.4577865963001102  0.6585098378969931  1.0000
  O   O26       1.0  0.6685652720673261  0.5422134951715307  0.1585105978735868  1.0000
  O   O27       1.0  0.1685671968095974  0.5422134951715307  0.3414894021264132  1.0000
  O   O28       1.0  0.3314337802518921  0.45778491638012053  0.841489402126413  1.0000
  O   O29       1.0  0.028786981478532408  0.28057519661751235  0.7608406861068673  1.0000
  O   O30       1.0  0.471212002691189  0.7194257348141235  0.2608406861068673  1.0000
  O   O31       1.0  0.9712111427210387  0.7194248948541289  0.2391593138931327  1.0000
  O   O32       1.0  0.5287855748984782  0.28057099681754494  0.7391593138931325  1.0000
