data_image0
_chemical_formula_structural       Dy2H32C30O22
_chemical_formula_sum              "Dy2 H32 C30 O22"
_cell_length_a       8.048882953315777
_cell_length_b       9.33780790077921
_cell_length_c       12.762475409714638
_cell_angle_alpha    104.41026065585339
_cell_angle_beta     95.30989815469884
_cell_angle_gamma    109.6128732900277

_space_group_name_H-M_alt    "P 1"
_space_group_IT_number       1

loop_
  _space_group_symop_operation_xyz
  'x, y, z'

loop_
  _atom_site_type_symbol
  _atom_site_label
  _atom_site_symmetry_multiplicity
  _atom_site_fract_x
  _atom_site_fract_y
  _atom_site_fract_z
  _atom_site_occupancy
  Dy  Dy1       1.0  0.6348536172042288  0.22112549185012403  0.5120669725335176  1.0000
  Dy  Dy2       1.0  0.36516856406093007  0.7788819602098158  0.4879267129389717  1.0000
  H   H1        1.0  0.9614240098192826  0.22107325939749958  0.4739021865739375  1.0000
  H   H2        1.0  0.03859917898024879  0.7789108633490683  0.5260961226366447  1.0000
  H   H3        1.0  0.04985853812475936  0.3600537618023196  0.5880695178012374  1.0000
  H   H4        1.0  0.9501430678471722  0.6399262052971436  0.41193069597085247  1.0000
  H   H5        1.0  0.8680745873731938  0.5533172514038256  0.5591051614216624  1.0000
  H   H6        1.0  0.13194845056035115  0.44668928538849423  0.44090173738467087  1.0000
  H   H7        1.0  0.6826231251589334  0.5665412082871766  0.5808975315763263  1.0000
  H   H8        1.0  0.3173935861239841  0.4334650967527196  0.41910738131949904  1.0000
  H   H9        1.0  0.9298079939836371  0.8100695448817986  0.32575099909522004  1.0000
  H   H10       1.0  0.07019026475167318  0.18991143496019447  0.6742460561435238  1.0000
  H   H11       1.0  0.7495834657790184  0.7618366741620335  0.21738714822912192  1.0000
  H   H12       1.0  0.25040569117013695  0.23814984869611064  0.7826079755373243  1.0000
  H   H13       1.0  0.09478695818627605  0.26260256666028425  0.23365204223789252  1.0000
  H   H14       1.0  0.905227063003089  0.7373837617314434  0.7663547217346434  1.0000
  H   H15       1.0  0.03897340177780956  0.33526670180982165  0.06174816209791349  1.0000
  H   H16       1.0  0.961033799162017  0.6647311077191772  0.9382570556948125  1.0000
  H   H17       1.0  0.5906133323830217  0.8872186289908796  0.9293215846997854  1.0000
  H   H18       1.0  0.4093889154764981  0.11278253370775809  0.0706831362320628  1.0000
  H   H19       1.0  0.6555467189434196  0.8105415667490661  0.0918829483060293  1.0000
  H   H20       1.0  0.34446070264890244  0.1894502623073393  0.9081149740791332  1.0000
  H   H21       1.0  0.5399918481246928  0.010745427614850197  0.8046875204586925  1.0000
  H   H22       1.0  0.46005239906467205  0.9892835973328217  0.1952939963629206  1.0000
  H   H23       1.0  0.715941922288188  0.9399923896189364  0.7753233199170637  1.0000
  H   H24       1.0  0.2840729858015649  0.06003844940002519  0.2246802655052917  1.0000
  H   H25       1.0  0.3568325566170216  0.3430373440821199  0.2219402044929524  1.0000
  H   H26       1.0  0.643135627373461  0.6569499643061433  0.7780702570341873  1.0000
  H   H27       1.0  0.5110617165497402  0.5342445803406477  0.3044309050185561  1.0000
  H   H28       1.0  0.48890908774778563  0.46574627112264005  0.695576411243664  1.0000
  H   H29       1.0  0.7421009090220282  0.39148255555775074  0.005422996610697297  1.0000
  H   H30       1.0  0.2578424776095359  0.6085213670892099  0.9945763327271918  1.0000
  H   H31       1.0  0.34655543333616384  0.5402507646273165  0.1590946010401879  1.0000
  H   H32       1.0  0.6533798223330579  0.4597482749925348  0.8409080945869647  1.0000
  C   C1        1.0  0.7268757579032509  0.9007687128471388  0.374430148012344  1.0000
  C   C2        1.0  0.2731407403855428  0.09923053158665601  0.6255735245540066  1.0000
  C   C3        1.0  0.838299096289724  0.8579390764096002  0.2899022630937936  1.0000
  C   C4        1.0  0.16171359681680292  0.1420469079650459  0.7100871223953505  1.0000
  C   C5        1.0  0.8874233419627444  0.028924940381962486  0.1721825427800141  1.0000
  C   C6        1.0  0.11259018166519755  0.9710600046973071  0.8278129805007737  1.0000
  C   C7        1.0  0.9893239421428321  0.1790957801452606  0.1642986140941787  1.0000
  C   C8        1.0  0.010690610474568981  0.8208951173404485  0.8357003564509496  1.0000
  C   C9        1.0  0.9558525395839299  0.2208770551916928  0.06984680171245122  1.0000
  C   C10       1.0  0.04414509106049983  0.7791250518496186  0.9301531056297848  1.0000
  C   C11       1.0  0.8165832130113985  0.11422983239640416  0.9822479924899881  1.0000
  C   C12       1.0  0.18341985269137936  0.8857571534621298  0.017748827296990913  1.0000
  C   C13       1.0  0.7058011539441296  0.9694712256100714  0.9931870348843503  1.0000
  C   C14       1.0  0.29419441687346654  0.030532045258802  0.006816086008953408  1.0000
  C   C15       1.0  0.7418477381678557  0.9264733253436788  0.0881108499424883  1.0000
  C   C16       1.0  0.25815060488005764  0.07352415697576478  0.9118914303412353  1.0000
  C   C17       1.0  0.6818877341430112  0.047508370371424705  0.7945954349800814  1.0000
  C   C18       1.0  0.3181371604574536  0.9525191685835704  0.2054026887865348  1.0000
  C   C19       1.0  0.6923580570451263  0.10655339543248486  0.6944888033491381  1.0000
  C   C20       1.0  0.30766127163962403  0.8934564389015803  0.3055121781104048  1.0000
  C   C21       1.0  0.5486422952200556  0.339646115215551  0.34547458759431043  1.0000
  C   C22       1.0  0.4513617569511865  0.6603596987577874  0.6545247811377592  1.0000
  C   C23       1.0  0.4993439617765035  0.41240715847566634  0.2606945183306735  1.0000
  C   C24       1.0  0.5006375734538794  0.5875920226237382  0.7393007831778675  1.0000
  C   C25       1.0  0.5518061102518531  0.4601155345295566  0.09294809699810709  1.0000
  C   C26       1.0  0.44813966731860694  0.5398978703224487  0.907053023968345  1.0000
  C   C27       1.0  0.6375322752773158  0.44079930462417843  0.003228578457203889  1.0000
  C   C28       1.0  0.36241006889598987  0.5592116791333338  0.9967742670106645  1.0000
  C   C29       1.0  0.413999291124327  0.5204609579526434  0.0899081290650585  1.0000
  C   C30       1.0  0.5859349529867542  0.479532211945937  0.9100958363259011  1.0000
  O   O1        1.0  0.7724779849881147  0.047121511368907  0.42711446987220825  1.0000
  O   O2        1.0  0.22752563828966282  0.9528701676113582  0.5728816320295635  1.0000
  O   O3        1.0  0.5977898822946344  0.7870663919714147  0.3873420795270661  1.0000
  O   O4        1.0  0.40221488228008445  0.212934797280063  0.6126596621464842  1.0000
  O   O5        1.0  0.9492922832621317  0.9927799339553969  0.2636253575343872  1.0000
  O   O6        1.0  0.05072652165295471  0.007212290205984599  0.7363748816155463  1.0000
  O   O7        1.0  0.7997259187489478  0.1642586510750732  0.889883787225415  1.0000
  O   O8        1.0  0.2002647502249885  0.8357351385976556  0.11012209364033504  1.0000
  O   O9        1.0  0.7870824846927249  0.24584243065327632  0.6959930461371399  1.0000
  O   O10       1.0  0.21296348058655212  0.7541717088995981  0.3040055754437958  1.0000
  O   O11       1.0  0.5909172344926078  0.005130641943736702  0.6038044806578142  1.0000
  O   O12       1.0  0.4091230711133207  0.9948915030623624  0.3961928434634743  1.0000
  O   O13       1.0  0.4470099269614707  0.3261720510484735  0.4177851422647763  1.0000
  O   O14       1.0  0.5529999455220392  0.6738164671897663  0.5822201870963397  1.0000
  O   O15       1.0  0.6809608131346749  0.2956427473056564  0.3481063244985805  1.0000
  O   O16       1.0  0.31902955093544694  0.7043566231946912  0.6518840528054  1.0000
  O   O17       1.0  0.6091456206630711  0.41473259690194897  0.18009182986381936  1.0000
  O   O18       1.0  0.3908146308943756  0.5852729229934753  0.8199017335009345  1.0000
  O   O19       1.0  0.9813738421627818  0.333311408379707  0.5141409537264536  1.0000
  O   O20       1.0  0.018638773498871223  0.6666711835004903  0.48585567331151946  1.0000
  O   O21       1.0  0.7594614955341613  0.5021270518999896  0.5868795199507771  1.0000
  O   O22       1.0  0.24055808576048307  0.49787695355094275  0.4131228139861278  1.0000
