data_image0
_chemical_formula_structural       K4H32C16S4N4O12
_chemical_formula_sum              "K4 H32 C16 S4 N4 O12"
_cell_length_a       6.106703954078514
_cell_length_b       6.7323835307123145
_cell_length_c       19.985226809275467
_cell_angle_alpha    90.00009987288334
_cell_angle_beta     90.00053131055951
_cell_angle_gamma    107.95673206041909

_space_group_name_H-M_alt    "P 1"
_space_group_IT_number       1

loop_
  _space_group_symop_operation_xyz
  'x, y, z'

loop_
  _atom_site_type_symbol
  _atom_site_label
  _atom_site_symmetry_multiplicity
  _atom_site_fract_x
  _atom_site_fract_y
  _atom_site_fract_z
  _atom_site_occupancy
  K   K1        1.0  0.6248201358796307  0.07972361297186135  0.269256293101705  1.0000
  K   K2        1.0  0.8751859986121104  0.420283973866063  0.7692570759520121  1.0000
  K   K3        1.0  0.3751880981340037  0.9202801347443953  0.7307430681391762  1.0000
  K   K4        1.0  0.12482006478993675  0.5797182158288764  0.2307437863941572  1.0000
  H   H1        1.0  0.06341058588523654  0.41165714704770556  0.3895164296529713  1.0000
  H   H2        1.0  0.4365945815197633  0.08835143951902322  0.889517692200705  1.0000
  H   H3        1.0  0.936592705305948  0.5883512984223032  0.6104834319519128  1.0000
  H   H4        1.0  0.5634000607279576  0.9116460861878084  0.11047966754076548  1.0000
  H   H5        1.0  0.2999244467806506  0.3275912291719934  0.3612228392950242  1.0000
  H   H6        1.0  0.200072633020838  0.17241538058232922  0.8612249845372442  1.0000
  H   H7        1.0  0.7000815829492028  0.672415648128805  0.6387770223132634  1.0000
  H   H8        1.0  0.7999121908907157  0.8275821654051185  0.13877337592958125  1.0000
  H   H9        1.0  0.1978156036604446  0.2741631335841532  0.444525211798222  1.0000
  H   H10       1.0  0.3021773971490163  0.22583850349226964  0.9445261753399375  1.0000
  H   H11       1.0  0.8021849826553407  0.7258421924454269  0.5554751501715387  1.0000
  H   H12       1.0  0.6978085288910519  0.774157477697223  0.05547118438877869  1.0000
  H   H13       1.0  0.17182240416462946  0.7434495133916883  0.4686921633250734  1.0000
  H   H14       1.0  0.3281833138870383  0.7565540294854857  0.9686927178285171  1.0000
  H   H15       1.0  0.8281831586992681  0.2565464273010321  0.5313117012361842  1.0000
  H   H16       1.0  0.6718194766768802  0.24344816694438262  0.03130514229542308  1.0000
  H   H17       1.0  0.4487770870580761  0.8006862974301896  0.5065490339248626  1.0000
  H   H18       1.0  0.05123067057012777  0.699316451336756  0.006548613639338897  1.0000
  H   H19       1.0  0.5512333513017111  0.1993143207280853  0.4934533295358321  1.0000
  H   H20       1.0  0.9487753927873612  0.3006857383392188  0.9934497468588145  1.0000
  H   H21       1.0  0.23511361252474935  0.5548940328087114  0.5222587649988524  1.0000
  H   H22       1.0  0.2648941367804555  0.9451120803171378  0.022258591034031393  1.0000
  H   H23       1.0  0.7648995307015197  0.445109704786198  0.47774259772735644  1.0000
  H   H24       1.0  0.735105948872416  0.05488699665712461  0.9777377679763715  1.0000
  H   H25       1.0  0.13657666573838873  0.0081624271307419  0.2842931908574399  1.0000
  H   H26       1.0  0.3634248209663937  0.4918351890506686  0.7842939823394486  1.0000
  H   H27       1.0  0.863427227007513  0.991838204523923  0.7157066707460018  1.0000
  H   H28       1.0  0.6365829124556158  0.5081623096406177  0.21570537889889604  1.0000
  H   H29       1.0  0.07591856123801939  0.9073669579638378  0.3552873083710323  1.0000
  H   H30       1.0  0.4240869580314737  0.5926317327502275  0.8552855359037606  1.0000
  H   H31       1.0  0.9240897064567122  0.09263210215036112  0.6447135539773328  1.0000
  H   H32       1.0  0.5759152982953637  0.4073689022718908  0.14471282458856644  1.0000
  C   C1        1.0  0.5871038112331491  0.6801987193777492  0.39723895086715527  1.0000
  C   C2        1.0  0.9128991689389708  0.8198030123854849  0.897237779962033  1.0000
  C   C3        1.0  0.41290278642379974  0.3198050317325213  0.6027624118498238  1.0000
  C   C4        1.0  0.08708725772836348  0.1801992178441552  0.10276158124762697  1.0000
  C   C5        1.0  0.6424273120330426  0.5839955961734874  0.3329435083476397  1.0000
  C   C6        1.0  0.8575832300445755  0.9160004530319201  0.8329462404882971  1.0000
  C   C7        1.0  0.3575760128125083  0.41600816168308097  0.6670563532559157  1.0000
  C   C8        1.0  0.1423960495789203  0.08400960456256  0.167057624039991  1.0000
  C   C9        1.0  0.3066354703307255  0.6765847107491396  0.48478672230688585  1.0000
  C   C10       1.0  0.19337082097739255  0.823419076106873  0.984785934655569  1.0000
  C   C11       1.0  0.6933760365210375  0.3234190302322021  0.5152156411562243  1.0000
  C   C12       1.0  0.8066259918908187  0.1765800076250628  0.015210424350207996  1.0000
  C   C13       1.0  0.22814594595220686  0.3890512739383355  0.4036836200841305  1.0000
  C   C14       1.0  0.2718532141493029  0.11095285329373893  0.9036839305175018  1.0000
  C   C15       1.0  0.7718552082639292  0.610950925889334  0.5963167418855091  1.0000
  C   C16       1.0  0.7281376210588488  0.8890431177554419  0.09631292884854047  1.0000
  S   S1        1.0  0.7842290359241557  0.9014064701523669  0.42336459138982707  1.0000
  S   S2        1.0  0.7157754427187086  0.5985925314611649  0.9233627348419658  1.0000
  S   S3        1.0  0.21577756174170298  0.0985972809616982  0.5766372716967609  1.0000
  S   S4        1.0  0.2842225059680388  0.4014002998745455  0.07663462490280178  1.0000
  N   N1        1.0  0.3877427776167082  0.5860065785712295  0.42724630745460246  1.0000
  N   N2        1.0  0.11226203203597149  0.9139932097887353  0.927245844190331  1.0000
  N   N3        1.0  0.6122638873935317  0.41398779733111735  0.5727575571077493  1.0000
  N   N4        1.0  0.8877309738372432  0.0860043193045144  0.072752516288034  1.0000
  O   O1        1.0  0.7560607727277784  0.4571691820675384  0.336802482022307  1.0000
  O   O2        1.0  0.7439305035545445  0.0428129016377738  0.8368016731022576  1.0000
  O   O3        1.0  0.2439306978142285  0.5428142876059499  0.6632013825154104  1.0000
  O   O4        1.0  0.2560238977661839  0.9571675195053969  0.16319668731662765  1.0000
  O   O5        1.0  0.5713330102444304  0.6486082142044154  0.27942039159956517  1.0000
  O   O6        1.0  0.9286968983620768  0.8513869796363239  0.7794172822258786  1.0000
  O   O7        1.0  0.4286834730841491  0.35138614140972646  0.7205814714982279  1.0000
  O   O8        1.0  0.0713069607472789  0.14861833963936283  0.22058358011809528  1.0000
  O   O9        1.0  0.18776708967064346  0.9228436899135418  0.31828163602015275  1.0000
  O   O10       1.0  0.3122338387200116  0.5771544465752712  0.8182815402999777  1.0000
  O   O11       1.0  0.8122395416228514  0.07715537357569961  0.6817187259563012  1.0000
  O   O12       1.0  0.6877700876267882  0.4228414974431942  0.18171531908453176  1.0000
