data_image0
_chemical_formula_structural       Zn4H64C44N16Cl8
_chemical_formula_sum              "Zn4 H64 C44 N16 Cl8"
_cell_length_a       8.723753868001314
_cell_length_b       9.231649353280751
_cell_length_c       17.650607732988636
_cell_angle_alpha    99.18557394481871
_cell_angle_beta     89.99999462533343
_cell_angle_gamma    90.00006280952594

_space_group_name_H-M_alt    "P 1"
_space_group_IT_number       1

loop_
  _space_group_symop_operation_xyz
  'x, y, z'

loop_
  _atom_site_type_symbol
  _atom_site_label
  _atom_site_symmetry_multiplicity
  _atom_site_fract_x
  _atom_site_fract_y
  _atom_site_fract_z
  _atom_site_occupancy
  Zn  Zn1       1.0  0.6796924953409088  0.14706632276153894  0.8565154301259168  1.0000
  Zn  Zn2       1.0  0.17969228372759014  0.35293350526480083  0.6434845605231061  1.0000
  Zn  Zn3       1.0  0.3203086934818132  0.8529330058382598  0.14348427680037895  1.0000
  Zn  Zn4       1.0  0.8203077587995582  0.6470658232439276  0.35651571294834367  1.0000
  H   H1        1.0  0.0020488225845057  0.6792339239633094  0.022208795126339005  1.0000
  H   H2        1.0  0.5020480666713356  0.8207645719540864  0.4777911815412637  1.0000
  H   H3        1.0  0.9979523662381667  0.3207654045460231  0.9777914783451249  1.0000
  H   H4        1.0  0.4979519758552371  0.17923365934380794  0.5222084337231649  1.0000
  H   H5        1.0  0.23490039150737374  0.7879218967784426  0.9579987891831789  1.0000
  H   H6        1.0  0.7348995921374171  0.7120795618581822  0.5420009894646967  1.0000
  H   H7        1.0  0.765100797315924  0.21207852903219052  0.04200157595013819  1.0000
  H   H8        1.0  0.26510045039047014  0.28792086413278634  0.4579982425782417  1.0000
  H   H9        1.0  0.2692732690869023  0.8785221737128313  0.8801019356604697  1.0000
  H   H10       1.0  0.7692746422348906  0.6214771263049883  0.6198976610765569  1.0000
  H   H11       1.0  0.7307256271447785  0.12147715488576691  0.11989777126577648  1.0000
  H   H12       1.0  0.2307254002923146  0.3785222022942137  0.3801020458497177  1.0000
  H   H13       1.0  0.8766228762699982  0.5909706897718862  0.9498211767357245  1.0000
  H   H14       1.0  0.37662389386328954  0.9090309173159099  0.5501780411920976  1.0000
  H   H15       1.0  0.12337716625714991  0.40902863873684225  0.05017909673572519  1.0000
  H   H16       1.0  0.6233772949614292  0.09097170336873009  0.44982080762938637  1.0000
  H   H17       1.0  0.8003290401975607  0.7075469709965176  0.031063737097646506  1.0000
  H   H18       1.0  0.30032984275425184  0.7924529344725217  0.4689363434917482  1.0000
  H   H19       1.0  0.19967100232958762  0.2924523575122108  0.9689365363738033  1.0000
  H   H20       1.0  0.6996701997735784  0.2075474914279809  0.5310634550963654  1.0000
  H   H21       1.0  0.0698460236459297  0.03120199323814891  0.7710326572369296  1.0000
  H   H22       1.0  0.5698466333148744  0.46879662249642723  0.7289672372353522  1.0000
  H   H23       1.0  0.9301540188805862  0.9687962379692793  0.2289675245726741  1.0000
  H   H24       1.0  0.43015340921352424  0.5312049006149094  0.2710332195597828  1.0000
  H   H25       1.0  0.014514426107709297  0.19186418528564533  0.8340998455668823  1.0000
  H   H26       1.0  0.5145148610926285  0.3081354700081462  0.6658990052026539  1.0000
  H   H27       1.0  0.9854844701239147  0.8081351432224864  0.16590042790453904  1.0000
  H   H28       1.0  0.4854840351403666  0.6918660532835262  0.3341003185021093  1.0000
  H   H29       1.0  0.6882259567289638  0.9184122572104627  0.9679626342732773  1.0000
  H   H30       1.0  0.1882265973198542  0.5815880552652786  0.5320370507943721  1.0000
  H   H31       1.0  0.31177179320719267  0.0815870713875313  0.0320370726529475  1.0000
  H   H32       1.0  0.8117722989130841  0.4184134679359204  0.46796283945556627  1.0000
  H   H33       1.0  0.18715908477368262  0.09759566749323058  0.8502884198712691  1.0000
  H   H34       1.0  0.6871584860689951  0.4024041683491788  0.6497115710846371  1.0000
  H   H35       1.0  0.8128409577534654  0.902403661015498  0.14971185360018066  1.0000
  H   H36       1.0  0.31284041016325403  0.5975962574602534  0.3502887940486303  1.0000
  H   H37       1.0  0.3337384422894303  0.5611253995340135  0.9854774909261509  1.0000
  H   H38       1.0  0.8337402042432844  0.9388739679682626  0.5145221084605323  1.0000
  H   H39       1.0  0.6662616002377179  0.438873928974715  0.014522782545299203  1.0000
  H   H40       1.0  0.16626098457949473  0.06112536072200212  0.4854770319205883  1.0000
  H   H41       1.0  0.4322028538932941  0.4121332035814405  0.9291662458312118  1.0000
  H   H42       1.0  0.9322053436099722  0.08786688869198397  0.570834321741728  1.0000
  H   H43       1.0  0.5677971886344295  0.5878672221381223  0.07083468584725948  1.0000
  H   H44       1.0  0.06779699150828121  0.9121324399084115  0.42916538518458935  1.0000
  H   H45       1.0  0.31122163923704704  0.3234396627888501  0.7962517382848799  1.0000
  H   H46       1.0  0.8112219141531939  0.1765603029267737  0.7037482577702647  1.0000
  H   H47       1.0  0.6887784032907263  0.6765607630211861  0.20374862684840875  1.0000
  H   H48       1.0  0.188778128374004  0.8234390256724212  0.29625144915600987  1.0000
  H   H49       1.0  0.4922470662355281  0.5954542435057633  0.9284417890679605  1.0000
  H   H50       1.0  0.9922476311683965  0.9045463871387509  0.5715584750407385  1.0000
  H   H51       1.0  0.5077529762928776  0.40454727960556613  0.07155866772717447  1.0000
  H   H52       1.0  0.0077524113588652  0.09545294155091  0.42844066534036057  1.0000
  H   H53       1.0  0.9972143553365811  0.6218421828637517  0.6778088771561599  1.0000
  H   H54       1.0  0.49721413906646467  0.8781573557694458  0.822190728949671  1.0000
  H   H55       1.0  0.0027856871905669  0.3781571456449769  0.3221913963152899  1.0000
  H   H56       1.0  0.5027859034607332  0.1218419728297562  0.17780897797660333  1.0000
  H   H57       1.0  0.9146329794686991  0.7154414846754378  0.764073617130279  1.0000
  H   H58       1.0  0.4146349634336844  0.7845590648113118  0.7359260772431779  1.0000
  H   H59       1.0  0.08536591676298141  0.2845578439231602  0.23592608979596716  1.0000
  H   H60       1.0  0.5853650790941457  0.21544136108918369  0.26407372134494267  1.0000
  H   H61       1.0  0.07573040469394239  0.7914267206504635  0.7238560097737974  1.0000
  H   H62       1.0  0.5757318493419066  0.7085734740616657  0.7761436706700806  1.0000
  H   H63       1.0  0.9242684915383634  0.20857370524944224  0.2761437888142949  1.0000
  H   H64       1.0  0.4242681931859238  0.2914269518388367  0.2238561279180402  1.0000
  C   C1        1.0  0.19043445461601752  0.8005117011249254  0.901008837786776  1.0000
  C   C2        1.0  0.6904347760817515  0.6994886136625811  0.5989908473716383  1.0000
  C   C3        1.0  0.8095655879111308  0.1994876273838031  0.09899143568467388  1.0000
  C   C4        1.0  0.3095652664461355  0.300511812328388  0.4010083846713001  1.0000
  C   C5        1.0  0.9825224816914332  0.9924382028741048  0.8801257435748153  1.0000
  C   C6        1.0  0.48252416587383357  0.5075613203801482  0.6198738619271821  1.0000
  C   C7        1.0  0.017476414540198  0.007561125634026697  0.11987452989660599  1.0000
  C   C8        1.0  0.5174747303591049  0.4924402028210507  0.38012602832275627  1.0000
  C   C9        1.0  0.03417492609010961  0.8677142936747798  0.9094196061405169  1.0000
  C   C10       1.0  0.534175171072512  0.6322858574446074  0.5905806391404909  1.0000
  C   C11       1.0  0.9658239701415215  0.1322850348333446  0.09058066733090439  1.0000
  C   C12       1.0  0.46582372516042636  0.3677156657565916  0.40941925110944766  1.0000
  C   C13       1.0  0.9097979481485154  0.8200245858846245  0.9488848081252426  1.0000
  C   C14       1.0  0.4097998457250683  0.6799770559323833  0.5511144111661535  1.0000
  C   C15       1.0  0.09019865549274193  0.17997584001407319  0.051114990462806986  1.0000
  C   C16       1.0  0.59019905050787  0.3200244672688228  0.44888547908378473  1.0000
  C   C17       1.0  0.198535244712815  0.6538767047169215  0.8502404924103286  1.0000
  C   C18       1.0  0.6985368731976536  0.8461225212501375  0.6497591014192279  1.0000
  C   C19       1.0  0.8014647978149584  0.34612372109310746  0.14975987272296007  1.0000
  C   C20       1.0  0.30146431562450005  0.15387571013882712  0.35023994730004654  1.0000
  C   C21       1.0  0.8961363202992417  0.6928807277074825  0.9904145999635929  1.0000
  C   C22       1.0  0.39613722719906264  0.8071198023253315  0.5095856601947658  1.0000
  C   C23       1.0  0.1038637222278496  0.3071186007107798  0.00958624005302511  1.0000
  C   C24       1.0  0.6038639616249669  0.19288172096754155  0.49041366351004717  1.0000
  C   C25       1.0  0.06728980913370461  0.0832841063513854  0.8315762449211517  1.0000
  C   C26       1.0  0.5672915160920838  0.41671560409960756  0.6684231745627613  1.0000
  C   C27       1.0  0.9327090870972942  0.9167141248554388  0.1684239368884235  1.0000
  C   C28       1.0  0.43270967273190314  0.583285919102799  0.3315767156872268  1.0000
  C   C29       1.0  0.2871564278044048  0.5357395041510955  0.8653173473724323  1.0000
  C   C30       1.0  0.787158196417167  0.9642609117984406  0.634682908306658  1.0000
  C   C31       1.0  0.7128436147233189  0.4642609215684672  0.134683584306039  1.0000
  C   C32       1.0  0.21284299240623744  0.035739514193132  0.3653163237363087  1.0000
  C   C33       1.0  0.1271508164112802  0.6061767798364457  0.7787897014011803  1.0000
  C   C34       1.0  0.6271524867394689  0.8938245659152103  0.7212106393631996  1.0000
  C   C35       1.0  0.8728492261165002  0.3938236459735833  0.22121066373210843  1.0000
  C   C36       1.0  0.37284870208325327  0.10617476268458859  0.2787890675630962  1.0000
  C   C37       1.0  0.3914349189192308  0.5247187016365231  0.9303768990893386  1.0000
  C   C38       1.0  0.8914367127019674  0.9752818235656449  0.5696227943306269  1.0000
  C   C39       1.0  0.6085639773117609  0.4752795295703082  0.0696232827202365  1.0000
  C   C40       1.0  0.10856332982717731  0.024720797027931996  0.4303766210360038  1.0000
  C   C41       1.0  0.023203643790864703  0.6877375541823767  0.7336329103526608  1.0000
  C   C42       1.0  0.5232040644763316  0.8122625855424772  0.7663667679322329  1.0000
  C   C43       1.0  0.9767963987363403  0.3122617744168181  0.2663667965736067  1.0000
  C   C44       1.0  0.476797124347023  0.1877378403586221  0.23363303065590907  1.0000
  N   N1        1.0  0.835171356959748  0.020261145345898495  0.9010411125766565  1.0000
  N   N2        1.0  0.33517244743745783  0.47973884544150286  0.598958884462881  1.0000
  N   N3        1.0  0.1648275392713003  0.9797370859513916  0.09895850268774348  1.0000
  N   N4        1.0  0.6648275950909481  0.5202626776698338  0.4010415723322538  1.0000
  N   N5        1.0  0.7929904894316309  0.913601484070213  0.941695937379407  1.0000
  N   N6        1.0  0.2929911306199529  0.5863989379860187  0.5583043185394486  1.0000
  N   N7        1.0  0.2070095530955172  0.08639784443851539  0.058304336092042795  1.0000
  N   N8        1.0  0.7070089119085028  0.41360258521578436  0.441695571710511  1.0000
  N   N9        1.0  0.16883577439094924  0.46637200453477584  0.752320271702004  1.0000
  N   N10       1.0  0.6688370211821352  0.0336278121271576  0.7476797185008195  1.0000
  N   N11       1.0  0.8311642681367745  0.5336284211847868  0.24768065997646715  1.0000
  N   N12       1.0  0.33116302134516934  0.966371516652977  0.25231885533510473  1.0000
  N   N13       1.0  0.26556589368776434  0.42620509556029157  0.8054763401659599  1.0000
  N   N14       1.0  0.7655683435471162  0.0737959196638371  0.6945237456745303  1.0000
  N   N15       1.0  0.734434148840009  0.5737953302497375  0.19452402496733606  1.0000
  N   N16       1.0  0.2344316989807638  0.9262045063271316  0.30547548636840816  1.0000
  Cl  Cl1       1.0  0.4647368499639057  0.1301795657983931  0.9255431867021146  1.0000
  Cl  Cl2       1.0  0.9647362277026162  0.3698194633202263  0.574456724000946  1.0000
  Cl  Cl3       1.0  0.53526433885866  0.8698197625300069  0.0744582198597072  1.0000
  Cl  Cl4       1.0  0.0352649611208449  0.6301809627618128  0.4255419414968386  1.0000
  Cl  Cl5       1.0  0.7670816112859457  0.3695558143931947  0.8436446997684823  1.0000
  Cl  Cl6       1.0  0.26708113871996636  0.1304452025065785  0.6563548195890688  1.0000
  Cl  Cl7       1.0  0.23291843124241043  0.6304457086276757  0.15635632357182772  1.0000
  Cl  Cl8       1.0  0.732917757511821  0.8695541262729591  0.34364375424682686  1.0000
