data_image0
_chemical_formula_structural       Zn2H24C56N20O52
_chemical_formula_sum              "Zn2 H24 C56 N20 O52"
_cell_length_a       12.347516125946653
_cell_length_b       13.045574744312786
_cell_length_c       23.287634523624273
_cell_angle_alpha    88.33667581702277
_cell_angle_beta     86.6800125567207
_cell_angle_gamma    84.82760374153146

_space_group_name_H-M_alt    "P 1"
_space_group_IT_number       1

loop_
  _space_group_symop_operation_xyz
  'x, y, z'

loop_
  _atom_site_type_symbol
  _atom_site_label
  _atom_site_symmetry_multiplicity
  _atom_site_fract_x
  _atom_site_fract_y
  _atom_site_fract_z
  _atom_site_occupancy
  Zn  Zn1       1.0  0.6206383222383424  0.5087292061085336  0.4972529386150411  1.0000
  Zn  Zn2       1.0  0.38893533689211074  0.5022575526478832  0.5027931295752737  1.0000
  H   H1        1.0  0.1711972366379868  0.7237329905585312  0.11864908989981868  1.0000
  H   H2        1.0  0.13759036362844057  0.785515560863324  0.05024989903620988  1.0000
  H   H3        1.0  0.18671686687950736  0.8581104175440261  0.1063315386769261  1.0000
  H   H4        1.0  0.31721139272097076  0.1950339267499643  0.9027389442080461  1.0000
  H   H5        1.0  0.3236739213846819  0.14426637466897324  0.9760469036139482  1.0000
  H   H6        1.0  0.4071937883955955  0.08292967969443768  0.9191496187184637  1.0000
  H   H7        1.0  0.6163577412343031  0.2848599579717757  0.363567085944858  1.0000
  H   H8        1.0  0.5690958879887731  0.22238474191870236  0.30250498081688443  1.0000
  H   H9        1.0  0.5198682115540905  0.18909342003524898  0.37391072394142805  1.0000
  H   H10       1.0  0.3505068857994048  0.8090414277904542  0.6362653092028123  1.0000
  H   H11       1.0  0.4891753716553566  0.7561601041116718  0.6448603014780545  1.0000
  H   H12       1.0  0.39782202185287463  0.7848714179385254  0.7070884921821445  1.0000
  H   H13       1.0  0.4169769335674047  0.7151971629309843  0.3672029669317637  1.0000
  H   H14       1.0  0.4305057187925171  0.7864414310045617  0.2999000075593727  1.0000
  H   H15       1.0  0.5214512053063344  0.802522999607277  0.3560054900992211  1.0000
  H   H16       1.0  0.6593008932940095  0.23326323955959075  0.6473841184584612  1.0000
  H   H17       1.0  0.5219015955194237  0.28768268822132376  0.639288767535838  1.0000
  H   H18       1.0  0.5598634219633495  0.22857425053645392  0.7071715229533595  1.0000
  H   H19       1.0  0.2167897938250221  0.099015925466027  0.5847045866794289  1.0000
  H   H20       1.0  0.1581794998020456  0.977891949547363  0.577748723044685  1.0000
  H   H21       1.0  0.10269678133673209  0.09262828512521538  0.5411379358789999  1.0000
  H   H22       1.0  0.6732951657446336  0.935712664179796  0.6347162532477738  1.0000
  H   H23       1.0  0.7519628795193115  0.0466158167251578  0.6304881008558636  1.0000
  H   H24       1.0  0.8172827714627289  0.9194206837068888  0.6181860314205067  1.0000
  C   C1        1.0  0.46781770400185974  0.6995000369099741  0.507314689073354  1.0000
  C   C2        1.0  0.5305207615844978  0.3094819742724013  0.5003794009969766  1.0000
  C   C3        1.0  0.5123336977890177  0.5061413938483595  0.39136951364341843  1.0000
  C   C4        1.0  0.5081116174139311  0.5043785645714323  0.609056804618369  1.0000
  C   C5        1.0  0.3945438357832671  0.4074885506215651  0.8791698344184125  1.0000
  C   C6        1.0  0.3628260245954635  0.5725684769895735  0.1302549202071646  1.0000
  C   C7        1.0  0.3949216475513353  0.5999966736642078  0.8816909982917877  1.0000
  C   C8        1.0  0.4709026800930476  0.4005200115579298  0.12158403004373496  1.0000
  C   C9        1.0  0.3737796385107686  0.5915980121183751  0.9446399588773599  1.0000
  C   C10       1.0  0.4398652232875548  0.3993226705618866  0.061339762327250476  1.0000
  C   C11       1.0  0.3908328191923331  0.4944863837191775  0.973342334109233  1.0000
  C   C12       1.0  0.39625505428929836  0.49150449103996147  0.034199071042202385  1.0000
  C   C13       1.0  0.4061541704749629  0.40224791698616974  0.941838601364985  1.0000
  C   C14       1.0  0.3625824811568278  0.5801506134271647  0.0668441580993502  1.0000
  C   C15       1.0  0.3475323548853594  0.6783101242357219  0.9773871531183785  1.0000
  C   C16       1.0  0.4610085462056972  0.3116251505684247  0.028965999859941898  1.0000
  C   C17       1.0  0.3335181556014106  0.6742465360728644  0.0383639103473641  1.0000
  C   C18       1.0  0.43778093694617576  0.30855589230863967  0.9700168886318463  1.0000
  C   C19       1.0  0.43538429834426035  0.40784420036709423  0.24976306184052524  1.0000
  C   C20       1.0  0.37580878517081834  0.5767230995561191  0.7547672708809542  1.0000
  C   C21       1.0  0.466751871344229  0.40823914507419795  0.30697185289822215  1.0000
  C   C22       1.0  0.4108143567755036  0.5851140001016616  0.6961053394035372  1.0000
  C   C23       1.0  0.5015550497499816  0.4987624705910179  0.3276047279766842  1.0000
  C   C24       1.0  0.48968189410027196  0.510582415811065  0.6734820776408268  1.0000
  C   C25       1.0  0.5153532703757833  0.5847572847496493  0.2915154655083114  1.0000
  C   C26       1.0  0.5436351938668623  0.4378016879193609  0.7096249237493166  1.0000
  C   C27       1.0  0.4977169083437616  0.5769165046972162  0.23259845502235518  1.0000
  C   C28       1.0  0.5202224677779556  0.44296954767806085  0.7694373924317047  1.0000
  C   C29       1.0  0.45346572534058543  0.4907148563692089  0.21178329106736263  1.0000
  C   C30       1.0  0.4330613079076642  0.5085528375780369  0.7922770803231598  1.0000
  C   C31       1.0  0.5340326056244251  0.1940895840981938  0.5078994860298777  1.0000
  C   C32       1.0  0.45891297262164693  0.8144062521824792  0.5139204517429192  1.0000
  C   C33       1.0  0.34568469383224  0.9795331650941179  0.5112420529938149  1.0000
  C   C34       1.0  0.6357686684101083  0.030638506106406296  0.5353781019151497  1.0000
  C   C35       1.0  0.35779799367621473  0.8731265607609376  0.5098993198972223  1.0000
  C   C36       1.0  0.6310442708072301  0.13513119245607186  0.5224103094810173  1.0000
  C   C37       1.0  0.5483802458491452  0.8671516771628802  0.5241267275104419  1.0000
  C   C38       1.0  0.4409819508847477  0.14208426344806918  0.5054004363402597  1.0000
  C   C39       1.0  0.5426779748406573  0.9760946961681258  0.5261917077340711  1.0000
  C   C40       1.0  0.44097651316567993  0.03392768404163599  0.5147039018735952  1.0000
  C   C41       1.0  0.0499782425415773  0.43025278702221936  0.5623127494625421  1.0000
  C   C42       1.0  0.9636235311559176  0.530815050386991  0.41953375722618347  1.0000
  C   C43       1.0  0.1585090672883922  0.4473762074048723  0.5570946067656947  1.0000
  C   C44       1.0  0.8521262919244279  0.5395184579875547  0.43086359942356706  1.0000
  C   C45       1.0  0.14978616228597735  0.49397977184597847  0.46206229216560485  1.0000
  C   C46       1.0  0.8667668559228545  0.4840385267110251  0.5239296715696753  1.0000
  C   C47       1.0  0.03372932669497431  0.49666259855221995  0.4639210971009857  1.0000
  C   C48       1.0  0.9822015401416806  0.46659276705298686  0.51778013458852  1.0000
  C   C49       1.0  0.19132588689724636  0.7828479267785721  0.0863783583200401  1.0000
  C   C50       1.0  0.3693136195514271  0.1566275097140633  0.9348922979629463  1.0000
  C   C51       1.0  0.5471877487066337  0.2514105765425683  0.3457630958827878  1.0000
  C   C52       1.0  0.40447540000822363  0.7585886174478275  0.6626245175565868  1.0000
  C   C53       1.0  0.4740720482956178  0.7482868111677519  0.33544555292455397  1.0000
  C   C54       1.0  0.5875478490340955  0.2732150701852163  0.6693001473644173  1.0000
  C   C55       1.0  0.17685252772161422  0.05052622003615429  0.5560897260397296  1.0000
  C   C56       1.0  0.7430865637773042  0.970626680337041  0.6132301744363389  1.0000
  N   N1        1.0  0.4063255182294867  0.5061225328381624  0.8525231732885101  1.0000
  N   N2        1.0  0.42897808243101565  0.48761596990299694  0.15283470101721258  1.0000
  N   N3        1.0  0.8029995284993845  0.5179295240885794  0.48270943733022864  1.0000
  N   N4        1.0  0.2093306558769896  0.4785182082063386  0.5075854398270889  1.0000
  N   N5        1.0  0.32911083785572964  0.7829906650517344  0.9511544544679535  1.0000
  N   N6        1.0  0.5081456364503154  0.2126367322121467  0.053637800329774186  1.0000
  N   N7        1.0  0.8157506042958288  0.47597905576194677  0.5830331933153019  1.0000
  N   N8        1.0  0.210328601720164  0.5093353824635686  0.4060746120778589  1.0000
  N   N9        1.0  0.7820741421776133  0.5855993039604569  0.3848703609070583  1.0000
  N   N10       1.0  0.2179886050687898  0.43878259963081945  0.6112340151364604  1.0000
  N   N11       1.0  0.011991142676251306  0.3701744658196874  0.6139147652831412  1.0000
  N   N12       1.0  0.004526544914057204  0.5604521606970466  0.3604497532100267  1.0000
  N   N13       1.0  0.37476394898116894  0.3227194643076813  0.23214315834215427  1.0000
  N   N14       1.0  0.2708973437129386  0.630895490212069  0.7744747238147622  1.0000
  N   N15       1.0  0.5304257327602214  0.6595657544756292  0.19256401298807188  1.0000
  N   N16       1.0  0.5919194323156701  0.38010956195486767  0.8077883935065058  1.0000
  N   N17       1.0  0.3379902715920693  0.19892170606235746  0.4868837813493201  1.0000
  N   N18       1.0  0.6553259911965981  0.8068799227316532  0.5310434278824444  1.0000
  N   N19       1.0  0.7376305471634055  0.18002647950967807  0.5187199780420783  1.0000
  N   N20       1.0  0.257855351858609  0.8223688748252656  0.49966382144380345  1.0000
  O   O1        1.0  0.5595475980148025  0.6588122472906122  0.48880816665163707  1.0000
  O   O2        1.0  0.44254427110607963  0.3541920371241717  0.48326276734032086  1.0000
  O   O3        1.0  0.3823343833277804  0.6547384361810912  0.5205649208158505  1.0000
  O   O4        1.0  0.6139399038990732  0.3521003767616691  0.513493240989959  1.0000
  O   O5        1.0  0.6035934975046828  0.48089305149897404  0.41262394924008555  1.0000
  O   O6        1.0  0.43131636019473535  0.4681360090088802  0.5840909220727608  1.0000
  O   O7        1.0  0.42497129027532304  0.5378200553615856  0.4193021168355741  1.0000
  O   O8        1.0  0.5947790833099873  0.5331309166713041  0.5845502370236558  1.0000
  O   O9        1.0  0.3813282225281114  0.3341551413671979  0.8495546036931642  1.0000
  O   O10       1.0  0.3143999121312007  0.6351287678564858  0.16294421628505518  1.0000
  O   O11       1.0  0.404231161642791  0.6823816300344633  0.8559733158151559  1.0000
  O   O12       1.0  0.5297096096977967  0.33135807649723154  0.143555329955106  1.0000
  O   O13       1.0  0.23524818503270944  0.8091192871777578  0.9375964374516882  1.0000
  O   O14       1.0  0.4068807085542686  0.8358222417174802  0.948199418043117  1.0000
  O   O15       1.0  0.4421454110805314  0.1560222065741854  0.07622041735439207  1.0000
  O   O16       1.0  0.6072433847817535  0.19411428175152423  0.04657211212096969  1.0000
  O   O17       1.0  0.8160020629947979  0.5545831899091952  0.6109175758156836  1.0000
  O   O18       1.0  0.783573026120841  0.3924963540774797  0.5979378710676713  1.0000
  O   O19       1.0  0.21213266344000908  0.5988730206383651  0.388232423982025  1.0000
  O   O20       1.0  0.2503841193468901  0.4297041221856261  0.3836594783578561  1.0000
  O   O21       1.0  0.7267734644158921  0.6650297920172789  0.39810165160169925  1.0000
  O   O22       1.0  0.7911276923688036  0.5414537347291883  0.33863311424502734  1.0000
  O   O23       1.0  0.22357985653575693  0.5227611571907999  0.63289445236731  1.0000
  O   O24       1.0  0.24823570700707617  0.35265065478405694  0.629799034084648  1.0000
  O   O25       1.0  0.0018470570473140947  0.2794346202657181  0.6040361424389289  1.0000
  O   O26       1.0  0.9985511238996593  0.4141700493575798  0.6600618526622098  1.0000
  O   O27       1.0  0.0462558787515235  0.48878170040607927  0.3311698501949181  1.0000
  O   O28       1.0  0.9909403729933788  0.6523206224567986  0.34705727064370956  1.0000
  O   O29       1.0  0.3040223268428265  0.764116273810451  0.06456335761462378  1.0000
  O   O30       1.0  0.45988535417433235  0.21749979180027174  0.9440255461581584  1.0000
  O   O31       1.0  0.2913782232524937  0.34769283478684093  0.20588438944671583  1.0000
  O   O32       1.0  0.4087421749638195  0.2341593281104863  0.24577279839280652  1.0000
  O   O33       1.0  0.20952296361954129  0.579309145079776  0.8051646338080188  1.0000
  O   O34       1.0  0.2492126240748505  0.7206374729215382  0.7578727017926423  1.0000
  O   O35       1.0  0.45410475214482926  0.32772188926347917  0.3444557307732906  1.0000
  O   O36       1.0  0.365442783341159  0.6573264674473692  0.659452124626746  1.0000
  O   O37       1.0  0.5545540295373002  0.6685655529584763  0.31344796269361547  1.0000
  O   O38       1.0  0.6232408573735241  0.36973163601727066  0.6869146332050773  1.0000
  O   O39       1.0  0.5840259869157619  0.6321295328109218  0.1480175270315129  1.0000
  O   O40       1.0  0.5041315348538831  0.7493545990565096  0.206177142518392  1.0000
  O   O41       1.0  0.6259151927680832  0.42525000958662673  0.8484248657845369  1.0000
  O   O42       1.0  0.6143961067306023  0.28858265803623345  0.7966462121744086  1.0000
  O   O43       1.0  0.27577339843238485  0.24006195277944897  0.5247271188557788  1.0000
  O   O44       1.0  0.32356069700622203  0.1981547966951567  0.4352157208857789  1.0000
  O   O45       1.0  0.6680124608943601  0.7642523771107219  0.5786750142937152  1.0000
  O   O46       1.0  0.7211216158895225  0.8040324074678222  0.48941822001066254  1.0000
  O   O47       1.0  0.7843216665217482  0.18728221169474324  0.5636047161182629  1.0000
  O   O48       1.0  0.7739920758816724  0.20035089989013946  0.4696248243229419  1.0000
  O   O49       1.0  0.24653450696765594  0.7981400060134121  0.44979598602312604  1.0000
  O   O50       1.0  0.19344224382778916  0.8114580345403154  0.5414996974517193  1.0000
  O   O51       1.0  0.24592532416377105  0.02974745637093429  0.5040150848532292  1.0000
  O   O52       1.0  0.7304317389485817  0.9796100355585009  0.5513770650366678  1.0000
