data_image0
_chemical_formula_structural       Zn2H18C18N6Cl2O8
_chemical_formula_sum              "Zn2 H18 C18 N6 Cl2 O8"
_cell_length_a       9.645997820008905
_cell_length_b       10.588976132979363
_cell_length_c       10.63283604702289
_cell_angle_alpha    92.73378812852663
_cell_angle_beta     90.29455588937562
_cell_angle_gamma    90.47489093140452

_space_group_name_H-M_alt    "P 1"
_space_group_IT_number       1

loop_
  _space_group_symop_operation_xyz
  'x, y, z'

loop_
  _atom_site_type_symbol
  _atom_site_label
  _atom_site_symmetry_multiplicity
  _atom_site_fract_x
  _atom_site_fract_y
  _atom_site_fract_z
  _atom_site_occupancy
  Zn  Zn1       1.0  0.6507060361829886  0.4821168094524567  0.4820114970561491  1.0000
  Zn  Zn2       1.0  0.35006418416604385  0.4852939348531535  0.48305513614833717  1.0000
  H   H1        1.0  0.2870161736192216  0.5747290177818839  0.09966379781775457  1.0000
  H   H2        1.0  0.7158524677532441  0.5642073995453388  0.1123059052035202  1.0000
  H   H3        1.0  0.296592369322596  0.5941336834834986  0.8633908309771243  1.0000
  H   H4        1.0  0.1311582599420902  0.3246699037057113  0.599814890807977  1.0000
  H   H5        1.0  0.11058848859584457  0.4741179693634123  0.6783172132380102  1.0000
  H   H6        1.0  0.8677736191850298  0.431595078370073  0.6711175766529465  1.0000
  H   H7        1.0  0.8885386201032048  0.3026483189381892  0.5606241071188833  1.0000
  H   H8        1.0  0.8886664548389475  0.6445465453605267  0.593459363059921  1.0000
  H   H9        1.0  0.869989708299002  0.668898678769608  0.4318759929427926  1.0000
  H   H10       1.0  0.13160780926600776  0.6649803319730694  0.5626084355132619  1.0000
  H   H11       1.0  0.11311260447257607  0.6528301866520962  0.397294329579239  1.0000
  H   H12       1.0  0.11103534764108497  0.31060739011636684  0.37343727292726914  1.0000
  H   H13       1.0  0.13227770815758794  0.44703562284899323  0.28560407730688553  1.0000
  H   H14       1.0  0.8897347789856267  0.48723439818904524  0.285317259740971  1.0000
  H   H15       1.0  0.8679690597507062  0.3325339911944028  0.3385328493556727  1.0000
  H   H16       1.0  0.2810157788604429  0.1044166101593476  0.5409756275413429  1.0000
  H   H17       1.0  0.706792850386563  0.12009779074637093  0.5798405430618558  1.0000
  H   H18       1.0  0.28420214080104245  0.8705949881386202  0.5824571652108191  1.0000
  C   C1        1.0  0.503001312608042  0.4992024013085797  0.725824395100652  1.0000
  C   C2        1.0  0.49664342686014606  0.5032680860557547  0.24072262201451622  1.0000
  C   C3        1.0  0.5000182707640092  0.24030122312581878  0.4832213145360171  1.0000
  C   C4        1.0  0.503085813123981  0.7287003249213556  0.516718671685794  1.0000
  C   C5        1.0  0.631399678708881  0.5565129932035405  0.9262041184786014  1.0000
  C   C6        1.0  0.3794482218797057  0.556288975359415  0.0443718547949175  1.0000
  C   C7        1.0  0.6261147316214134  0.5474167050251283  0.051832964082599596  1.0000
  C   C8        1.0  0.384746453138689  0.5671531563037462  0.9195261175424106  1.0000
  C   C9        1.0  0.07918096390528719  0.4160885363153924  0.5946472493897019  1.0000
  C   C10       1.0  0.9200738175978457  0.4008823790714829  0.5837770067736372  1.0000
  C   C11       1.0  0.9213288575947656  0.6097371396427747  0.4996599050754043  1.0000
  C   C12       1.0  0.08004411603169359  0.6110857390028103  0.48490513876413394  1.0000
  C   C13       1.0  0.07965686192627429  0.40950731306276805  0.3671635669053472  1.0000
  C   C14       1.0  0.9205222161099442  0.4235778513205021  0.3587308498490103  1.0000
  C   C15       1.0  0.6222740596198193  0.9329265074619357  0.5792665067196906  1.0000
  C   C16       1.0  0.3742702625185359  0.0478887552978406  0.5381370592890776  1.0000
  C   C17       1.0  0.6206555648530809  0.05670995967317081  0.5561224359321669  1.0000
  C   C18       1.0  0.37629699828261914  0.9245490129541027  0.5605853996561834  1.0000
  N   N1        1.0  0.5093906294570516  0.5436371272440469  0.851882159606589  1.0000
  N   N2        1.0  0.49961004183874985  0.5268308389104562  0.1122744591461071  1.0000
  N   N3        1.0  0.8668390608329516  0.4781669285306124  0.48047460287199323  1.0000
  N   N4        1.0  0.13355445857916237  0.47941794000086463  0.48256141257949287  1.0000
  N   N5        1.0  0.5027567358464466  0.856666383743374  0.5567600733193244  1.0000
  N   N6        1.0  0.49853306107986844  0.11322666890647783  0.5147062858789937  1.0000
  Cl  Cl1       1.0  0.7845504635852193  0.6089208681441677  0.8614565006818253  1.0000
  Cl  Cl2       1.0  0.7592859611372588  0.8751707667811246  0.6643919062445107  1.0000
  O   O1        1.0  0.619346150696998  0.2891913369194087  0.4680621881879432  1.0000
  O   O2        1.0  0.38222770038248643  0.29334132259321427  0.4742047189243123  1.0000
  O   O3        1.0  0.6201554172836125  0.6755895301242346  0.5029211689736144  1.0000
  O   O4        1.0  0.38346782413553626  0.6782880566833073  0.4993522240359098  1.0000
  O   O5        1.0  0.6168416924638436  0.4705871903441975  0.6721095068889724  1.0000
  O   O6        1.0  0.3773872490450997  0.4963230291338975  0.290933897896501  1.0000
  O   O7        1.0  0.3818315666978762  0.4928621906881291  0.6768566360404336  1.0000
  O   O8        1.0  0.6146091875036817  0.4918225547427043  0.293238330787986  1.0000
