data_image0
_chemical_formula_structural       Zn2H24C44N4O16
_chemical_formula_sum              "Zn2 H24 C44 N4 O16"
_cell_length_a       5.758920384050308
_cell_length_b       12.236939564658327
_cell_length_c       13.761717149007294
_cell_angle_alpha    116.08565817143447
_cell_angle_beta     89.99953355280635
_cell_angle_gamma    90.00032173519367

_space_group_name_H-M_alt    "P 1"
_space_group_IT_number       1

loop_
  _space_group_symop_operation_xyz
  'x, y, z'

loop_
  _atom_site_type_symbol
  _atom_site_label
  _atom_site_symmetry_multiplicity
  _atom_site_fract_x
  _atom_site_fract_y
  _atom_site_fract_z
  _atom_site_occupancy
  Zn  Zn1       1.0  1.1853806185999968e-06  0.9999899015447582  2.067215362559243e-06  1.0000
  Zn  Zn2       1.0  0.5000104682414063  0.500003298380399  0.49999736277809625  1.0000
  H   H1        1.0  0.6677169108902136  0.17542452081515586  0.1419582557374142  1.0000
  H   H2        1.0  0.1677053831055488  0.32458535817540485  0.3580367968471308  1.0000
  H   H3        1.0  0.3322953432969058  0.8245764932950621  0.8580444174052106  1.0000
  H   H4        1.0  0.832301661912581  0.6754267152639031  0.6419586591580925  1.0000
  H   H5        1.0  0.9893342595533173  0.09448483972835223  0.46974624257622116  1.0000
  H   H6        1.0  0.4893370729011152  0.40551344521594496  0.030248899519314424  1.0000
  H   H7        1.0  0.0106432659696267  0.9055316769229619  0.5302597054428589  1.0000
  H   H8        1.0  0.5106578169189931  0.5944703349547354  0.9697425415714778  1.0000
  H   H9        1.0  0.6581025507694492  0.9519544649186996  0.44500355295173927  1.0000
  H   H10       1.0  0.15809857563343144  0.5480425063643679  0.05499829307235169  1.0000
  H   H11       1.0  0.34186802892637763  0.04807192748980069  0.5550172333084902  1.0000
  H   H12       1.0  0.841889368413142  0.45192491438871224  0.9449851714113394  1.0000
  H   H13       1.0  0.35394687044382067  0.8167599287030216  0.3263131082359224  1.0000
  H   H14       1.0  0.8539561461084874  0.6832371396909166  0.17369537299214247  1.0000
  H   H15       1.0  0.646041073461305  0.18324359415520766  0.6737087324933384  1.0000
  H   H16       1.0  0.14604742601933654  0.3167486102707997  0.8262844998376907  1.0000
  H   H17       1.0  0.3347834329178739  0.7745735743297572  0.13225166060904306  1.0000
  H   H18       1.0  0.8347912190953012  0.7254298624440096  0.36775797220493456  1.0000
  H   H19       1.0  0.6652392396588525  0.22540901345288233  0.8677625589821079  1.0000
  H   H20       1.0  0.1652314539181532  0.27458047962890936  0.6322295265217904  1.0000
  H   H21       1.0  0.6365912973420224  0.8563820190300788  0.052610263548317  1.0000
  H   H22       1.0  0.13661739584733112  0.643615841740001  0.4473920107360103  1.0000
  H   H23       1.0  0.363417483732718  0.1435996500783858  0.9474043164371795  1.0000
  H   H24       1.0  0.8634139593841965  0.3563972651699174  0.5525936836911571  1.0000
  C   C1        1.0  0.32445402794499506  0.11453073616089428  0.16649878438561672  1.0000
  C   C2        1.0  0.8244732078600523  0.385476535224413  0.3334968719292206  1.0000
  C   C3        1.0  0.675533916158507  0.8854675925759778  0.8334991845795516  1.0000
  C   C4        1.0  0.17556162017142188  0.6145382942308258  0.6664975029141119  1.0000
  C   C5        1.0  0.1422280950017623  0.0769240917254237  0.22475301351350652  1.0000
  C   C6        1.0  0.6422332582999389  0.42307575493056493  0.2752381259425364  1.0000
  C   C7        1.0  0.8577615855381425  0.9230769576945763  0.7752467669964677  1.0000
  C   C8        1.0  0.35776857742065726  0.5769299849644227  0.7247518978486344  1.0000
  C   C9        1.0  0.1496418272257998  0.11609531686340091  0.3383865362077928  1.0000
  C   C10       1.0  0.6496295935491007  0.38390079149162654  0.16161180752305887  1.0000
  C   C11       1.0  0.8503617447595107  0.8839065805898302  0.6616186692418894  1.0000
  C   C12       1.0  0.350367032709002  0.6160975019288841  0.8383890540959131  1.0000
  C   C13       1.0  0.3110330692853296  0.21286155554228967  0.4144517314351433  1.0000
  C   C14       1.0  0.8110749035559905  0.28714566782765166  0.08554685838572605  1.0000
  C   C15       1.0  0.6889444562404422  0.7871477088995749  0.5855491447351471  1.0000
  C   C16       1.0  0.18893735064828124  0.7128453910510404  0.9144474850271468  1.0000
  C   C17       1.0  0.9902430809312437  0.06649716634241538  0.38274987886177314  1.0000
  C   C18       1.0  0.49023935487784337  0.4335029391341153  0.11724598606303976  1.0000
  C   C19       1.0  0.0097361810445378  0.9335229984897355  0.6172567971621633  1.0000
  C   C20       1.0  0.509748589228849  0.5664826960286931  0.8827432879584265  1.0000
  C   C21       1.0  0.8224160363093631  0.9827275061533597  0.3170689325225737  1.0000
  C   C22       1.0  0.32241439446951153  0.5172641175109051  0.18293385215402222  1.0000
  C   C23       1.0  0.17754933403765694  0.017283419015605296  0.6829456862549821  1.0000
  C   C24       1.0  0.6775804953626263  0.48271604980022426  0.8170539682622435  1.0000
  C   C25       1.0  0.6537187446852144  0.931100076561961  0.35949047722403554  1.0000
  C   C26       1.0  0.1537185863424071  0.5689059977776266  0.14051428691399787  1.0000
  C   C27       1.0  0.3462587807058243  0.06891446147231049  0.6405277622095442  1.0000
  C   C28       1.0  0.8462693578675414  0.4310870220463697  0.8594692114549005  1.0000
  C   C29       1.0  0.48380337844702126  0.856013234639299  0.29328487955250904  1.0000
  C   C30       1.0  0.9838132477210879  0.6439885765183392  0.20671923483072874  1.0000
  C   C31       1.0  0.516186301941886  0.14398944019309567  0.7067315362132476  1.0000
  C   C32       1.0  0.016204215939140502  0.35600175795778455  0.7932595592787451  1.0000
  C   C33       1.0  0.476004216088306  0.8302578075489534  0.1824349117568147  1.0000
  C   C34       1.0  0.9760226824610709  0.669743960908825  0.3175721190326898  1.0000
  C   C35       1.0  0.5240132472020279  0.16972843724134629  0.8175793126830089  1.0000
  C   C36       1.0  0.024010409162478707  0.33026546250143696  0.6824157400513614  1.0000
  C   C37       1.0  0.6417078754450429  0.8758797609234321  0.13766377042551178  1.0000
  C   C38       1.0  0.14171627409071874  0.6241144300117725  0.3623399297960149  1.0000
  C   C39       1.0  0.3582904870966957  0.124113806708209  0.8623497405581306  1.0000
  C   C40       1.0  0.8582786158551059  0.37589399524176764  0.6376547982202185  1.0000
  C   C41       1.0  0.8188711405756453  0.9530928754399144  0.20397016225918227  1.0000
  C   C42       1.0  0.3189041483702796  0.5469105109611617  0.2960424116442653  1.0000
  C   C43       1.0  0.1811029119358736  0.046910771033367424  0.7960415541566377  1.0000
  C   C44       1.0  0.6811237337295922  0.4530895756587512  0.7039613450145126  1.0000
  N   N1        1.0  0.9814949074651268  0.0009570359037311995  0.16118720738865022  1.0000
  N   N2        1.0  0.481508557771626  0.49904307895936034  0.3388072378187276  1.0000
  N   N3        1.0  0.018498245907977707  0.9990421496923786  0.8388154633626856  1.0000
  N   N4        1.0  0.5185002237138435  0.5009672189564043  0.6611838767629337  1.0000
  O   O1        1.0  0.28830048697988536  0.0913659993162597  0.06825511982147252  1.0000
  O   O2        1.0  0.7883059016721462  0.4086274489920001  0.4317467753844896  1.0000
  O   O3        1.0  0.7116944027809922  0.9086222417406303  0.9317453669047142  1.0000
  O   O4        1.0  0.21171850762670633  0.5913872391764415  0.5682591701428238  1.0000
  O   O5        1.0  0.5084449339548345  0.1639278854846111  0.2173302942618777  1.0000
  O   O6        1.0  0.0084506435333935  0.3360690343657993  0.2826659495829986  1.0000
  O   O7        1.0  0.4915482194039456  0.8360740031335748  0.7826756343704276  1.0000
  O   O8        1.0  0.9915650836400403  0.6639321210279264  0.7173251528862183  1.0000
  O   O9        1.0  0.289106033568487  0.3223629287320477  0.41598304370249656  1.0000
  O   O10       1.0  0.7891117683893613  0.17763888547857223  0.08400765085663411  1.0000
  O   O11       1.0  0.7108992750296819  0.6776473515218412  0.5840095172179717  1.0000
  O   O12       1.0  0.2108987493355485  0.822357561783221  0.915994654654327  1.0000
  O   O13       1.0  0.43773664783152105  0.19565836154585264  0.47790467001598813  1.0000
  O   O14       1.0  0.9377208944314078  0.3043461727636014  0.02209895413724183  1.0000
  O   O15       1.0  0.5622651877214652  0.8043507969461249  0.5221048841183704  1.0000
  O   O16       1.0  0.06225489456761581  0.6956357700628573  0.9778932077290253  1.0000
