data_image0
_chemical_formula_structural       Ag6H48C78N12O18F18
_chemical_formula_sum              "Ag6 H48 C78 N12 O18 F18"
_cell_length_a       8.271378607323376
_cell_length_b       19.996253167853467
_cell_length_c       19.997269617350312
_cell_angle_alpha    118.13486952458669
_cell_angle_beta     97.95905359198811
_cell_angle_gamma    97.91469674404495

_space_group_name_H-M_alt    "P 1"
_space_group_IT_number       1

loop_
  _space_group_symop_operation_xyz
  'x, y, z'

loop_
  _atom_site_type_symbol
  _atom_site_label
  _atom_site_symmetry_multiplicity
  _atom_site_fract_x
  _atom_site_fract_y
  _atom_site_fract_z
  _atom_site_occupancy
  Ag  Ag1       1.0  0.3483809105543187  0.534974607997036  0.0239760373825533  1.0000
  Ag  Ag2       1.0  0.8134700049852553  0.4891495144344374  0.4651960623021265  1.0000
  Ag  Ag3       1.0  0.32469159915822104  0.9760223208207744  0.5109864715615372  1.0000
  Ag  Ag4       1.0  0.6516169769653004  0.46502356522383076  0.9760237290369743  1.0000
  Ag  Ag5       1.0  0.1865339321309279  0.5108509912505  0.534805155830732  1.0000
  Ag  Ag6       1.0  0.6753001845356792  0.023975852174942202  0.48901293814913055  1.0000
  H   H1        1.0  0.04948493371739458  0.410664262260994  0.9929534148632655  1.0000
  H   H2        1.0  0.639399305948757  0.5825514148839162  0.589529878901942  1.0000
  H   H3        1.0  0.057036842813666104  0.0068190596451032  0.4174493373874951  1.0000
  H   H4        1.0  0.9505056326103157  0.5893339106332788  0.007045423607394149  1.0000
  H   H5        1.0  0.36060735413485645  0.4174496741313263  0.4104732731957199  1.0000
  H   H6        1.0  0.9429585421486094  0.9931814458374575  0.5825523811494122  1.0000
  H   H7        1.0  0.8049483639994861  0.3132395830839698  0.8841712027355869  1.0000
  H   H8        1.0  0.4921421496480747  0.5713229916510016  0.6868937384900988  1.0000
  H   H9        1.0  0.9204446212346511  0.11531381070938812  0.4287164162655728  1.0000
  H   H10       1.0  0.19503726843744568  0.6867609218126844  0.11582794547421568  1.0000
  H   H11       1.0  0.507868511796218  0.4286763484442274  0.313109824011427  1.0000
  H   H12       1.0  0.07955350708876105  0.8846872777649751  0.5712842368467506  1.0000
  H   H13       1.0  0.7684753510418219  0.3085257263849073  0.7541265939098238  1.0000
  H   H14       1.0  0.4597121807249281  0.44586571891503013  0.6914341886530693  1.0000
  H   H15       1.0  0.013593941431288696  0.24538016972291388  0.5540949362312091  1.0000
  H   H16       1.0  0.2315179078168229  0.6914753616836721  0.24587177424249523  1.0000
  H   H17       1.0  0.5402920954565004  0.5541330377148128  0.3085672258583473  1.0000
  H   H18       1.0  0.986409073351652  0.7546209188751547  0.44590550234997295  1.0000
  H   H19       1.0  0.2164566108811741  0.4942904096233889  0.854871311735586  1.0000
  H   H20       1.0  0.7217612406189102  0.3606219526850936  0.5057323267925254  1.0000
  H   H21       1.0  0.36169234726242644  0.1451169997245287  0.639380042017514  1.0000
  H   H22       1.0  0.7835486554584605  0.5057054316287406  0.14512778773011806  1.0000
  H   H23       1.0  0.2782402617648927  0.6393785527969557  0.4942677488603309  1.0000
  H   H24       1.0  0.6383051841971862  0.8548829228335251  0.3606220275146156  1.0000
  H   H25       1.0  0.9455344826512472  0.5498963309400435  0.8203155525692409  1.0000
  H   H26       1.0  0.3948872540110742  0.2704099638002404  0.4499264452094991  1.0000
  H   H27       1.0  0.12435250434659657  0.17952046616037623  0.7294342279791266  1.0000
  H   H28       1.0  0.05446911879863591  0.4501059237435783  0.17968496928683916  1.0000
  H   H29       1.0  0.6051097213721518  0.7295887921645061  0.5500710419636619  1.0000
  H   H30       1.0  0.875641666648434  0.8204800391643231  0.2705664194195449  1.0000
  H   H31       1.0  0.019402129778278317  0.663969458651394  0.7999191487777396  1.0000
  H   H32       1.0  0.35502317012439727  0.13595982117708869  0.3358396268851251  1.0000
  H   H33       1.0  0.21880119486639413  0.1999241455650775  0.8639083579811738  1.0000
  H   H34       1.0  0.9805975279390322  0.336032212656903  0.20007936777176377  1.0000
  H   H35       1.0  0.6449756669200752  0.8640377686793244  0.6641569199002362  1.0000
  H   H36       1.0  0.781189900500152  0.800077525710094  0.13609215866706853  1.0000
  H   H37       1.0  0.12645571375397685  0.6441247619881381  0.6824157537619087  1.0000
  H   H38       1.0  0.4822759442367825  0.0383575050627769  0.3557011561888856  1.0000
  H   H39       1.0  0.4438272851831541  0.3173116077572544  0.9615739284438688  1.0000
  H   H40       1.0  0.8735455037937214  0.3558751603100916  0.3175830305079259  1.0000
  H   H41       1.0  0.5177277182401597  0.9616424172690973  0.644297270866261  1.0000
  H   H42       1.0  0.5561660177077953  0.6826871482416479  0.038424844398669174  1.0000
  H   H43       1.0  0.09471231749780876  0.4097200525560537  0.6070321138529664  1.0000
  H   H44       1.0  0.6847406223570258  0.19739386544496546  0.5901668329762728  1.0000
  H   H45       1.0  0.4873822846826812  0.3927255204424753  0.8026022294416961  1.0000
  H   H46       1.0  0.9052891814870347  0.5902804529824124  0.39296846169811767  1.0000
  H   H47       1.0  0.3152600187205863  0.8026048905984523  0.4098303683239805  1.0000
  H   H48       1.0  0.5126213641984593  0.6072744021150669  0.19739819720637547  1.0000
  C   C1        1.0  0.02685633098190008  0.4062033482451142  0.9357383376146656  1.0000
  C   C2        1.0  0.6210200774024202  0.5297907161429976  0.5939636408780659  1.0000
  C   C3        1.0  0.09136328794243549  0.0640258929206965  0.47021790194587243  1.0000
  C   C4        1.0  0.9731378908433329  0.5937948248970812  0.06426171467777665  1.0000
  C   C5        1.0  0.37898600281214817  0.4702092066738502  0.4060384281482358  1.0000
  C   C6        1.0  0.9086330363478367  0.9359740293666619  0.5297820966515588  1.0000
  C   C7        1.0  0.8915893307386613  0.3525915677246516  0.8750794464734213  1.0000
  C   C8        1.0  0.5392168207155095  0.5227956118895349  0.6475193599323745  1.0000
  C   C9        1.0  0.016256441696946  0.12451660529696798  0.4772315844571793  1.0000
  C   C10       1.0  0.10840396535438385  0.6474071883870847  0.1249203261655793  1.0000
  C   C11       1.0  0.4607926233625931  0.4772037281042571  0.35248363132915017  1.0000
  C   C12       1.0  0.9837410999595162  0.8754833170918417  0.522768985380253  1.0000
  C   C13       1.0  0.8717626088178249  0.34959193313870424  0.8034859910006844  1.0000
  C   C14       1.0  0.5219927888896763  0.45413964940704676  0.6504148936912343  1.0000
  C   C15       1.0  0.0677766332150469  0.1961207417372037  0.5458484940630157  1.0000
  C   C16       1.0  0.12823924282807297  0.650406823118999  0.19651278133603253  1.0000
  C   C17       1.0  0.47801392202413956  0.5458591074256917  0.3495876633001913  1.0000
  C   C18       1.0  0.932224865769804  0.8038797638012627  0.4541520814880684  1.0000
  C   C19       1.0  0.9861869402302614  0.4023318022445608  0.7953668445027589  1.0000
  C   C20       1.0  0.5835264759055078  0.39319034088335775  0.5976610080285525  1.0000
  C   C21       1.0  0.19058258548250956  0.20441211132508388  0.6067662938911056  1.0000
  C   C22       1.0  0.013813975486584673  0.5976675371519278  0.20463314787519948  1.0000
  C   C23       1.0  0.41647780707382503  0.6068084156336511  0.4023394066864014  1.0000
  C   C24       1.0  0.8094167602070924  0.7955889772507235  0.3932349304612187  1.0000
  C   C25       1.0  0.11915365801856133  0.45442387615567986  0.8588572851135226  1.0000
  C   C26       1.0  0.6645389522037634  0.40456531058983813  0.5456453534599248  1.0000
  C   C27       1.0  0.260417878414799  0.14105049761458588  0.5954274472029154  1.0000
  C   C28       1.0  0.8808478917964919  0.5455742972002824  0.14114269533132526  1.0000
  C   C29       1.0  0.33546196691203534  0.5954340287502333  0.4543541390198058  1.0000
  C   C30       1.0  0.7395772183124264  0.8589494247405796  0.404573479849205  1.0000
  C   C31       1.0  0.9683242087393963  0.3985451214585751  0.7184728288089914  1.0000
  C   C32       1.0  0.5693437696996709  0.3200230773202152  0.6013233862074044  1.0000
  C   C33       1.0  0.2494571058136188  0.2813062219925087  0.6799004591086941  1.0000
  C   C34       1.0  0.03167421461696307  0.6014565500303632  0.2815276159916635  1.0000
  C   C35       1.0  0.430657505476134  0.6799745126826765  0.3986738031597313  1.0000
  C   C36       1.0  0.7505431724060826  0.7186942835009232  0.32010004510061657  1.0000
  C   C37       1.0  0.018879668074284005  0.4713008226385256  0.715544855145879  1.0000
  C   C38       1.0  0.5471278191685441  0.24432183253789214  0.528580274372608  1.0000
  C   C39       1.0  0.3027646941431854  0.28426652400646196  0.7556127479783258  1.0000
  C   C40       1.0  0.9811236349436926  0.5287008490869524  0.2844563749200972  1.0000
  C   C41       1.0  0.4528728151111637  0.7556769236183599  0.4714179267241079  1.0000
  C   C42       1.0  0.6972331391472792  0.715733981453333  0.24438811344566602  1.0000
  C   C43       1.0  0.9981205162759821  0.5436999914536074  0.7709731781981334  1.0000
  C   C44       1.0  0.45384959788924567  0.2273079405031312  0.4561656464414554  1.0000
  C   C45       1.0  0.2264027078856401  0.2288806898748703  0.772585815448025  1.0000
  C   C46       1.0  0.0018843025400982728  0.45630226333146584  0.22902791489794078  1.0000
  C   C47       1.0  0.5461507549533166  0.7726902324128843  0.5438307633740107  1.0000
  C   C48       1.0  0.7735914631093905  0.7711198154498362  0.2274148319506537  1.0000
  C   C49       1.0  0.03687006577984417  0.606943385908515  0.7592529361801326  1.0000
  C   C50       1.0  0.4295501445265515  0.15234173727002803  0.3928942156497897  1.0000
  C   C51       1.0  0.27700562622108993  0.24057868503496138  0.8475602155974968  1.0000
  C   C52       1.0  0.9631332474349961  0.39305828564770445  0.24074679419115338  1.0000
  C   C53       1.0  0.5704511340482127  0.8476558526764464  0.6071024738191183  1.0000
  C   C54       1.0  0.7229860490145016  0.759424152438598  0.15244138412209918  1.0000
  C   C55       1.0  0.09586952471995862  0.5964630954009991  0.6940270838744738  1.0000
  C   C56       1.0  0.49924086304825  0.0976207467992438  0.40337649549989146  1.0000
  C   C57       1.0  0.4015080160096645  0.30574274042908206  0.9023134152865496  1.0000
  C   C58       1.0  0.904131984461742  0.4035374099682159  0.30597199198192027  1.0000
  C   C59       1.0  0.500763436925844  0.9023780094356867  0.5966214197239098  1.0000
  C   C60       1.0  0.5984876639855585  0.6942583480680539  0.09768809493868962  1.0000
  C   C61       1.0  0.07813437469384613  0.46535426670445196  0.651131510084106  1.0000
  C   C62       1.0  0.6124628409021613  0.18585131807177646  0.5345127022306285  1.0000
  C   C63       1.0  0.42658375984714075  0.3486438948958579  0.8141301890980657  1.0000
  C   C64       1.0  0.9218677109579474  0.5346474049195749  0.34886914874186903  1.0000
  C   C65       1.0  0.3875375085414561  0.8141468549006561  0.4654842074830654  1.0000
  C   C66       1.0  0.5734183766348478  0.6513554445456649  0.18586987462167304  1.0000
  C   C67       1.0  0.3662836835419441  0.43466385582743783  0.1068721481565049  1.0000
  C   C68       1.0  0.9317390481249815  0.6725556799339216  0.5654569386384338  1.0000
  C   C69       1.0  0.25934935412285387  0.8930876118275889  0.327614597517126  1.0000
  C   C70       1.0  0.6337178866668152  0.5653343171900218  0.8931248328989623  1.0000
  C   C71       1.0  0.0682621830185326  0.3274442421386468  0.4345398460384756  1.0000
  C   C72       1.0  0.7406457256096104  0.1069123108096548  0.672388829026147  1.0000
  C   C73       1.0  0.4016027194258244  0.3745091902106807  0.13310415587199032  1.0000
  C   C74       1.0  0.02765477651232124  0.758902706437965  0.6255103132050763  1.0000
  C   C75       1.0  0.2683623983059887  0.8667718385015419  0.24120898430393106  1.0000
  C   C76       1.0  0.5984075657188157  0.625494230896493  0.8668978057643029  1.0000
  C   C77       1.0  0.9723412291064119  0.24109896456599234  0.37448648962442377  1.0000
  C   C78       1.0  0.7316305315301861  0.1332286671166258  0.7587945911423546  1.0000
  N   N1        1.0  0.13993034204248997  0.45560998211328047  0.9274735045324007  1.0000
  N   N2        1.0  0.6844475134948523  0.47203100928969377  0.5445235082857494  1.0000
  N   N3        1.0  0.21278973846582264  0.0724328866562871  0.5279791111597376  1.0000
  N   N4        1.0  0.8600651513780947  0.5443858588914453  0.07252602399557875  1.0000
  N   N5        1.0  0.315557640987521  0.5279694964966952  0.4554782810871174  1.0000
  N   N6        1.0  0.7872077997916875  0.9275670357889326  0.47202195857592244  1.0000
  N   N7        1.0  0.11655887302124067  0.5266107978163177  0.6407191846261425  1.0000
  N   N8        1.0  0.5897430661780233  0.1141754241118917  0.4732554088040287  1.0000
  N   N9        1.0  0.47555333425552954  0.3590518067854091  0.8858033429528118  1.0000
  N   N10       1.0  0.8834441485596045  0.47339029066891675  0.35928025415858406  1.0000
  N   N11       1.0  0.41025757489958886  0.885823331931526  0.5267417924962244  1.0000
  N   N12       1.0  0.5244472864283762  0.640946949596511  0.11419685773682173  1.0000
  O   O1        1.0  0.9086463590249922  0.3358018950168216  0.6574836817478484  1.0000
  O   O2        1.0  0.5725261317479279  0.321786351657444  0.6640682459536933  1.0000
  O   O3        1.0  0.2509364828997676  0.3422693445330722  0.6781010708455426  1.0000
  O   O4        1.0  0.09135630649583966  0.6642009428055929  0.34251806014947317  1.0000
  O   O5        1.0  0.42747118270055046  0.6782106552522009  0.33592943759802546  1.0000
  O   O6        1.0  0.7490634968880343  0.6577305780022087  0.3219001415736642  1.0000
  O   O7        1.0  0.49105842945478173  0.46198354425010285  0.08986904460964247  1.0000
  O   O8        1.0  0.028860078518540878  0.6280401239120508  0.5381268228052747  1.0000
  O   O9        1.0  0.40111150742728074  0.9099686154954154  0.37194838848272127  1.0000
  O   O10       1.0  0.5089392682453138  0.5380117128710326  0.9101223366436458  1.0000
  O   O11       1.0  0.9711441604284872  0.3719609646746278  0.4618731872194529  1.0000
  O   O12       1.0  0.5988833484961588  0.0900283916062534  0.6280516518766035  1.0000
  O   O13       1.0  0.2218485905858572  0.44712141175283193  0.10404564692542102  1.0000
  O   O14       1.0  0.7748549452381823  0.6574374141655213  0.55308519127815  1.0000
  O   O15       1.0  0.11779792485973664  0.8960923181448875  0.3428971851195755  1.0000
  O   O16       1.0  0.7781538409290858  0.552878510703259  0.8959542084826495  1.0000
  O   O17       1.0  0.2251475642985739  0.342560175656736  0.44691006983784115  1.0000
  O   O18       1.0  0.8821980874028341  0.1039070214099809  0.6571055212806769  1.0000
  F   F1        1.0  0.2850567680739857  0.3578285919917975  0.16829638163822844  1.0000
  F   F2        1.0  0.9282269195493242  0.8109975376548563  0.6422225090620941  1.0000
  F   F3        1.0  0.11652620079302525  0.8314974294759239  0.189255533428181  1.0000
  F   F4        1.0  0.714962862705782  0.6421789112209735  0.8317110485440011  1.0000
  F   F5        1.0  0.07176640033637939  0.18900121806196776  0.35777376428929125  1.0000
  F   F6        1.0  0.8834667730754546  0.16850074407257412  0.8107484467083309  1.0000
  F   F7        1.0  0.40407123313846677  0.30489194262806757  0.06999517807678761  1.0000
  F   F8        1.0  0.09981385620238829  0.7654042102516883  0.6951346482812611  1.0000
  F   F9        1.0  0.3339983296515072  0.9298294426241254  0.23467019434060166  1.0000
  F   F10       1.0  0.5959320460868581  0.6951097294923231  0.9300095512768038  1.0000
  F   F11       1.0  0.9001891857721629  0.23459687789504352  0.3048617911140851  1.0000
  F   F12       1.0  0.6659964550480167  0.07016989699854288  0.7653334405143397  1.0000
  F   F13       1.0  0.5546241005270218  0.39976709344847444  0.18417144191804616  1.0000
  F   F14       1.0  0.1554169757603461  0.7844625402976249  0.6001405056442977  1.0000
  F   F15       1.0  0.37027653180014397  0.8157068188703389  0.21546272602255104  1.0000
  F   F16       1.0  0.44539378740074653  0.6002392425617913  0.8158263355811428  1.0000
  F   F17       1.0  0.844578979028185  0.21554146288883663  0.3998568922914317  1.0000
  F   F18       1.0  0.629717388194237  0.18429077137011524  0.7845385343780222  1.0000
