data_image0
_chemical_formula_structural       AlH21C27N6O6
_chemical_formula_sum              "Al1 H21 C27 N6 O6"
_cell_length_a       3.9847265529395615
_cell_length_b       16.065882912937678
_cell_length_c       16.07006223232559
_cell_angle_alpha    119.89217631172596
_cell_angle_beta     89.95848314721644
_cell_angle_gamma    89.9813166280893

_space_group_name_H-M_alt    "P 1"
_space_group_IT_number       1

loop_
  _space_group_symop_operation_xyz
  'x, y, z'

loop_
  _atom_site_type_symbol
  _atom_site_label
  _atom_site_symmetry_multiplicity
  _atom_site_fract_x
  _atom_site_fract_y
  _atom_site_fract_z
  _atom_site_occupancy
  Al  Al1       1.0  7.63681726993994e-05  0.5010961565773543  0.4988851320934986  1.0000
  H   H1        1.0  0.4997479878167325  0.9227043645352496  0.07722653988862063  1.0000
  H   H2        1.0  0.493360264653667  0.6553889050794768  0.07732996477044914  1.0000
  H   H3        1.0  0.5067031402339237  0.9225026002515266  0.3444247406286255  1.0000
  H   H4        1.0  0.7943467590987225  0.054429331659321206  0.1652684155537045  1.0000
  H   H5        1.0  0.18881622645643859  0.05252818763354131  0.38684423262292  1.0000
  H   H6        1.0  0.20546287701669289  0.8346470241772936  0.94552046332354  1.0000
  H   H7        1.0  0.8109284385597704  0.6129500079967798  0.9472545448219524  1.0000
  H   H8        1.0  0.7989834091365539  0.6121518348045217  0.1646390152449871  1.0000
  H   H9        1.0  0.20110274789070098  0.8351655598416488  0.38755729544315914  1.0000
  H   H10       1.0  0.046025445281486596  0.30275812054286894  0.5123444899764069  1.0000
  H   H11       1.0  0.9989307039842782  0.19877400266797457  0.5097197604200903  1.0000
  H   H12       1.0  0.9478240014180273  0.3032610668375071  0.29421054612099345  1.0000
  H   H13       1.0  0.9838595328379469  0.20138473697245735  0.19065718351474467  1.0000
  H   H14       1.0  0.05233789987538269  0.7058334251515035  0.6967645632319518  1.0000
  H   H15       1.0  0.016175633514969  0.8093496358165596  0.798677517231312  1.0000
  H   H16       1.0  0.9538118152920774  0.48761064355857553  0.6970942630905912  1.0000
  H   H17       1.0  0.0007834881421616008  0.4900867129983695  0.8009746762735762  1.0000
  H   H18       1.0  0.8848828037146033  0.4746251392421144  0.28188691477277683  1.0000
  H   H19       1.0  0.9898411556135968  0.48872606450396466  0.18565563408456157  1.0000
  H   H20       1.0  0.1154407967118019  0.7181297814220998  0.5252781638357152  1.0000
  H   H21       1.0  0.0103428363945994  0.814272325923767  0.5110093560291136  1.0000
  C   C1        1.0  0.5027516138546773  0.5738521597917342  0.6497485584218128  1.0000
  C   C2        1.0  0.5001642920216156  0.5752121807132653  0.4247328019067212  1.0000
  C   C3        1.0  0.49729754992692676  0.35019834535179234  0.4261067423050522  1.0000
  C   C4        1.0  0.5046119411905892  0.7828875756512091  0.06492464979275789  1.0000
  C   C5        1.0  0.49977265513554403  0.8835058657813307  0.11640014500510915  1.0000
  C   C6        1.0  0.49514278662743294  0.934945970411583  0.21699422698501555  1.0000
  C   C7        1.0  0.4966873408888971  0.883423020838002  0.2662454354294115  1.0000
  C   C8        1.0  0.5000162581506159  0.7827819091012318  0.2170247785027616  1.0000
  C   C9        1.0  0.5031994805136719  0.7335919789020835  0.11640624060721204  1.0000
  C   C10       1.0  0.6613485273809872  0.19306260156228922  0.2831366951312831  1.0000
  C   C11       1.0  0.6524979291285646  0.09244787905294062  0.23202721340419438  1.0000
  C   C12       1.0  0.49285258697073425  0.0411609060210409  0.2700906087948098  1.0000
  C   C13       1.0  0.3320203380761413  0.09139694063007651  0.3591982286656689  1.0000
  C   C14       1.0  0.3254108291469322  0.19209859325548714  0.4103662225503798  1.0000
  C   C15       1.0  0.4955356548777417  0.24295411091912913  0.3724755536388714  1.0000
  C   C16       1.0  0.34737392340674234  0.7678858571606286  0.9075008955572418  1.0000
  C   C17       1.0  0.3385617541714794  0.7168225268027726  0.8069081855575536  1.0000
  C   C18       1.0  0.5043703626441102  0.6274693840347613  0.7569631414922288  1.0000
  C   C19       1.0  0.6744151302761308  0.5895249152064682  0.8077545914304454  1.0000
  C   C20       1.0  0.667772053830099  0.6406456600694173  0.9084390069368384  1.0000
  C   C21       1.0  0.5069091106681753  0.7297586231922752  0.9587203007587067  1.0000
  C   C22       1.0  0.660766486846704  0.6406901032169331  0.23197309461124163  1.0000
  C   C23       1.0  0.6696952963268075  0.5896699081821881  0.2816929615764539  1.0000
  C   C24       1.0  0.5000976229598137  0.6272934386583771  0.3725630184710057  1.0000
  C   C25       1.0  0.33046200424400496  0.7181526825921055  0.41013509145894755  1.0000
  C   C26       1.0  0.33931114295447873  0.767828057253901  0.35907580616326135  1.0000
  C   C27       1.0  0.5000366650515318  0.7296319687430002  0.2701527180512645  1.0000
  N   N1        1.0  0.16364951110563905  0.24084840825967294  0.4989643868939028  1.0000
  N   N2        1.0  0.8230893921462937  0.24342327154299434  0.2446569638040828  1.0000
  N   N3        1.0  0.17697451871089953  0.7553644369432607  0.7566208516347506  1.0000
  N   N4        1.0  0.8361453071815249  0.5009272171332385  0.7589685019178989  1.0000
  N   N5        1.0  0.8241955179937649  0.5015575670280867  0.2385908184142524  1.0000
  N   N6        1.0  0.1759858204611362  0.7613524338092363  0.49823546469112073  1.0000
  O   O1        1.0  0.26078465738986983  0.393632957683657  0.40907451214425095  1.0000
  O   O2        1.0  0.2663458021145715  0.5139985681863666  0.6059541228244996  1.0000
  O   O3        1.0  0.2701514868373421  0.5925167390371655  0.4886749794727196  1.0000
  O   O4        1.0  0.7336419789453643  0.393985755928867  0.4859624004569343  1.0000
  O   O5        1.0  0.7302335710593653  0.5113094374525106  0.4074747326084423  1.0000
  O   O6        1.0  0.739346695680311  0.5909255014329702  0.6063445640253138  1.0000
