data_image0
_chemical_formula_structural       Zn2H46C84N12Cl22O18
_chemical_formula_sum              "Zn2 H46 C84 N12 Cl22 O18"
_cell_length_a       18.47991270612001
_cell_length_b       19.13130523531989
_cell_length_c       27.900067457711092
_cell_angle_alpha    91.2900723165858
_cell_angle_beta     89.63951814344624
_cell_angle_gamma    89.98625416023464

_space_group_name_H-M_alt    "P 1"
_space_group_IT_number       1

loop_
  _space_group_symop_operation_xyz
  'x, y, z'

loop_
  _atom_site_type_symbol
  _atom_site_label
  _atom_site_symmetry_multiplicity
  _atom_site_fract_x
  _atom_site_fract_y
  _atom_site_fract_z
  _atom_site_occupancy
  Zn  Zn1       1.0  0.42021429863966375  0.4966200503707227  0.49829855116132665  1.0000
  Zn  Zn2       1.0  0.5823851034424763  0.5005542954101188  0.4970552142690466  1.0000
  H   H1        1.0  0.3810184406773303  0.5227259249974167  0.6463537796617801  1.0000
  H   H2        1.0  0.5132987726963163  0.094676484797418  0.1495627057792177  1.0000
  H   H3        1.0  0.5606092955299998  0.13182197738345988  0.10085808163309201  1.0000
  H   H4        1.0  0.5226348266072093  0.7767504707056359  0.8548983103705441  1.0000
  H   H5        1.0  0.5468786391824877  0.7401164998910658  0.9106264900147778  1.0000
  H   H6        1.0  0.3987213615984401  0.8036754522137101  0.8872924048779468  1.0000
  H   H7        1.0  0.42366268775894866  0.7721695990533773  0.9439286664373372  1.0000
  H   H8        1.0  0.5238096235634017  0.8629585692757259  0.9493185157776268  1.0000
  H   H9        1.0  0.4377399908717549  0.9026303183771132  0.9430801781759686  1.0000
  H   H10       1.0  0.4971903192166777  0.8954125011602725  0.8929614237739616  1.0000
  H   H11       1.0  0.4742466844921011  0.22921192621637224  0.8342950620469765  1.0000
  H   H12       1.0  0.3806225500772413  0.4752016160325994  0.3481890146162598  1.0000
  H   H13       1.0  0.4114456828078231  0.2980462430898285  0.8439169648331559  1.0000
  H   H14       1.0  0.46173895232719525  0.196263971535835  0.9209823108819821  1.0000
  H   H15       1.0  0.3982705903649943  0.2641962587634339  0.9304324156553465  1.0000
  H   H16       1.0  0.3155859645017571  0.208181444329206  0.868003516465386  1.0000
  H   H17       1.0  0.33331438660485446  0.15054340063962  0.9154788781852761  1.0000
  H   H18       1.0  0.3786760114863482  0.139055748553865  0.859583302761614  1.0000
  H   H19       1.0  0.4484646514131254  0.7775992566155806  0.16466497204814354  1.0000
  H   H20       1.0  0.39345074319274426  0.704446643225985  0.15054647301984403  1.0000
  H   H21       1.0  0.43861657861175724  0.8162460691714202  0.07856935372210931  1.0000
  H   H22       1.0  0.3796679862666394  0.7455145997954773  0.0663001120601265  1.0000
  H   H23       1.0  0.4859731297368909  0.33427659919927066  0.0339495363043341  1.0000
  H   H24       1.0  0.29217622238802216  0.7926095074810036  0.13041215689254673  1.0000
  H   H25       1.0  0.30705077898426225  0.8540004124726865  0.08465979805794892  1.0000
  H   H26       1.0  0.3508211667509826  0.8646412280256752  0.1407994575157474  1.0000
  H   H27       1.0  0.6174982078799544  0.3400938642395274  0.0090599271140235  1.0000
  H   H28       1.0  0.63410763895601  0.3233619831260555  0.9465681817899778  1.0000
  H   H29       1.0  0.5774703862159142  0.2121447774816048  0.014615842235798503  1.0000
  H   H30       1.0  0.6074446824886479  0.19883228561311478  0.9549248072457246  1.0000
  H   H31       1.0  0.7346245704345122  0.23651606135332065  0.9799489978278404  1.0000
  H   H32       1.0  0.7044746934547417  0.1633724062303017  0.012483965470259801  1.0000
  H   H33       1.0  0.7032977544664759  0.248010913174582  0.03987866170680121  1.0000
  H   H34       1.0  0.48032414395981965  0.6795565123840602  0.9619485110665593  1.0000
  H   H35       1.0  0.594213265198661  0.7605213716739739  0.9959131070936282  1.0000
  H   H36       1.0  0.606330945794511  0.669161106722683  0.9842094294876207  1.0000
  H   H37       1.0  0.6327083135584033  0.7434107704927158  0.08135793916743242  1.0000
  H   H38       1.0  0.6468368370706372  0.6536081450071123  0.06855401074734861  1.0000
  H   H39       1.0  0.7407009966870887  0.6838685936400992  0.005347135696126798  1.0000
  H   H40       1.0  0.7647254599230278  0.7173487638516391  0.06288255294410311  1.0000
  H   H41       1.0  0.7283566365085078  0.7740175147447558  0.0197094521755048  1.0000
  H   H42       1.0  0.5414254038799128  0.2618879618013707  0.08307157520453501  1.0000
  H   H43       1.0  0.4454749396908396  0.25069913409418376  0.08051679364835003  1.0000
  H   H44       1.0  0.5398776391156658  0.22162271675002637  0.16798215199862204  1.0000
  H   H45       1.0  0.4457029895521458  0.20755866634220146  0.1644815876547057  1.0000
  H   H46       1.0  0.46577818806362353  0.11756231053174557  0.09712793145161672  1.0000
  C   C1        1.0  0.5195149591345398  0.3646918758643309  0.4993879137334148  1.0000
  C   C2        1.0  0.4871516253466196  0.4331207846769514  0.8705348209995023  1.0000
  C   C3        1.0  0.48720003681318497  0.5184585449768233  0.35387679624742674  1.0000
  C   C4        1.0  0.49070493817853833  0.48692139252101196  0.6425210562411935  1.0000
  C   C5        1.0  0.49923778700753013  0.4400123557259263  0.9730109705295364  1.0000
  C   C6        1.0  0.49731378847842217  0.57427162618918  0.023192936221597904  1.0000
  C   C7        1.0  0.49204594003424507  0.5695367727362707  0.9706752401718364  1.0000
  C   C8        1.0  0.49412817985520235  0.4445539840677311  0.0255541203365794  1.0000
  C   C9        1.0  0.4920577740525046  0.5026725129712163  0.9464440790919043  1.0000
  C   C10       1.0  0.4925750268857739  0.5113326856092114  0.049753266440788514  1.0000
  C   C11       1.0  0.5095100213469408  0.3768458489430984  0.9469598550900218  1.0000
  C   C12       1.0  0.5118846874063934  0.6331962677960447  0.5032982920008067  1.0000
  C   C13       1.0  0.5042499738552166  0.6378143112364967  0.0492970036615787  1.0000
  C   C14       1.0  0.5008913945887485  0.37247248457987325  0.8964197460614473  1.0000
  C   C15       1.0  0.49253428455277504  0.6417948762486816  0.09974469595990602  1.0000
  C   C16       1.0  0.48485672108218125  0.5088888634104192  0.40728720350529823  1.0000
  C   C17       1.0  0.48832333365525227  0.49125257966093727  0.5887990973958709  1.0000
  C   C18       1.0  0.4883332257794207  0.3844018975363496  0.0526576965348866  1.0000
  C   C19       1.0  0.4841964907433081  0.6292777640572138  0.9435121566662165  1.0000
  C   C20       1.0  0.5009732608238905  0.26184340028182623  0.5527849529757276  1.0000
  C   C21       1.0  0.5105945470804227  0.7557231526495584  0.4719390134741702  1.0000
  C   C22       1.0  0.4951746284663869  0.739493846329857  0.557392572647956  1.0000
  C   C23       1.0  0.48807215951139665  0.5141542626206996  0.10118254198007291  1.0000
  C   C24       1.0  0.5239619176053123  0.23936621975873612  0.4682013489559865  1.0000
  C   C25       1.0  0.49489444111155484  0.189769232877218  0.560157751048152  1.0000
  C   C26       1.0  0.5050021023064416  0.8283363627225739  0.47921127640351113  1.0000
  C   C27       1.0  0.4890850548145805  0.8121405688725502  0.5647264075142573  1.0000
  C   C28       1.0  0.5173369018495322  0.1672157783740005  0.475423677305102  1.0000
  C   C29       1.0  0.5030021672038103  0.14244766890328717  0.5214138612183775  1.0000
  C   C30       1.0  0.49460573480662606  0.8565720764364856  0.5255575865349229  1.0000
  C   C31       1.0  0.5158697951507277  0.286621372550762  0.5068840724241426  1.0000
  C   C32       1.0  0.5062902954304462  0.7114843592241158  0.5111261189001725  1.0000
  C   C33       1.0  0.4918313888925069  0.9335658568766761  0.5322985561083016  1.0000
  C   C34       1.0  0.48693330402088014  0.49953655491507487  0.8950839864144984  1.0000
  C   C35       1.0  0.49645439143357345  0.0663401239196801  0.529340705868897  1.0000
  C   C36       1.0  0.7381203330633425  0.46939677559446835  0.4629159419680208  1.0000
  C   C37       1.0  0.2640424757992861  0.5462688189763866  0.526948173267769  1.0000
  C   C38       1.0  0.7365484615510026  0.5379362905333096  0.5330726670794378  1.0000
  C   C39       1.0  0.263503630458132  0.44606487421955865  0.47810813260104373  1.0000
  C   C40       1.0  0.8142650995688426  0.46772994319012884  0.46222242010970405  1.0000
  C   C41       1.0  0.18789491966817448  0.5488105690681663  0.5277606517569495  1.0000
  C   C42       1.0  0.8126673024208202  0.5371631057353736  0.5355129002169792  1.0000
  C   C43       1.0  0.1874009347534056  0.44415247714909606  0.4778855165853742  1.0000
  C   C44       1.0  0.8516549462168824  0.5017185023097639  0.4993979560553896  1.0000
  C   C45       1.0  0.4889842381844219  0.4515420929568564  0.1278402015883486  1.0000
  C   C46       1.0  0.14948729440755668  0.4968933656016148  0.5027680274204158  1.0000
  C   C47       1.0  0.06918327673356829  0.49814078862668515  0.5021914662119897  1.0000
  C   C48       1.0  0.9319282252286314  0.5004091247933573  0.5004558395552507  1.0000
  C   C49       1.0  0.4966863040870634  0.4542753211242142  0.180206740492018  1.0000
  C   C50       1.0  0.4906028102003645  0.5597528685915522  0.8157656075980528  1.0000
  C   C51       1.0  0.4744610340368779  0.5841447620691653  0.17843368216998104  1.0000
  C   C52       1.0  0.47759641166583583  0.42873344590500295  0.8180985789126822  1.0000
  C   C53       1.0  0.42492596821202255  0.49772612833085345  0.27860979135438413  1.0000
  C   C54       1.0  0.42473701289978283  0.5083414567565754  0.7168520337266175  1.0000
  C   C55       1.0  0.4265315607608287  0.4954406264334281  0.32826366723750783  1.0000
  C   C56       1.0  0.4837189862049414  0.5621796085751355  0.8683487233455127  1.0000
  C   C57       1.0  0.4277501801363214  0.5074591485064557  0.6671553446976048  1.0000
  C   C58       1.0  0.5466541364306039  0.5464151332892015  0.3288352330186939  1.0000
  C   C59       1.0  0.5516318284324199  0.46532482800250113  0.6685677387813629  1.0000
  C   C60       1.0  0.5450092667555779  0.5477364664909742  0.27837653631493  1.0000
  C   C61       1.0  0.5484682167898924  0.46734314876226074  0.7190442823520088  1.0000
  C   C62       1.0  0.4845903955468316  0.5228288403515151  0.25307856486762864  1.0000
  C   C63       1.0  0.4853838702097874  0.4891068477116461  0.7432876854219758  1.0000
  C   C64       1.0  0.4913522848368998  0.26123442260841756  0.1048113464626041  1.0000
  C   C65       1.0  0.4961045616691777  0.2066394330750398  0.1432671938354915  1.0000
  C   C66       1.0  0.5096213594004126  0.13375620359546048  0.12145952357026604  1.0000
  C   C67       1.0  0.48656117671380633  0.3867414318367962  0.1028879432125791  1.0000
  C   C68       1.0  0.5010759544112062  0.7507877202601634  0.8867575773002019  1.0000
  C   C69       1.0  0.44479122168033297  0.7973114971009068  0.9116162073847678  1.0000
  C   C70       1.0  0.47761324452545034  0.8684816241178409  0.9249695214496542  1.0000
  C   C71       1.0  0.45194515941654595  0.2656260560129269  0.8615817736802998  1.0000
  C   C72       1.0  0.4192876254712274  0.22650925791895554  0.9033494838065155  1.0000
  C   C73       1.0  0.35839450627912567  0.17845155652199904  0.8856874058863868  1.0000
  C   C74       1.0  0.4315237460367241  0.7421487415075985  0.1353292832148796  1.0000
  C   C75       1.0  0.3975260674576688  0.7823487618791845  0.09475822502304251  1.0000
  C   C76       1.0  0.33338135444608236  0.8257401073904234  0.11361404251235291  1.0000
  C   C77       1.0  0.6027601699013303  0.3063225087783508  0.9779406365163299  1.0000
  C   C78       1.0  0.480284421024038  0.6268222830804575  0.8933607460633654  1.0000
  C   C79       1.0  0.6170902862463521  0.2299711348508922  0.9878977919581617  1.0000
  C   C80       1.0  0.6940510078809082  0.21886806493871797  0.0060212611329504  1.0000
  C   C81       1.0  0.5936687247323746  0.7088493063652948  0.0123969895941656  1.0000
  C   C82       1.0  0.648426751200212  0.7058372802156542  0.0527656347856293  1.0000
  C   C83       1.0  0.7246865635613701  0.7210769541772918  0.03414167296421059  1.0000
  C   C84       1.0  0.4836427942297446  0.5804232087089998  0.12580319326543332  1.0000
  N   N1        1.0  0.48489976246492006  0.5208138925696346  0.2019634202382577  1.0000
  N   N2        1.0  0.03448235463643099  0.456984060247457  0.5333632973718708  1.0000
  N   N3        1.0  0.9628042047383971  0.458331031961933  0.5325368438183631  1.0000
  N   N4        1.0  0.0383540844533599  0.5404918132904016  0.4702568225019449  1.0000
  N   N5        1.0  0.48381754241204783  0.49242363689170765  0.7943642234235995  1.0000
  N   N6        1.0  0.5536707731358348  0.034096710357019284  0.5488499930971502  1.0000
  N   N7        1.0  0.4295449607905582  0.9666653565577334  0.522453710550522  1.0000
  N   N8        1.0  0.551296573114783  0.9650207624409999  0.5503600041332817  1.0000
  N   N9        1.0  0.43193940661480207  0.03587788272012919  0.5209366006048414  1.0000
  N   N10       1.0  0.7008930037879252  0.5039425512470288  0.4976488815636415  1.0000
  N   N11       1.0  0.300181249337605  0.4962548865880833  0.5020659278848711  1.0000
  N   N12       1.0  0.9667174008940191  0.541561395127168  0.4692758472585653  1.0000
  Cl  Cl1       1.0  0.6207797033189023  0.5815131699874385  0.3574327217612351  1.0000
  Cl  Cl2       1.0  0.3110575933770576  0.38329378237367  0.447516125133852  1.0000
  Cl  Cl3       1.0  0.8607270806482318  0.42404197116805165  0.41760607876820194  1.0000
  Cl  Cl4       1.0  0.1423836889955865  0.613353527818873  0.5587858699258632  1.0000
  Cl  Cl5       1.0  0.8572878143829641  0.57972825003025  0.5810620451000406  1.0000
  Cl  Cl6       1.0  0.14137427414764397  0.3797195752690213  0.4474968717463242  1.0000
  Cl  Cl7       1.0  0.6176434730084991  0.578727724231001  0.2466507535457936  1.0000
  Cl  Cl8       1.0  0.6222010425359626  0.4437239206905017  0.752079864257148  1.0000
  Cl  Cl9       1.0  0.3459558739056945  0.533122404226752  0.7459148593465771  1.0000
  Cl  Cl10      1.0  0.34924127102684105  0.46864385941710657  0.24833901750903925  1.0000
  Cl  Cl11      1.0  0.48874717026548337  0.31967629743984827  0.5999715720194986  1.0000
  Cl  Cl12      1.0  0.6290730635292405  0.4337626615813974  0.6415274586005568  1.0000
  Cl  Cl13      1.0  0.5226584271350916  0.7204192345038364  0.4153664903552326  1.0000
  Cl  Cl14      1.0  0.48920240904810436  0.6843105275890905  0.6051761565231217  1.0000
  Cl  Cl15      1.0  0.540450828642399  0.27058563105599376  0.411825906845678  1.0000
  Cl  Cl16      1.0  0.4759326338244634  0.15906375181506857  0.6162304606597928  1.0000
  Cl  Cl17      1.0  0.5122731320500832  0.8838108109835402  0.43171543563907033  1.0000
  Cl  Cl18      1.0  0.47374243348405526  0.8471809829174928  0.6210977046273031  1.0000
  Cl  Cl19      1.0  0.5272239472638276  0.10804655548734839  0.42845192729757303  1.0000
  Cl  Cl20      1.0  0.691507374804523  0.4270038965636401  0.4189149247441436  1.0000
  Cl  Cl21      1.0  0.31168536229651517  0.6078809039163174  0.5581128834508675  1.0000
  Cl  Cl22      1.0  0.6887365907738568  0.5828045850326332  0.5756894536641682  1.0000
  O   O1        1.0  0.45894447780921144  0.39391418725430327  0.4936926018611275  1.0000
  O   O2        1.0  0.5021794891538035  0.6097589221801982  0.7899003192527518  1.0000
  O   O3        1.0  0.4662728651173892  0.3748891803273651  0.7943231823237372  1.0000
  O   O4        1.0  0.4602553159264957  0.6372103574356485  0.20246596917700546  1.0000
  O   O5        1.0  0.48229724057568285  0.32811348375534516  0.1286404001309904  1.0000
  O   O6        1.0  0.47257084622216877  0.6855915455760878  0.8680192463347042  1.0000
  O   O7        1.0  0.5134702409471501  0.308973145478994  0.8751856704362738  1.0000
  O   O8        1.0  0.4976806004526964  0.7063211302873642  0.12067822372426923  1.0000
  O   O9        1.0  0.5262948975773653  0.3147453458370605  0.9682152773740997  1.0000
  O   O10       1.0  0.51925671724306  0.7005958306632252  0.028345322221447596  1.0000
  O   O11       1.0  0.575054682823527  0.6081305057520437  0.498947921854793  1.0000
  O   O12       1.0  0.452183921214896  0.6011096173742487  0.5021914644924337  1.0000
  O   O13       1.0  0.5816066050898029  0.3927169626600103  0.5000176960054717  1.0000
  O   O14       1.0  0.4220166679268543  0.5067008041330892  0.4264744310644916  1.0000
  O   O15       1.0  0.5474536331556549  0.5000343330807197  0.5667130733449213  1.0000
  O   O16       1.0  0.42562002937498983  0.4879172886141346  0.570013528224628  1.0000
  O   O17       1.0  0.5445338429456327  0.5012187456032392  0.428589182480451  1.0000
  O   O18       1.0  0.512560057458785  0.4049422048453408  0.2056068160531765  1.0000
