data_image0
_chemical_formula_structural       Co2H24C28N8
_chemical_formula_sum              "Co2 H24 C28 N8"
_cell_length_a       6.955088679098067
_cell_length_b       8.156622777242964
_cell_length_c       13.015130367066451
_cell_angle_alpha    108.26699598943227
_cell_angle_beta     91.74916306120019
_cell_angle_gamma    90.12249929799269

_space_group_name_H-M_alt    "P 1"
_space_group_IT_number       1

loop_
  _space_group_symop_operation_xyz
  'x, y, z'

loop_
  _atom_site_type_symbol
  _atom_site_label
  _atom_site_symmetry_multiplicity
  _atom_site_fract_x
  _atom_site_fract_y
  _atom_site_fract_z
  _atom_site_occupancy
  Co  Co1       1.0  0.7499537868509449  0.46111250026868317  0.9999935617321897  1.0000
  Co  Co2       1.0  0.2500431604450668  0.5388851721576416  3.486957972071439e-06  1.0000
  H   H1        1.0  0.7701814258203612  0.32257989372494933  0.20541125599758908  1.0000
  H   H2        1.0  0.7283430216551352  0.1175470994454315  0.7944215885738117  1.0000
  H   H3        1.0  0.22982854341938014  0.6774281752307232  0.7945880743627357  1.0000
  H   H4        1.0  0.27165112214151327  0.8824465532168873  0.20557844000340705  1.0000
  H   H5        1.0  0.20016370083442334  0.540697263203512  0.23432136686968616  1.0000
  H   H6        1.0  0.2996110519009818  0.30638959705130725  0.7655101620040268  1.0000
  H   H7        1.0  0.7998403703581615  0.45929401990670726  0.7656736411795394  1.0000
  H   H8        1.0  0.7003887392195268  0.6935924950995583  0.23448673406685563  1.0000
  H   H9        1.0  0.1810338262075035  0.2342525413578969  0.3058956882835417  1.0000
  H   H10       1.0  0.31753289366550064  0.928789986603178  0.6943915381178059  1.0000
  H   H11       1.0  0.8189661163054042  0.7657528127085557  0.6941052949655528  1.0000
  H   H12       1.0  0.6824785517001642  0.07120370618833496  0.3056101848655857  1.0000
  H   H13       1.0  0.062481924714937506  0.2837889276669969  0.4311183104794338  1.0000
  H   H14       1.0  0.4368427950751013  0.8537113034485913  0.5693926860651642  1.0000
  H   H15       1.0  0.9375253403563519  0.7162202059659818  0.5688873674071714  1.0000
  H   H16       1.0  0.5631685687466472  0.14628249470281673  0.4306059838980048  1.0000
  H   H17       1.0  0.05826360345771771  0.43122394716348106  0.35621735984882  1.0000
  H   H18       1.0  0.44134497060515804  0.075947641044813  0.6446318441971498  1.0000
  H   H19       1.0  0.9417263205721013  0.5687825909496667  0.6437853214395304  1.0000
  H   H20       1.0  0.5586578335192414  0.924047322547409  0.3553693010516667  1.0000
  H   H21       1.0  0.2267531719605955  0.427382860970198  0.5946162845350216  1.0000
  H   H22       1.0  0.2737889614813085  0.8341097074659204  0.40573445007633774  1.0000
  H   H23       1.0  0.7732453651275648  0.5726380811058077  0.4053848653246916  1.0000
  H   H24       1.0  0.7262051901122817  0.16586829677279977  0.594266924409034  1.0000
  C   C1        1.0  0.6297595111404559  0.3738348337956269  0.1942175344978878  1.0000
  C   C2        1.0  0.8691063911453794  0.17988327389219447  0.805611080559892  1.0000
  C   C3        1.0  0.37024183029974006  0.6261679726142758  0.8057821605504569  1.0000
  C   C4        1.0  0.1308904772057033  0.8201092877528352  0.1943833637461053  1.0000
  C   C5        1.0  0.33893968545067577  0.4850615320593761  0.20887711408609277  1.0000
  C   C6        1.0  0.1606496490041494  0.2762358156291356  0.7910459080230724  1.0000
  C   C7        1.0  0.6610560260058521  0.5149384773036871  0.7911273288452563  1.0000
  C   C8        1.0  0.8393458351608416  0.7237501522553555  0.20895099122428454  1.0000
  C   C9        1.0  0.4835489883320463  0.43258576383882286  0.2689218598397431  1.0000
  C   C10       1.0  0.015633900831929302  0.16348404200287803  0.730983688059723  1.0000
  C   C11       1.0  0.5164523301231867  0.5674222850522597  0.7310766233175059  1.0000
  C   C12       1.0  0.9843631115204803  0.8365057271917209  0.2690163233496818  1.0000
  C   C13       1.0  0.48854901528623884  0.4613991204853106  0.3862277505865491  1.0000
  C   C14       1.0  0.010893033195522208  0.07497306184472309  0.6137919961565147  1.0000
  C   C15       1.0  0.5114520763242751  0.538614434286707  0.6137618881290406  1.0000
  C   C16       1.0  0.9891041613311843  0.9250190783606839  0.38621466023035816  1.0000
  C   C17       1.0  0.32976568437696596  0.4228913322710283  0.4402436840495056  1.0000
  C   C18       1.0  0.17004945585275522  0.9833175612013392  0.5599385520493527  1.0000
  C   C19       1.0  0.6702270826246775  0.5771217809967764  0.559757319543877  1.0000
  C   C20       1.0  0.8299590433117106  0.0166722962059964  0.4400608080357102  1.0000
  C   C21       1.0  0.1489489053136737  0.3382803489753882  0.3804220776685269  1.0000
  C   C22       1.0  0.3503399558008056  0.9586773207538284  0.6200343993780209  1.0000
  C   C23       1.0  0.8510540011874214  0.6617340302764702  0.6195815830979043  1.0000
  C   C24       1.0  0.6496614372540748  0.0413241157708342  0.3799673159669794  1.0000
  C   C25       1.0  0.34615353256381814  0.46212313798780974  0.5526655425930257  1.0000
  C   C26       1.0  0.15424406890762302  0.9103690041614311  0.4475356203218154  1.0000
  C   C27       1.0  0.6538537654824809  0.5379015913888239  0.4473403158955378  1.0000
  C   C28       1.0  0.8457528753425905  0.0896143370465765  0.5524622804899622  1.0000
  N   N1        1.0  0.5771125311105437  0.3943743257469805  0.09781462727710988  1.0000
  N   N2        1.0  0.9219627871754029  0.2971874550772569  0.9018888342506415  1.0000
  N   N3        1.0  0.4228929650400844  0.605623498443819  0.9021794523408672  1.0000
  N   N4        1.0  0.07803137310875741  0.7028139954568787  0.09811128462754937  1.0000
  N   N5        1.0  0.39761638213055056  0.4648564019852159  0.10780913586538075  1.0000
  N   N6        1.0  0.10194960597372932  0.35757289923018465  0.8919559513035367  1.0000
  N   N7        1.0  0.6023847701910795  0.5351375264073681  0.8921840933730322  1.0000
  N   N8        1.0  0.898050299665691  0.6424246833044263  0.1080441783895195  1.0000
