data_image0
_chemical_formula_structural       AlH9C24N3Cl3O6
_chemical_formula_sum              "Al1 H9 C24 N3 Cl3 O6"
_cell_length_a       3.9507683878914253
_cell_length_b       15.88989202446751
_cell_length_c       15.710764546888496
_cell_angle_alpha    60.097703174706005
_cell_angle_beta     83.34051724897552
_cell_angle_gamma    82.7763515603346

_space_group_name_H-M_alt    "P 1"
_space_group_IT_number       1

loop_
  _space_group_symop_operation_xyz
  'x, y, z'

loop_
  _atom_site_type_symbol
  _atom_site_label
  _atom_site_symmetry_multiplicity
  _atom_site_fract_x
  _atom_site_fract_y
  _atom_site_fract_z
  _atom_site_occupancy
  Al  Al1       1.0  0.01750170895751782  0.5017201933133534  0.49683084669767635  1.0000
  H   H1        1.0  0.4826004534277501  0.9575651350545656  0.13214991820221658  1.0000
  H   H2        1.0  0.5931994242565607  0.4053456300858187  0.9565337823341621  1.0000
  H   H3        1.0  0.6339639745335861  0.1291704703154508  0.41208794057573767  1.0000
  H   H4        1.0  0.5475569309455465  0.4905702557379001  0.23943551728525836  1.0000
  H   H5        1.0  0.5588313140284384  0.40314372225579836  0.1434092761189588  1.0000
  H   H6        1.0  0.39250357920737133  0.24767471623447784  0.7643935344773067  1.0000
  H   H7        1.0  0.431297008586256  0.14759106843780498  0.9472927686215867  1.0000
  H   H8        1.0  0.5028356955359499  0.7645575904500318  0.49644956767076553  1.0000
  H   H9        1.0  0.5383763829066411  0.9453387317471069  0.4099563070089472  1.0000
  C   C1        1.0  0.4836004174105639  0.651274140665528  0.41653376072987647  1.0000
  C   C2        1.0  0.583690870839952  0.4179249805334563  0.4294112000954371  1.0000
  C   C3        1.0  0.48578991727314486  0.43394796056944784  0.6480075060405139  1.0000
  C   C4        1.0  0.4810455374521893  0.7597844368713143  0.36284690689078014  1.0000
  C   C5        1.0  0.4843465207059764  0.3812352775237073  0.7573939941055199  1.0000
  C   C6        1.0  0.6050586784808657  0.3595945024768311  0.3781252946614515  1.0000
  C   C7        1.0  0.4747007527486318  0.8146466496197178  0.26003812879650906  1.0000
  C   C8        1.0  0.490396771251362  0.9150798971674378  0.21178550918848765  1.0000
  C   C9        1.0  0.5421286651032133  0.4255509854733361  0.8123237143986511  1.0000
  C   C10       1.0  0.5543516826534827  0.37060997542265267  0.9141230451903791  1.0000
  C   C11       1.0  0.633381882228406  0.2573397705187475  0.4265708655603005  1.0000
  C   C12       1.0  0.6248764082490794  0.20832226244983326  0.37401047710587665  1.0000
  C   C13       1.0  0.5753185410320755  0.4112468972394651  0.27592537148350965  1.0000
  C   C14       1.0  0.5790468420152308  0.3629739745877457  0.22273013035538708  1.0000
  C   C15       1.0  0.43863873122711544  0.2810836275878613  0.8076297847184931  1.0000
  C   C16       1.0  0.45991582760282057  0.22552411313651527  0.9088470062312693  1.0000
  C   C17       1.0  0.49970212061599983  0.8076473093547065  0.416537159763976  1.0000
  C   C18       1.0  0.5199275811637347  0.90783566067892  0.368782853787465  1.0000
  C   C19       1.0  0.5159288895765711  0.9622215795526967  0.2658766249607111  1.0000
  C   C20       1.0  0.5341388653332189  0.06892269724788488  0.21372863826965008  1.0000
  C   C21       1.0  0.5175382823131897  0.2703656566004327  0.9629227561933855  1.0000
  C   C22       1.0  0.5356702638413252  0.2136733639657677  0.07105192245936105  1.0000
  C   C23       1.0  0.5993234948535928  0.26073373866815786  0.27187076423992806  1.0000
  C   C24       1.0  0.580060453372667  0.2088289528035645  0.21654890688851208  1.0000
  N   N1        1.0  0.5137456441263453  0.11703437490434959  0.11537676546973324  1.0000
  N   N2        1.0  0.570410527498808  0.2628951290633736  0.11822383518021687  1.0000
  N   N3        1.0  0.5673907394556892  0.11154633207299008  0.26755564774757085  1.0000
  Cl  Cl1       1.0  0.4339024976054588  0.7586186581608415  0.19188118126557174  1.0000
  Cl  Cl2       1.0  0.6584469494886703  0.1893744285680867  0.5527327059025139  1.0000
  Cl  Cl3       1.0  0.5843428406810247  0.5490209911587128  0.7583925071938395  1.0000
  O   O1        1.0  0.2736803875934655  0.41149329000946705  0.6087860738790878  1.0000
  O   O2        1.0  0.23270253670259683  0.6131841964987924  0.4773021636637082  1.0000
  O   O3        1.0  0.33417862563440076  0.48318563560660965  0.4070826799324719  1.0000
  O   O4        1.0  0.7067002879935628  0.4959303634240157  0.6003710816711488  1.0000
  O   O5        1.0  0.8089566970319237  0.4022082010855286  0.4881620300926668  1.0000
  O   O6        1.0  0.7446115908792734  0.6049638455375614  0.3993992959324684  1.0000
