data_image0
_chemical_formula_structural       Zn2H32C40N18O8
_chemical_formula_sum              "Zn2 H32 C40 N18 O8"
_cell_length_a       10.2327213323938
_cell_length_b       10.991770186054412
_cell_length_c       12.260177981581634
_cell_angle_alpha    70.24269181660077
_cell_angle_beta     77.58965936576514
_cell_angle_gamma    80.99411296267424

_space_group_name_H-M_alt    "P 1"
_space_group_IT_number       1

loop_
  _space_group_symop_operation_xyz
  'x, y, z'

loop_
  _atom_site_type_symbol
  _atom_site_label
  _atom_site_symmetry_multiplicity
  _atom_site_fract_x
  _atom_site_fract_y
  _atom_site_fract_z
  _atom_site_occupancy
  Zn  Zn1       1.0  0.4951536543069325  0.8080553444714622  0.43242196176082354  1.0000
  Zn  Zn2       1.0  0.5048498907815784  0.19194423931434562  0.5675784643456508  1.0000
  H   H1        1.0  0.7496968829630077  0.272298296063326  0.11184397703358673  1.0000
  H   H2        1.0  0.2503027369297399  0.7277003321878085  0.8881582283153403  1.0000
  H   H3        1.0  0.6525114748244151  0.30838082956670126  0.23532200568864428  1.0000
  H   H4        1.0  0.3474903135765998  0.6916158531484484  0.7646812357641151  1.0000
  H   H5        1.0  0.6246535651642446  0.07663239501179218  0.36963067414109924  1.0000
  H   H6        1.0  0.3753418844429036  0.9233681852023066  0.6303708362408428  1.0000
  H   H7        1.0  0.42643391807821734  0.9587658522304847  0.15888703094763917  1.0000
  H   H8        1.0  0.5735664576133601  0.041235680304801306  0.841112529623423  1.0000
  H   H9        1.0  0.31034878052124526  0.45748943440148093  0.277855555914165  1.0000
  H   H10       1.0  0.68964974009765  0.5425101701152002  0.7221473564281239  1.0000
  H   H11       1.0  0.43936617428731484  0.33232005207278803  0.30048084164075556  1.0000
  H   H12       1.0  0.5606327198460407  0.667675664899079  0.6995215583954817  1.0000
  H   H13       1.0  0.3214134344965203  0.6202325459354869  0.3808271748275941  1.0000
  H   H14       1.0  0.6785893064737037  0.37976509495970845  0.6191723489974235  1.0000
  H   H15       1.0  0.7409371492230934  0.6197825898459969  0.3294761441112824  1.0000
  H   H16       1.0  0.2590648259351553  0.38021214909674234  0.6705268411884543  1.0000
  H   H17       1.0  0.7014707216786178  0.3380495888920692  0.8163686673848644  1.0000
  H   H18       1.0  0.2985295255883359  0.6619529236903857  0.1836338797016879  1.0000
  H   H19       1.0  0.7070928714076885  0.23471951903297852  0.9596499448649779  1.0000
  H   H20       1.0  0.2929065517146867  0.7652810553222692  0.04035333333382599  1.0000
  H   H21       1.0  0.9521285038281774  0.1884947460404192  0.9887667593959648  1.0000
  H   H22       1.0  0.04786843684730967  0.811500015964896  0.01123952883643391  1.0000
  H   H23       1.0  0.0753145613461115  0.5609534005447543  0.8058518436931832  1.0000
  H   H24       1.0  0.9246968353771765  0.4390374126049324  0.1941458273972926  1.0000
  H   H25       1.0  0.006140571136711508  0.811649661450147  0.3991158197079513  1.0000
  H   H26       1.0  0.9938503364166421  0.18835770800676246  0.6008778774694931  1.0000
  H   H27       1.0  0.7114835008310578  0.8290771129361262  0.7028472267469537  1.0000
  H   H28       1.0  0.28852200598219474  0.1709224737495205  0.2971561250100762  1.0000
  H   H29       1.0  0.8913886522780601  0.8440808092450286  0.8040974486924738  1.0000
  H   H30       1.0  0.10862362692240879  0.1559109784066237  0.1959022216482182  1.0000
  H   H31       1.0  0.13049295624580273  0.8438034811841748  0.7008074251483477  1.0000
  H   H32       1.0  0.8695161653171438  0.1561912026202776  0.29918293241652094  1.0000
  C   C1        1.0  0.5685774723921568  0.396057122877373  0.07520352086358172  1.0000
  C   C2        1.0  0.43142503175510444  0.6039424734487469  0.9248003425987077  1.0000
  C   C3        1.0  0.461603314758058  0.4705854986151083  0.12245359825723766  1.0000
  C   C4        1.0  0.53839819851369  0.5294140985927954  0.8775496190766245  1.0000
  C   C5        1.0  0.605840161719094  0.4238118022788698  0.9527795555942615  1.0000
  C   C6        1.0  0.394162352441313  0.5761877917155473  0.04722349117118086  1.0000
  C   C7        1.0  0.6459255000926875  0.2867374870266133  0.15578392805850427  1.0000
  C   C8        1.0  0.3540760231922064  0.7132621078495875  0.8442184725785109  1.0000
  C   C9        1.0  0.5816740944845833  0.07039385107382398  0.2980738166031713  1.0000
  C   C10       1.0  0.41832227765233654  0.9296076943154363  0.7019264262415841  1.0000
  C   C11       1.0  0.4826765335799692  0.0146083718770171  0.18762913926093464  1.0000
  C   C12       1.0  0.517322831209796  0.9853931662034653  0.8123714085754016  1.0000
  C   C13       1.0  0.41904044051283756  0.4359275212396201  0.25436870182382876  1.0000
  C   C14       1.0  0.5809592577388116  0.56407013862286  0.7456346004938651  1.0000
  C   C15       1.0  0.42845168165189307  0.5954716722429724  0.3586372111860569  1.0000
  C   C16       1.0  0.5715499500313329  0.4045269472494725  0.6413638363291695  1.0000
  C   C17       1.0  0.642891612712809  0.5930739859717492  0.3304388964596256  1.0000
  C   C18       1.0  0.35710927318472585  0.4069217269048337  0.6695639791366188  1.0000
  C   C19       1.0  0.7143335534350541  0.335860142727256  0.9034387993032664  1.0000
  C   C20       1.0  0.28566997162716495  0.6641394457219576  0.09656326019690907  1.0000
  C   C21       1.0  0.956666105697302  0.2906883619378107  0.9382500375916434  1.0000
  C   C22       1.0  0.0433319342520377  0.7093054238019576  0.06175554364739357  1.0000
  C   C23       1.0  0.015058651775902389  0.4788280055824999  0.8450910649031724  1.0000
  C   C24       1.0  0.9849485546354869  0.521164764193557  0.15490754461401943  1.0000
  C   C25       1.0  0.0834093903506954  0.8265679926013689  0.5439613828892078  1.0000
  C   C26       1.0  0.9165877293181737  0.1734374091387707  0.4560294013309799  1.0000
  C   C27       1.0  0.9813637029220887  0.8185330982647442  0.4879114326789206  1.0000
  C   C28       1.0  0.018626115370558697  0.18147524512600202  0.5120821547950313  1.0000
  C   C29       1.0  0.847432282291358  0.8190939653932432  0.544722315063339  1.0000
  C   C30       1.0  0.15256338286921792  0.18091534575881954  0.4552756856061108  1.0000
  C   C31       1.0  0.8157336569798731  0.8286438092640367  0.6587440473756627  1.0000
  C   C32       1.0  0.1842708506909929  0.171356730370114  0.34125184440622286  1.0000
  C   C33       1.0  0.9170074404754515  0.8375329804426458  0.7151104505786632  1.0000
  C   C34       1.0  0.08299722391321042  0.16246562241421714  0.2848876351407483  1.0000
  C   C35       1.0  0.05042031554010147  0.8364721761854245  0.6580499603966457  1.0000
  C   C36       1.0  0.9495850763542178  0.16353028768571684  0.34194030009189197  1.0000
  C   C37       1.0  0.22536989981319516  0.822151740052192  0.48065788029307993  1.0000
  C   C38       1.0  0.7746267196628552  0.1778594790149413  0.5193287722050712  1.0000
  C   C39       1.0  0.7421331631259845  0.8083482024603867  0.48118802760904333  1.0000
  C   C40       1.0  0.25786047848469457  0.1916601700470579  0.5188195781345186  1.0000
  N   N1        1.0  0.5174215987620414  0.9742513813807819  0.29668727670760825  1.0000
  N   N2        1.0  0.4825747633617327  0.0257501663401811  0.7033137828340016  1.0000
  N   N3        1.0  0.584372861574998  0.16398995287961068  0.19385862102237186  1.0000
  N   N4        1.0  0.41562650321476713  0.8360115852008722  0.8061419268139642  1.0000
  N   N5        1.0  0.5225041758893667  0.1300811951700069  0.12134301455343177  1.0000
  N   N6        1.0  0.4774953856707782  0.8699183968063695  0.8786564604330348  1.0000
  N   N7        1.0  0.5257353533600551  0.6504530060787772  0.37760316109384445  1.0000
  N   N8        1.0  0.47426635668206535  0.3495446450250199  0.6223989833901482  1.0000
  N   N9        1.0  0.4855373388599631  0.5098113794558329  0.30263958713614864  1.0000
  N   N10       1.0  0.5144624377505737  0.4901853120179993  0.6973648121502973  1.0000
  N   N11       1.0  0.6222058209096203  0.5066908901785254  0.2838169204421419  1.0000
  N   N12       1.0  0.3777920623219232  0.49330483233854494  0.7161864668593693  1.0000
  N   N13       1.0  0.06287860191927311  0.3582357132324177  0.9087730150609656  1.0000
  N   N14       1.0  0.9371238551517747  0.6417541627817585  0.09122810481093782  1.0000
  N   N15       1.0  0.8503220668572666  0.3676215073082858  0.8945110032761008  1.0000
  N   N16       1.0  0.14968169328164288  0.6323751759749925  0.10549434713036014  1.0000
  N   N17       1.0  0.8865772584815445  0.48931055555556213  0.8337531488025859  1.0000
  N   N18       1.0  0.1134286318593283  0.5106851412535605  0.16624887395153817  1.0000
  O   O1        1.0  0.3191017264356689  0.8165476700329606  0.5400717563426908  1.0000
  O   O2        1.0  0.6808977302186818  0.18345479679721421  0.4599138106784366  1.0000
  O   O3        1.0  0.2510204044303848  0.8209136969536601  0.3761591349289262  1.0000
  O   O4        1.0  0.7489743204234288  0.1791072348621796  0.6238257021153685  1.0000
  O   O5        1.0  0.7742470294800511  0.7940854902892198  0.38158695765355327  1.0000
  O   O6        1.0  0.22573400413187977  0.20591902945370322  0.6184199030829092  1.0000
  O   O7        1.0  0.6175499883766733  0.8152020067450041  0.5357116137036113  1.0000
  O   O8        1.0  0.38244334981156675  0.18481023698532084  0.4642907874680444  1.0000
