data_image0
_chemical_formula_structural       Zn16H32C112S8Cl8O52F16
_chemical_formula_sum              "Zn16 H32 C112 S8 Cl8 O52 F16"
_cell_length_a       18.56463711062883
_cell_length_b       19.74595854338301
_cell_length_c       32.8531228747599
_cell_angle_alpha    86.01084979458211
_cell_angle_beta     73.58702781804612
_cell_angle_gamma    61.95547870083907

_space_group_name_H-M_alt    "P 1"
_space_group_IT_number       1

loop_
  _space_group_symop_operation_xyz
  'x, y, z'

loop_
  _atom_site_type_symbol
  _atom_site_label
  _atom_site_symmetry_multiplicity
  _atom_site_fract_x
  _atom_site_fract_y
  _atom_site_fract_z
  _atom_site_occupancy
  Zn  Zn1       1.0  0.8742956801399444  0.5560659372236714  0.5188237106271886  1.0000
  Zn  Zn2       1.0  0.03834382179444167  0.4849394097269837  0.43853071242514846  1.0000
  Zn  Zn3       1.0  0.04190857848433891  0.39797613200017423  0.5235487278984368  1.0000
  Zn  Zn4       1.0  0.046776157863334375  0.5601851001536173  0.518503384797164  1.0000
  Zn  Zn5       1.0  0.6242349811358567  0.19183107805942967  0.7325128080684069  1.0000
  Zn  Zn6       1.0  0.4646095973878064  0.3499977318672549  0.7257464973608381  1.0000
  Zn  Zn7       1.0  0.4578814247349286  0.26582433634099795  0.8127844395374669  1.0000
  Zn  Zn8       1.0  0.45295190486273645  0.19223420794087076  0.7291829908908913  1.0000
  Zn  Zn9       1.0  0.46285545896027713  0.7621215037523754  0.3127534123154449  1.0000
  Zn  Zn10      1.0  0.4536569829846828  0.6927162984146233  0.23076385826871618  1.0000
  Zn  Zn11      1.0  0.6256417859726896  0.6924951850003324  0.2290297819114074  1.0000
  Zn  Zn12      1.0  0.45832804079628214  0.8521335342532622  0.22653836841541874  1.0000
  Zn  Zn13      1.0  0.03516364340512019  0.9000344416349078  0.024370348332034608  1.0000
  Zn  Zn14      1.0  0.051002026879572816  0.0560606955500305  0.018554950136305606  1.0000
  Zn  Zn15      1.0  0.8759124075243676  0.059673778035481496  0.019840926063103847  1.0000
  Zn  Zn16      1.0  0.03672457829830491  0.9842019471619352  0.9372269681999089  1.0000
  H   H1        1.0  0.5427392451106742  0.48273454562487217  0.6216083727743896  1.0000
  H   H2        1.0  0.5480443332732604  0.5227569905585341  0.6669621256861764  1.0000
  H   H3        1.0  0.6440253154578033  0.5709286325526791  0.618931030650977  1.0000
  H   H4        1.0  0.6387358983373378  0.530829620934817  0.5735668182699956  1.0000
  H   H5        1.0  0.3529892228964402  0.6738273014196992  0.4308303143002308  1.0000
  H   H6        1.0  0.2622971999242623  0.7620474128370631  0.4282232209507344  1.0000
  H   H7        1.0  0.16610213214386954  0.7140435378958615  0.47620968945025083  1.0000
  H   H8        1.0  0.25674115350283006  0.6258983394884721  0.4788411804808208  1.0000
  H   H9        1.0  0.5474416201011822  0.7621734364827262  0.42808418165949313  1.0000
  H   H10       1.0  0.5423349197536711  0.6739832114837155  0.43065209928735043  1.0000
  H   H11       1.0  0.6383837892584625  0.6258932978299967  0.47864783399890615  1.0000
  H   H12       1.0  0.6436214498449144  0.714012999370624  0.4761278215962365  1.0000
  H   H13       1.0  0.3337687746982923  0.17927134225023172  0.6310984235889167  1.0000
  H   H14       1.0  0.24314022520496795  0.21918997466302406  0.6764795459812308  1.0000
  H   H15       1.0  0.14695855606118619  0.267265366587324  0.6284550860653442  1.0000
  H   H16       1.0  0.2376776061171527  0.22726981362858106  0.5831078983366356  1.0000
  H   H17       1.0  0.9572019552838996  0.07633575374946129  0.8193282991824024  1.0000
  H   H18       1.0  0.9519371409222188  0.988289450925258  0.8219615928718018  1.0000
  H   H19       1.0  0.8558907197342267  0.036218375470952004  0.773936998958867  1.0000
  H   H20       1.0  0.8610820812466713  0.12432472043035858  0.7712782313997412  1.0000
  H   H21       1.0  0.16615769041008832  0.21374674165144106  0.9760095978209057  1.0000
  H   H22       1.0  0.2569315764820602  0.1256704755054656  0.9786220892576413  1.0000
  H   H23       1.0  0.35293071430054823  0.1737207847556093  0.9306015497094937  1.0000
  H   H24       1.0  0.2622250716401667  0.2617532790972703  0.927979759126814  1.0000
  H   H25       1.0  0.25692127184805  0.031098217408711507  0.07348248285664744  1.0000
  H   H26       1.0  0.1660319718409724  0.07128519877650769  0.11880016687202043  1.0000
  H   H27       1.0  0.26201193732970307  0.0231624434453508  0.16689901256254566  1.0000
  H   H28       1.0  0.35279178258143423  0.9830690620518822  0.12159332664637656  1.0000
  H   H29       1.0  0.951952115069034  0.7270257687545438  0.08311156839520353  1.0000
  H   H30       1.0  0.9572719275128067  0.7671084852017885  0.12843906720811302  1.0000
  H   H31       1.0  0.8612575688216991  0.719073354101134  0.1765030803093667  1.0000
  H   H32       1.0  0.8559524556637612  0.6789601924673221  0.13118459512686798  1.0000
  C   C1        1.0  0.8624958006807829  0.5682201280899193  0.43111479544659687  1.0000
  C   C2        1.0  0.12335436939329016  0.3155672601977528  0.43861303957834974  1.0000
  C   C3        1.0  0.8633687133726229  0.4305111013787267  0.5685537276497005  1.0000
  C   C4        1.0  0.13801489293903305  0.4320053354942814  0.5684558418780628  1.0000
  C   C5        1.0  0.8765153062955947  0.6839925870706905  0.5609500242394819  1.0000
  C   C6        1.0  0.13746208371051694  0.5689173029837776  0.4309627968891407  1.0000
  C   C7        1.0  0.638658381539763  0.3179707516086906  0.6814040480771484  1.0000
  C   C8        1.0  0.3773395523487864  0.4342809363040486  0.8110963641139937  1.0000
  C   C9        1.0  0.6363111463343999  0.18152257481276018  0.8193483712258786  1.0000
  C   C10       1.0  0.3619588419215561  0.18121150520924087  0.8182556772640415  1.0000
  C   C11       1.0  0.6231302660313176  0.06597100218711921  0.688606486586018  1.0000
  C   C12       1.0  0.36330321623559303  0.319246657758498  0.6808238048232982  1.0000
  C   C13       1.0  0.3630318454564971  0.6807347025412582  0.31872465154838664  1.0000
  C   C14       1.0  0.622906770351868  0.5659121602787709  0.18832849825220432  1.0000
  C   C15       1.0  0.6379239255242127  0.6808313482911714  0.3183756499918503  1.0000
  C   C16       1.0  0.6364695757280858  0.8193994889391192  0.18097351630424907  1.0000
  C   C17       1.0  0.37703177447760766  0.9331302152041804  0.3117296600728424  1.0000
  C   C18       1.0  0.3620154854364445  0.8185544814472222  0.1812295477611699  1.0000
  C   C19       1.0  0.13733973565276625  0.9307950218380229  0.06867818824721182  1.0000
  C   C20       1.0  0.8790624492007665  0.18390129422412832  0.06128469370231933  1.0000
  C   C21       1.0  0.861519764577068  0.9319190350811865  0.06890330759429736  1.0000
  C   C22       1.0  0.8618322613163228  0.06908539988193499  0.9314748025353273  1.0000
  C   C23       1.0  0.12156967006309582  0.8158078891295871  0.9389198367264985  1.0000
  C   C24       1.0  0.137512338991705  0.0681714919608183  0.9309323673242464  1.0000
  C   C25       1.0  0.7374478522612552  0.8028955763418891  0.6009990855453682  1.0000
  C   C26       1.0  0.7623294757706419  0.9467370136961859  0.6490186325752919  1.0000
  C   C27       1.0  0.8255372820060457  0.7584682031433446  0.5861259714850179  1.0000
  C   C28       1.0  0.6741837030947837  0.991183295602113  0.663762637705702  1.0000
  C   C29       1.0  0.7853752905162212  0.8780411632136876  0.6260748834911142  1.0000
  C   C30       1.0  0.7144051912042217  0.8715940642745181  0.6238956469115566  1.0000
  C   C31       1.0  0.20206567597084293  0.2267185820239916  0.3689870306613161  1.0000
  C   C32       1.0  0.2982574029431079  0.022371650204348704  0.3812759381293065  1.0000
  C   C33       1.0  0.17266396865053224  0.24159049121926296  0.41309629871228304  1.0000
  C   C34       1.0  0.327744730213368  0.007256134323469602  0.3372295736566644  1.0000
  C   C35       1.0  0.252428790947434  0.10238838245157918  0.3928495610200999  1.0000
  C   C36       1.0  0.24793971813794255  0.14661445448986396  0.35742332505057584  1.0000
  C   C37       1.0  0.6967090048958655  0.34488980211275333  0.6528615955037724  1.0000
  C   C38       1.0  0.8080459885093915  0.40079019055464477  0.5970769547838446  1.0000
  C   C39       1.0  0.6662341358208154  0.41721047777586756  0.6364048170693624  1.0000
  C   C40       1.0  0.8396429492035297  0.3276775027982737  0.6134607896626536  1.0000
  C   C41       1.0  0.7192494111344062  0.4438050235483431  0.6098560687948551  1.0000
  C   C42       1.0  0.7862059255531618  0.3008366067401056  0.6402079516280994  1.0000
  C   C43       1.0  0.585574058227529  0.49014074208923825  0.6359517279607092  1.0000
  C   C44       1.0  0.6457118190902662  0.5203177509333727  0.6058584336558399  1.0000
  C   C45       1.0  0.3058183097818273  0.6520945747828364  0.3462867645251536  1.0000
  C   C46       1.0  0.19423430512239276  0.5964643390553094  0.4019098180903386  1.0000
  C   C47       1.0  0.2802035867861933  0.6635883701000793  0.3906494761079033  1.0000
  C   C48       1.0  0.21956244090950608  0.5843570243531317  0.3571514218534589  1.0000
  C   C49       1.0  0.22707417602651953  0.6371367621191838  0.4171362950757927  1.0000
  C   C50       1.0  0.27311967159732115  0.6111513703057485  0.3304147977823748  1.0000
  C   C51       1.0  0.2883623403989122  0.6992265278291825  0.4273836626435499  1.0000
  C   C52       1.0  0.2280942215007259  0.6691426087432362  0.45745476855346834  1.0000
  C   C53       1.0  0.6960804705300417  0.6521581507747953  0.3460856980619626  1.0000
  C   C54       1.0  0.8073759039582599  0.5963301278875974  0.40195493596155546  1.0000
  C   C55       1.0  0.665649281794636  0.6636845050962988  0.3904744840541456  1.0000
  C   C56       1.0  0.8390766822168987  0.5843375669080118  0.357191733403397  1.0000
  C   C57       1.0  0.7186334888081306  0.6371371464534051  0.41703411673624674  1.0000
  C   C58       1.0  0.7855790391141609  0.611197831994744  0.33039061642432455  1.0000
  C   C59       1.0  0.5850338514687935  0.6993484094507493  0.42720801022524324  1.0000
  C   C60       1.0  0.6452407046403008  0.6691949865821202  0.45731984178825535  1.0000
  C   C61       1.0  0.3058795340362793  0.34933048090234553  0.6527838686017379  1.0000
  C   C62       1.0  0.19431677686542767  0.4051530020959078  0.5970755981431781  1.0000
  C   C63       1.0  0.2727281081614167  0.30634008088335196  0.6401393810799761  1.0000
  C   C64       1.0  0.22706473476175396  0.44926288621062593  0.6097121021372376  1.0000
  C   C65       1.0  0.21961282493290216  0.3329008398062854  0.6136119434595175  1.0000
  C   C66       1.0  0.28059972567653096  0.4224885553751179  0.6364426805371581  1.0000
  C   C67       1.0  0.27175296676964683  0.22982515217560717  0.644193762196551  1.0000
  C   C68       1.0  0.21152262832766414  0.25992867157654587  0.6141106566203336  1.0000
  C   C69       1.0  0.2981413375362721  0.5831897277358137  0.8208676516731688  1.0000
  C   C70       1.0  0.20197351849188303  0.66689121196503  0.9291922296854414  1.0000
  C   C71       1.0  0.32758451980932796  0.509555671845817  0.8353829193462093  1.0000
  C   C72       1.0  0.1722919462931358  0.7404935210661421  0.9146539463280949  1.0000
  C   C73       1.0  0.2478713742368726  0.6095213937547328  0.8949270122179416  1.0000
  C   C74       1.0  0.2522995378416583  0.640565158983037  0.8551057294169842  1.0000
  C   C75       1.0  0.8035543715575886  0.09818947990070369  0.9038760157944741  1.0000
  C   C76       1.0  0.6918376899554132  0.1538856022559756  0.8483124949237822  1.0000
  C   C77       1.0  0.8338002880852002  0.08674947873366529  0.8594975264459568  1.0000
  C   C78       1.0  0.6604539410761917  0.16586995679783456  0.8930483257466482  1.0000
  C   C79       1.0  0.7806579651721961  0.1132833652014469  0.8330026498537966  1.0000
  C   C80       1.0  0.714055833430798  0.13918296573121583  0.9197589905201373  1.0000
  C   C81       1.0  0.9143766549003589  0.0511023642863506  0.8227847247548543  1.0000
  C   C82       1.0  0.854145629878694  0.08116617046405139  0.7926979622609385  1.0000
  C   C83       1.0  0.1940726664947547  0.09606569711848321  0.9018175445751526  1.0000
  C   C84       1.0  0.30550387290903563  0.1518583363834978  0.8460000006459014  1.0000
  C   C85       1.0  0.22711035941063792  0.13667956954234478  0.916957472074238  1.0000
  C   C86       1.0  0.2727085627546586  0.1108578607457886  0.8302917202232581  1.0000
  C   C87       1.0  0.28015242317651723  0.16325392339526704  0.890397713101486  1.0000
  C   C88       1.0  0.21918609934171943  0.08414022494624619  0.8570675852388168  1.0000
  C   C89       1.0  0.22815738519058465  0.16884741598583022  0.9572305660268445  1.0000
  C   C90       1.0  0.28836066492242207  0.1989351498817413  0.9271169762762956  1.0000
  C   C91       1.0  0.6423814365297603  0.44670491488382413  0.14896308586180862  1.0000
  C   C92       1.0  0.8591846362774691  0.3029871413929967  0.10098505303763264  1.0000
  C   C93       1.0  0.6714903163857713  0.49107575909989976  0.16368417506573973  1.0000
  C   C94       1.0  0.8303832113349897  0.25856397387167357  0.0861584458261363  1.0000
  C   C95       1.0  0.7906171321035346  0.3715973489288729  0.12389053194943508  1.0000
  C   C96       1.0  0.7110380832632329  0.37800208456425105  0.1260580396530103  1.0000
  C   C97       1.0  0.19404802631605386  0.9010661789436581  0.09705857808922502  1.0000
  C   C98       1.0  0.3054436633235796  0.8453836240268939  0.15279933340774227  1.0000
  C   C99       1.0  0.22698156924412421  0.9441720767868061  0.10978822765155638  1.0000
  C   C100      1.0  0.2727932618312892  0.8011357523798422  0.14017970475713787  1.0000
  C   C101      1.0  0.2799643334838534  0.9176609698924879  0.13634957098467038  1.0000
  C   C102      1.0  0.21922807263572258  0.8279422593679087  0.11344098767413166  1.0000
  C   C103      1.0  0.2280332109722707  0.020663217449126095  0.10576153246719854  1.0000
  C   C104      1.0  0.2881778499942485  0.9905297985014697  0.13589378687614584  1.0000
  C   C105      1.0  0.8033896983751845  0.9049145106638434  0.09715224914550905  1.0000
  C   C106      1.0  0.6919119776610074  0.849257990522986  0.15281153780780704  1.0000
  C   C107      1.0  0.8338066502185985  0.832597248979354  0.1136010704121162  1.0000
  C   C108      1.0  0.6603988202163296  0.9224048895725971  0.13648165536420728  1.0000
  C   C109      1.0  0.7807269377245236  0.8060791450238227  0.14013518624742735  1.0000
  C   C110      1.0  0.7139096094848798  0.9491676042345174  0.10974649576449744  1.0000
  C   C111      1.0  0.9144117408903725  0.7596949087121628  0.11411499133827625  1.0000
  C   C112      1.0  0.8542327445144126  0.7295939454875293  0.14422923628954015  1.0000
  S   S1        1.0  0.8799599129777536  0.8006712068546733  0.6002384779217211  1.0000
  S   S2        1.0  0.6198018313058496  0.9489807599800602  0.6496293053351112  1.0000
  S   S3        1.0  0.20096481656555906  0.1580010650979062  0.4402091503201931  1.0000
  S   S4        1.0  0.29949368943702837  0.09083619843686108  0.3100860500000523  1.0000
  S   S5        1.0  0.2992691008301875  0.5106701578843058  0.8907477633427877  1.0000
  S   S6        1.0  0.20067870556396633  0.7394383529655926  0.8593022585744595  1.0000
  S   S7        1.0  0.7821769041209379  0.4489003163623551  0.1496264048658845  1.0000
  S   S8        1.0  0.7196478345288001  0.300647477089946  0.10023678799498015  1.0000
  Cl  Cl1       1.0  0.6625812322125099  0.7814941490034855  0.5938315481533681  1.0000
  Cl  Cl2       1.0  0.8370289736041273  0.9683239087730227  0.6561156367877747  1.0000
  Cl  Cl3       1.0  0.18768150619931845  0.2927962127289732  0.33174852437399965  1.0000
  Cl  Cl4       1.0  0.31255491721346107  0.956317639349095  0.41868075718058884  1.0000
  Cl  Cl5       1.0  0.3123423574849937  0.6061459173930075  0.769156717704988  1.0000
  Cl  Cl6       1.0  0.1876597122716179  0.6439435531293894  0.9808827327901927  1.0000
  Cl  Cl7       1.0  0.5390842173119952  0.468266008698478  0.15612781445677376  1.0000
  Cl  Cl8       1.0  0.9626358144626507  0.2815457040348903  0.09382105230658777  1.0000
  O   O1        1.0  0.9993713257368809  0.5002113447168668  0.5009132435598647  1.0000
  O   O2        1.0  0.8237258723211979  0.5840848447768465  0.4709106737016315  1.0000
  O   O3        1.0  0.10247873104830062  0.3761824651188519  0.4184641903824728  1.0000
  O   O4        1.0  0.9433938942706136  0.3872493737981627  0.5586346817284212  1.0000
  O   O5        1.0  0.9424285808563515  0.5311661756417861  0.41434826021768617  1.0000
  O   O6        1.0  0.8241426065731691  0.4979606143933851  0.5565250830699001  1.0000
  O   O7        1.0  0.10593610263302367  0.3120676796363142  0.47912926399374123  1.0000
  O   O8        1.0  0.11551917292189268  0.3840474899043116  0.5595703349785242  1.0000
  O   O9        1.0  0.9574186522757415  0.6572431103068296  0.5513425554066276  1.0000
  O   O10       1.0  0.11742045246111132  0.498966772480813  0.5554057664450058  1.0000
  O   O11       1.0  0.8364625887503793  0.6531679179580651  0.5510042078481948  1.0000
  O   O12       1.0  0.11225950774954904  0.5309683238862702  0.41421898512219024  1.0000
  O   O13       1.0  0.11902311733174298  0.5862242085399954  0.4706967609603014  1.0000
  O   O14       1.0  0.4993368741501031  0.24968685044841268  0.7502636183964744  1.0000
  O   O15       1.0  0.6718889719159975  0.2512442503155512  0.694720408084891  1.0000
  O   O16       1.0  0.3993065223805202  0.4340800799827136  0.7706943602726928  1.0000
  O   O17       1.0  0.5562395215648338  0.2186138734069587  0.8358770127453784  1.0000
  O   O18       1.0  0.5592414369301083  0.36562727067986595  0.6900001514860679  1.0000
  O   O19       1.0  0.675517889483686  0.1648758780557813  0.7796370951704437  1.0000
  O   O20       1.0  0.3940763603925319  0.3754453733606411  0.8331972866162193  1.0000
  O   O21       1.0  0.38448428624595726  0.21853145113239242  0.8377692893483658  1.0000
  O   O22       1.0  0.5421895707903347  0.09423357499787238  0.6969818622220674  1.0000
  O   O23       1.0  0.38269626259683065  0.1671615306895404  0.7782472965869334  1.0000
  O   O24       1.0  0.663293900210313  0.09569873455708938  0.6994889897403029  1.0000
  O   O25       1.0  0.3898391929800056  0.36273434632934  0.6908445699068512  1.0000
  O   O26       1.0  0.38091977107470854  0.2512848091170738  0.6922590507216813  1.0000
  O   O27       1.0  0.500727863340842  0.7508615910662612  0.25026031778163843  1.0000
  O   O28       1.0  0.3869591459679  0.7169902657589518  0.338116320808851  1.0000
  O   O29       1.0  0.5421262313767273  0.5959364751311328  0.19868010347158827  1.0000
  O   O30       1.0  0.6712691915471609  0.6675408704690894  0.27838624404571294  1.0000
  O   O31       1.0  0.3832835687370136  0.6668823288967901  0.2787669375384781  1.0000
  O   O32       1.0  0.5584284413398136  0.7166375223565353  0.33799083867418755  1.0000
  O   O33       1.0  0.6668604379834452  0.594203014118648  0.19712109279257112  1.0000
  O   O34       1.0  0.6755402179973587  0.7513578988831996  0.19229760613723107  1.0000
  O   O35       1.0  0.3941120969350682  0.937209508748658  0.27128950636141985  1.0000
  O   O36       1.0  0.5564195930690515  0.8629741416136623  0.19122728373221082  1.0000
  O   O37       1.0  0.3979424331377787  0.8723603121971948  0.3317758001521228  1.0000
  O   O38       1.0  0.383255962167631  0.7512355890625243  0.1937905331942106  1.0000
  O   O39       1.0  0.3842980429093502  0.8664325884714117  0.19049887631683057  1.0000
  O   O40       1.0  0.0007240476879104978  0.00019051137059730364  0.9996497802904831  1.0000
  O   O41       1.0  0.11011925334520373  0.887605006850073  0.059041993916771715  1.0000
  O   O42       1.0  0.9599385847182659  0.15307310386164366  0.05100790805817472  1.0000
  O   O43       1.0  0.828408180463136  0.999212738469886  0.05626399313422328  1.0000
  O   O44       1.0  0.12113746002300008  0.9981327683604422  0.05647604066370355  1.0000
  O   O45       1.0  0.9409172916393372  0.8839353918497395  0.05989461382836944  1.0000
  O   O46       1.0  0.8343722504883148  0.1567563645563226  0.05224935505595603  1.0000
  O   O47       1.0  0.8285387447138745  0.08402379972798711  0.9714107659969221  1.0000
  O   O48       1.0  0.10276326790057047  0.8745873627927311  0.9167443931576291  1.0000
  O   O49       1.0  0.9412049159881022  0.031226820879247396  0.9120148861691537  1.0000
  O   O50       1.0  0.10081731108077459  0.8160247130832303  0.9793046187410542  1.0000
  O   O51       1.0  0.12126007956148045  0.08389565972940008  0.9706604402333103  1.0000
  O   O52       1.0  0.1106362121784272  0.0316864428226822  0.9142534966753292  1.0000
  F   F1        1.0  0.9238711042678532  0.2788663355449684  0.6043283758062049  1.0000
  F   F2        1.0  0.8260085579144204  0.2297226444257845  0.6532888943715212  1.0000
  F   F3        1.0  0.193570112063732  0.5461201831485738  0.33728872370281965  1.0000
  F   F4        1.0  0.29154465282043446  0.5951909723423369  0.28836066972880303  1.0000
  F   F5        1.0  0.9231964550715402  0.5460478310639231  0.3373790754324093  1.0000
  F   F6        1.0  0.8253633814011251  0.595213407591949  0.28832082814415144  1.0000
  F   F7        1.0  0.2088959947082999  0.5203432565702357  0.5965465655339914  1.0000
  F   F8        1.0  0.3068912212411379  0.47135619831082204  0.6455280343122995  1.0000
  F   F9        1.0  0.5762491675779629  0.2039321630926594  0.9129163104918167  1.0000
  F   F10       1.0  0.674457676442934  0.15505118484352212  0.9618308861512337  1.0000
  F   F11       1.0  0.2909373610531105  0.09495413467290349  0.788180291021668  1.0000
  F   F12       1.0  0.19294030647183288  0.0460161552576821  0.8372057422653969  1.0000
  F   F13       1.0  0.29104278086314395  0.7301020867640915  0.15325333632202398  1.0000
  F   F14       1.0  0.1930712824475762  0.7790661738644219  0.10428003226275719  1.0000
  F   F15       1.0  0.57616964231881  0.9712903581557839  0.1456317264968164  1.0000
  F   F16       1.0  0.6743161710458382  0.020205671651254406  0.09662897263987706  1.0000
