data_image0
_chemical_formula_structural       CuB2H18C4N22
_chemical_formula_sum              "Cu1 B2 H18 C4 N22"
_cell_length_a       6.502457727882028
_cell_length_b       7.181145043363866
_cell_length_c       9.641416205758876
_cell_angle_alpha    74.58749119236259
_cell_angle_beta     82.20347531539086
_cell_angle_gamma    79.79433376242372

_space_group_name_H-M_alt    "P 1"
_space_group_IT_number       1

loop_
  _space_group_symop_operation_xyz
  'x, y, z'

loop_
  _atom_site_type_symbol
  _atom_site_label
  _atom_site_symmetry_multiplicity
  _atom_site_fract_x
  _atom_site_fract_y
  _atom_site_fract_z
  _atom_site_occupancy
  Cu  Cu1       1.0  0.49999785450918205  1.0792078299878214e-08  0.5000026071594589  1.0000
  B   B1        1.0  0.1534280295464754  0.6926098442285351  0.11978683743016212  1.0000
  B   B2        1.0  0.8465721772215316  0.3073929118959385  0.8802132253128149  1.0000
  H   H1        1.0  0.6778397645576177  0.3438006555738156  0.2751753987526158  1.0000
  H   H2        1.0  0.32215832154078333  0.6561962395359656  0.7248239355704627  1.0000
  H   H3        1.0  0.5732878438368445  0.5583833069003462  0.16523052907454167  1.0000
  H   H4        1.0  0.42670867814330654  0.441613579254664  0.8347710200255347  1.0000
  H   H5        1.0  0.36426179866146663  0.8612981049229164  0.32282833579301234  1.0000
  H   H6        1.0  0.6357381662792105  0.1387061116862967  0.677171459806736  1.0000
  H   H7        1.0  0.17632142973315715  0.8601749111347917  0.4578989181881992  1.0000
  H   H8        1.0  0.8236787837444411  0.13982784479531327  0.5421001067969726  1.0000
  H   H9        1.0  0.3803283303279343  0.6832775504796375  0.4718744762860537  1.0000
  H   H10       1.0  0.6196705809875527  0.31672373542786403  0.5281239173459367  1.0000
  H   H11       1.0  0.5998533626948229  0.8543884239587171  0.9339269416884333  1.0000
  H   H12       1.0  0.4001444748666572  0.14560993183016543  0.06607316324921439  1.0000
  H   H13       1.0  0.8470611260985449  0.7152677330400437  0.9431485951918219  1.0000
  H   H14       1.0  0.15294161209697416  0.28472919010024367  0.05685032134705637  1.0000
  H   H15       1.0  0.14504090218164828  0.658666940856655  0.0037775907447538666  1.0000
  H   H16       1.0  0.8549633732936996  0.3413299920158579  0.996223262048339  1.0000
  H   H17       1.0  0.3023706712389752  0.7732330674800993  0.1176223127295941  1.0000
  H   H18       1.0  0.6976315631730969  0.2267667772127524  0.8823791827962422  1.0000
  C   C1        1.0  0.3608194368978702  0.39558757260267197  0.2928200066141215  1.0000
  C   C2        1.0  0.6391850938239967  0.604407899396371  0.7071790378065896  1.0000
  C   C3        1.0  0.7624588735375682  0.8577906078374156  0.09861495971374978  1.0000
  C   C4        1.0  0.23754624728367446  0.14221071524973183  0.9013818391148547  1.0000
  N   N1        1.0  0.3121278051830885  0.2332447532576793  0.3916169545031422  1.0000
  N   N2        1.0  0.687867971186307  0.7667565149346415  0.608386906440657  1.0000
  N   N3        1.0  0.10151593309993959  0.2381551413425456  0.3953763365388241  1.0000
  N   N4        1.0  0.8984814006781007  0.7618461359989086  0.6046263473857819  1.0000
  N   N5        1.0  0.180960967466639  0.4976254314159902  0.23948220948839347  1.0000
  N   N6        1.0  0.8190361379032822  0.5023773060214795  0.7605181317773811  1.0000
  N   N7        1.0  0.02223919011257891  0.3938256644866129  0.3055047802569034  1.0000
  N   N8        1.0  0.9777586474489012  0.6061726913022698  0.6944953246807443  1.0000
  N   N9        1.0  0.552317661207752  0.4519955732324163  0.2585366612080833  1.0000
  N   N10       1.0  0.44767884735319535  0.5480013133113175  0.7414669634076032  1.0000
  N   N11       1.0  0.33583481951989563  0.8297604807457546  0.43323287506908764  1.0000
  N   N12       1.0  0.6641640783763874  0.17024080555047758  0.5667675940785059  1.0000
  N   N13       1.0  0.9488890912549833  0.8220501414866418  0.1561771489396904  1.0000
  N   N14       1.0  0.051114001922187006  0.17795409303212037  0.8438182171060546  1.0000
  N   N15       1.0  0.9278405774514268  0.9268112556862037  0.25766350764422435  1.0000
  N   N16       1.0  0.0721601129712113  0.07318857946879122  0.7423370893852023  1.0000
  N   N17       1.0  0.6276536477609864  0.9805736499764278  0.162933004642376  1.0000
  N   N18       1.0  0.372350996115216  0.019430593885836303  0.8370622221419664  1.0000
  N   N19       1.0  0.7171984747767439  0.7735440080843433  0.9978043456982206  1.0000
  N   N20       1.0  0.2828035513560181  0.2264572961214313  0.002191693895369388  1.0000
  N   N21       1.0  0.7378189435317921  0.019491937138475603  0.26020693088651825  1.0000
  N   N22       1.0  0.2621786589119708  0.9805078789407915  0.7397918691501031  1.0000
