data_image0
_chemical_formula_structural       U4H16C28N4O24
_chemical_formula_sum              "U4 H16 C28 N4 O24"
_cell_length_a       7.916548870054952
_cell_length_b       10.40747952966241
_cell_length_c       11.970153384087155
_cell_angle_alpha    109.64332771172796
_cell_angle_beta     89.9995640698764
_cell_angle_gamma    90.00011647246403

_space_group_name_H-M_alt    "P 1"
_space_group_IT_number       1

loop_
  _space_group_symop_operation_xyz
  'x, y, z'

loop_
  _atom_site_type_symbol
  _atom_site_label
  _atom_site_symmetry_multiplicity
  _atom_site_fract_x
  _atom_site_fract_y
  _atom_site_fract_z
  _atom_site_occupancy
  U   U1        1.0  0.2751921822797598  0.24026616690944996  0.8647871550041442  1.0000
  U   U2        1.0  0.7751949685608608  0.7597354765686433  0.635212168989831  1.0000
  U   U3        1.0  0.7248110581258729  0.7597297704076523  0.13521552940221676  1.0000
  U   U4        1.0  0.2248133245985144  0.24026667643848756  0.36478402485735717  1.0000
  H   H1        1.0  0.183425419789927  0.9787180752354346  0.5278204655143383  1.0000
  H   H2        1.0  0.6834246842758062  0.0212815161892621  0.9721837062277386  1.0000
  H   H3        1.0  0.816576557451576  0.0212840115319537  0.4721815566146218  1.0000
  H   H4        1.0  0.3165785561434831  0.978717510047389  0.02781739812422761  1.0000
  H   H5        1.0  0.0831236282313554  0.780635338674216  0.35251674398315197  1.0000
  H   H6        1.0  0.5831222221155983  0.21936418152460394  0.1474894400246214  1.0000
  H   H7        1.0  0.9168745594804475  0.21936572791729253  0.6474849722307778  1.0000
  H   H8        1.0  0.4168784919548613  0.7806358743525124  0.8525111376489246  1.0000
  H   H9        1.0  0.2620072241545087  0.5681611895963313  0.28608477249809267  1.0000
  H   H10       1.0  0.7620031074775896  0.43183722255525936  0.21392020123592906  1.0000
  H   H11       1.0  0.737990963562936  0.4318378461045995  0.7139154992572398  1.0000
  H   H12       1.0  0.23799508023912347  0.5681638534992928  0.786080682368606  1.0000
  H   H13       1.0  0.5270033562353829  0.5605359326100371  0.3951542520630936  1.0000
  H   H14       1.0  0.02699787661345  0.4394636624723702  0.10484805262713337  1.0000
  H   H15       1.0  0.4729960946636709  0.4394631125536321  0.6048451870796397  1.0000
  H   H16       1.0  0.9730015742845026  0.5605384432217236  0.8951523042894036  1.0000
  C   C1        1.0  0.4309988731852883  0.5257791337343747  0.047559567890274865  1.0000
  C   C2        1.0  0.9309908032528397  0.4742284243126988  0.4524431417814227  1.0000
  C   C3        1.0  0.5690081567396561  0.4742331169476798  0.9524488439095149  1.0000
  C   C4        1.0  0.06900233176731518  0.5257716504923737  0.5475557706924832  1.0000
  C   C5        1.0  0.470506830972937  0.9813939165311467  0.6566978912552484  1.0000
  C   C6        1.0  0.9705000268332853  0.018605524412045302  0.8433056617554725  1.0000
  C   C7        1.0  0.5294989358011932  0.0186010289976508  0.343301989391925  1.0000
  C   C8        1.0  0.0294956345202166  0.981395532717045  0.1566968870742542  1.0000
  C   C9        1.0  0.4043181022621525  0.8708161170822204  0.5510201546482703  1.0000
  C   C10       1.0  0.9043154174710325  0.1291843954760381  0.9489823736786461  1.0000
  C   C11       1.0  0.59568387497972  0.1291849495083568  0.4489815615560885  1.0000
  C   C12       1.0  0.09568529660471368  0.8708146496873184  0.05101706546090406  1.0000
  C   C13       1.0  0.2548947539240558  0.8842554531342017  0.4950212480380926  1.0000
  C   C14       1.0  0.7548972608915818  0.11574400161244108  0.004982402342477586  1.0000
  C   C15       1.0  0.7451009074392799  0.11574562292096859  0.5049796355728304  1.0000
  C   C16       1.0  0.2451021899969064  0.8842570649787619  0.9950193138682618  1.0000
  C   C17       1.0  0.20066447051239317  0.7745685715589872  0.39777964724185466  1.0000
  C   C18       1.0  0.7006598250694012  0.22543190161605514  0.10222708107382054  1.0000
  C   C19       1.0  0.7993362435527872  0.22543249503190313  0.6022220689656947  1.0000
  C   C20       1.0  0.2993408890010585  0.7745681542610684  0.8977734965997256  1.0000
  C   C21       1.0  0.29820323481343536  0.656647602208004  0.3611330458290709  1.0000
  C   C22       1.0  0.7982010161205649  0.3433518218027841  0.13887121822439494  1.0000
  C   C23       1.0  0.701796216090166  0.3433524725955124  0.6388658666288619  1.0000
  C   C24       1.0  0.20179969794424577  0.6566502649649094  0.8611308039077554  1.0000
  C   C25       1.0  0.447308244639629  0.6511007835148205  0.4220727273320576  1.0000
  C   C26       1.0  0.9473067593579286  0.3488996252814971  0.07792775839785546  1.0000
  C   C27       1.0  0.5526899431024003  0.3488982995013288  0.5779233813762656  1.0000
  C   C28       1.0  0.0526939547128933  0.6510994104188228  0.9220725133510894  1.0000
  N   N1        1.0  0.49993430784626713  0.7558096043874941  0.5157145429572906  1.0000
  N   N2        1.0  0.9999302678581543  0.24419189084241563  0.984286975295184  1.0000
  N   N3        1.0  0.5000676694054319  0.24419148112917097  0.48428550802826453  1.0000
  N   N4        1.0  7.044621157349998e-05  0.7558102053883219  0.01571421422756458  1.0000
  O   O1        1.0  0.2987846766091663  0.4535198795499299  0.03347122540412068  1.0000
  O   O2        1.0  0.7987968550497228  0.5464786186253293  0.4665244036548373  1.0000
  O   O3        1.0  0.7012071952395829  0.5464791845416812  0.9665265485389793  1.0000
  O   O4        1.0  0.20121017491657514  0.4535143149386728  0.533472367311738  1.0000
  O   O5        1.0  0.1644804110775056  0.3317040620397762  0.7825573545747203  1.0000
  O   O6        1.0  0.6644844977357564  0.6682997045645109  0.7174406431465028  1.0000
  O   O7        1.0  0.8355177766535887  0.6682980625807103  0.2174413371262104  1.0000
  O   O8        1.0  0.335514953148909  0.33169829203322376  0.28256098789983497  1.0000
  O   O9        1.0  0.4633497557316844  0.6356076189440713  0.1308115157734448  1.0000
  O   O10       1.0  0.9633511994129689  0.3643857069752627  0.3691809191122957  1.0000
  O   O11       1.0  0.5366459056640736  0.3643853524748906  0.8691819247842643  1.0000
  O   O12       1.0  0.0366495147039316  0.6356083130083904  0.6308103295290336  1.0000
  O   O13       1.0  0.37710716254632354  0.1521158507744076  0.9526362265506947  1.0000
  O   O14       1.0  0.8771162844667018  0.8478898517358787  0.5473613080605942  1.0000
  O   O15       1.0  0.6228897619975199  0.8478882952739254  0.04736474222143264  1.0000
  O   O16       1.0  0.12288316642251118  0.1521091745017031  0.4526397963009501  1.0000
  O   O17       1.0  0.3981291518035873  0.0973239518853717  0.6906149611996993  1.0000
  O   O18       1.0  0.8981302890896998  0.9026806822714801  0.809385491666937  1.0000
  O   O19       1.0  0.6018740886142453  0.9026791550585075  0.3093873668506645  1.0000
  O   O20       1.0  0.10187168817184039  0.09732042217126488  0.19061289409981436  1.0000
  O   O21       1.0  0.5987959766567243  0.9529214626123302  0.7079908060970083  1.0000
  O   O22       1.0  0.0987998195326156  0.04708333750820509  0.7920094948395614  1.0000
  O   O23       1.0  0.40120094788439786  0.0470765529121095  0.2920091597369208  1.0000
  O   O24       1.0  0.9012046840770155  0.9529187776476888  0.20799002945480538  1.0000
