data_image0
_chemical_formula_structural       Co2H32C42N4O12
_chemical_formula_sum              "Co2 H32 C42 N4 O12"
_cell_length_a       9.465981325817175
_cell_length_b       9.598975394364171
_cell_length_c       11.443102132852342
_cell_angle_alpha    70.71498324327793
_cell_angle_beta     66.1981749420854
_cell_angle_gamma    83.58942248626477

_space_group_name_H-M_alt    "P 1"
_space_group_IT_number       1

loop_
  _space_group_symop_operation_xyz
  'x, y, z'

loop_
  _atom_site_type_symbol
  _atom_site_label
  _atom_site_symmetry_multiplicity
  _atom_site_fract_x
  _atom_site_fract_y
  _atom_site_fract_z
  _atom_site_occupancy
  Co  Co1       1.0  0.9116705824993331  0.3398348384400904  0.24930444411263147  1.0000
  Co  Co2       1.0  0.0793754696480846  0.6557455305784003  0.7647645763274795  1.0000
  H   H1        1.0  0.0184435338710713  0.6212035184193637  0.08735029695687757  1.0000
  H   H2        1.0  0.972011929982166  0.3837139497191799  0.9199329251288405  1.0000
  H   H3        1.0  0.14244142292015738  0.5202160260810303  0.02048962196305834  1.0000
  H   H4        1.0  0.8545309966068116  0.490847110511602  0.9816461982247163  1.0000
  H   H5        1.0  0.6890946249974376  0.5901763293243719  0.21545592832150356  1.0000
  H   H6        1.0  0.31200116394796845  0.38886073056038123  0.779248530169575  1.0000
  H   H7        1.0  0.5413924095468233  0.745142149597953  0.3609976688626944  1.0000
  H   H8        1.0  0.46480644995772746  0.24386130814389873  0.6242065408601505  1.0000
  H   H9        1.0  0.5519524470701427  0.6939842720859062  0.5861591132746611  1.0000
  H   H10       1.0  0.44835639272157124  0.305075502579129  0.4003105642053981  1.0000
  H   H11       1.0  0.6688626103285884  0.5291051954791685  0.7586570413052626  1.0000
  H   H12       1.0  0.33537791509789366  0.47190721112041006  0.23362870657322785  1.0000
  H   H13       1.0  0.8451496367913477  0.331144870457365  0.8081556351368845  1.0000
  H   H14       1.0  0.15746701988264528  0.6694665844326622  0.18611017549254424  1.0000
  H   H15       1.0  0.05317632068088329  0.14306999934582615  0.7267077460098151  1.0000
  H   H16       1.0  0.9509557177063215  0.8496716611472975  0.2674482429214961  1.0000
  H   H17       1.0  0.197224356518916  0.035059611676011605  0.5416112841027569  1.0000
  H   H18       1.0  0.806023512936065  0.9645149697327184  0.44869564869119927  1.0000
  H   H19       1.0  0.15093325921004208  0.1269373067393715  0.3274389580137438  1.0000
  H   H20       1.0  0.8611379622003171  0.8837296248642234  0.6591353882556062  1.0000
  H   H21       1.0  0.5984830084214394  0.3628890118600765  0.02042131163317865  1.0000
  H   H22       1.0  0.40664996274878723  0.636343461371922  0.9835475827211653  1.0000
  H   H23       1.0  0.4115389606700575  0.2563265530484031  0.971052878483448  1.0000
  H   H24       1.0  0.5885865096134353  0.7499863036074712  0.033772054886355804  1.0000
  H   H25       1.0  0.33900798384259195  0.8789130711299932  0.3249775314663522  1.0000
  H   H26       1.0  0.6589658777134347  0.12182015536399857  0.6763999031489475  1.0000
  H   H27       1.0  0.5255800399466537  0.9910880439884125  0.3760606462468203  1.0000
  H   H28       1.0  0.47379487119492586  0.005279005085142801  0.6272377866254787  1.0000
  H   H29       1.0  0.1480298821405341  0.966413405081447  0.01946035983988268  1.0000
  H   H30       1.0  0.8395982716885726  0.04779996381618899  0.9881102497546337  1.0000
  H   H31       1.0  0.2995336698172578  0.10171469600017248  0.9275657174175294  1.0000
  H   H32       1.0  0.6850169072217441  0.9158455479760901  0.08036497352510709  1.0000
  C   C1        1.0  0.6965319583501213  0.5733217991211106  0.3115651611693053  1.0000
  C   C2        1.0  0.30591890330105537  0.41149127863253204  0.681639040545825  1.0000
  C   C3        1.0  0.6126978564219101  0.6580258951451012  0.3955174910196746  1.0000
  C   C4        1.0  0.392007998292506  0.33185645796633884  0.5935597326909345  1.0000
  C   C5        1.0  0.6185669376496605  0.6295860121251877  0.5202740086674494  1.0000
  C   C6        1.0  0.3836299148037909  0.3666064816896935  0.4693036718947994  1.0000
  C   C7        1.0  0.7141694558083811  0.5162598654561065  0.5601843566887795  1.0000
  C   C8        1.0  0.28857561945886095  0.4823515375589125  0.43289749032036434  1.0000
  C   C9        1.0  0.7336994165908022  0.4722932322048264  0.6852542421032269  1.0000
  C   C10       1.0  0.2708571829300155  0.5285772377604446  0.3072334236041739  1.0000
  C   C11       1.0  0.832972234914088  0.36292768282428517  0.7123394182674617  1.0000
  C   C12       1.0  0.17192532169069352  0.638020628951402  0.28088222603543767  1.0000
  C   C13       1.0  0.9257961229788947  0.2909662865421295  0.6157966732063826  1.0000
  C   C14       1.0  0.0811098015158365  0.709108733262731  0.37838601201815447  1.0000
  C   C15       1.0  0.0338747326479591  0.1804934303805865  0.633583842713918  1.0000
  C   C16       1.0  0.9715114518931287  0.8176285212297358  0.35995496600116167  1.0000
  C   C17       1.0  0.11476053844867809  0.12186342829453166  0.529919974878041  1.0000
  C   C18       1.0  0.8902226847718994  0.8796414340172091  0.4609594605487431  1.0000
  C   C19       1.0  0.08962210419709749  0.1713537180247044  0.40991644339253236  1.0000
  C   C20       1.0  0.920322650273107  0.8355619539978463  0.5785594614144783  1.0000
  C   C21       1.0  0.9068565822189215  0.3329848856872673  0.4927049854469984  1.0000
  C   C22       1.0  0.10072300745167688  0.6689606490447916  0.5015140918880547  1.0000
  C   C23       1.0  0.7997378568401956  0.4408801530343283  0.46723183527497264  1.0000
  C   C24       1.0  0.2041495322834592  0.5548101717468727  0.5292154366777594  1.0000
  C   C25       1.0  0.6896383624939162  0.23876836393151274  0.234398985316659  1.0000
  C   C26       1.0  0.3122590777655887  0.7508137768517854  0.7754668882934795  1.0000
  C   C27       1.0  0.5748290742695374  0.1835461791293582  0.201529364161658  1.0000
  C   C28       1.0  0.4275982901470812  0.8135599449628117  0.8025855021916826  1.0000
  C   C29       1.0  0.5410345288087796  0.25710898109723257  0.08796167967855692  1.0000
  C   C30       1.0  0.4624130351650775  0.7427568675684312  0.9160404694674825  1.0000
  C   C31       1.0  0.4363149751077842  0.19641537847443397  0.0593694843824721  1.0000
  C   C32       1.0  0.5642175107774321  0.8071106860905105  0.9447384094839961  1.0000
  C   C33       1.0  0.36491542259720683  0.05864054505291698  0.1446388982678641  1.0000
  C   C34       1.0  0.6335584137213175  0.9454537468287182  0.8585855479571338  1.0000
  C   C35       1.0  0.3982076933424565  0.9842304835408557  0.25879021250342044  1.0000
  C   C36       1.0  0.6009024150750195  0.016246718548245602  0.7434780950204002  1.0000
  C   C37       1.0  0.5002741647483262  0.0468734671636994  0.2871585545135177  1.0000
  C   C38       1.0  0.49949307087615574  0.9509223849722798  0.7161613654518604  1.0000
  C   C39       1.0  0.20492620484380808  0.055662064925655785  0.026078571039327925  1.0000
  C   C40       1.0  0.7834024194401152  0.9568313659292331  0.98332740583421  1.0000
  C   C41       1.0  0.08501052520227859  0.1749570653595285  0.053010419285811836  1.0000
  C   C42       1.0  0.9005599968377922  0.8340054599893206  0.9639726074568955  1.0000
  N   N1        1.0  0.788571902366307  0.4656100576663673  0.34637480459345943  1.0000
  N   N2        1.0  0.2130963445355576  0.5197447743833193  0.6512547858094065  1.0000
  N   N3        1.0  0.9869966437573936  0.27488262847970907  0.39030082815975214  1.0000
  N   N4        1.0  0.023335017823960396  0.7334812668324275  0.598594937507656  1.0000
  O   O1        1.0  0.7678334750280982  0.3610057442589749  0.1560983759455397  1.0000
  O   O2        1.0  0.2540052053098307  0.619630108888728  0.8472093460145231  1.0000
  O   O3        1.0  0.7144861508390932  0.16572352205459143  0.33856493326644704  1.0000
  O   O4        1.0  0.26750975311625785  0.8265358885185633  0.6825938714159676  1.0000
  O   O5        1.0  0.26199184473419024  0.9865376389684427  0.12864338018643195  1.0000
  O   O6        1.0  0.7323725793600175  0.0213942627419428  0.8758485045179968  1.0000
  O   O7        1.0  0.0514646125533673  0.20569302795192357  0.1614747491059276  1.0000
  O   O8        1.0  0.9314838264674492  0.7925920461737944  0.8619048886531928  1.0000
  O   O9        1.0  0.032986395451679584  0.2273351239664549  0.9620615322229044  1.0000
  O   O10       1.0  0.9545243393007611  0.786571382972525  0.05445518584052412  1.0000
  O   O11       1.0  0.06416893775031698  0.5202218078724669  0.10890596869142398  1.0000
  O   O12       1.0  0.9282069221568815  0.4858825741540897  0.8935915926664182  1.0000
