data_image0
_chemical_formula_structural       Zn2H40C32N6O10
_chemical_formula_sum              "Zn2 H40 C32 N6 O10"
_cell_length_a       8.898383493203465
_cell_length_b       10.162878235640797
_cell_length_c       10.391904908270465
_cell_angle_alpha    69.82683957879748
_cell_angle_beta     75.75853638378409
_cell_angle_gamma    82.07586020374329

_space_group_name_H-M_alt    "P 1"
_space_group_IT_number       1

loop_
  _space_group_symop_operation_xyz
  'x, y, z'

loop_
  _atom_site_type_symbol
  _atom_site_label
  _atom_site_symmetry_multiplicity
  _atom_site_fract_x
  _atom_site_fract_y
  _atom_site_fract_z
  _atom_site_occupancy
  Zn  Zn1       1.0  0.2553530664421828  0.19757319809510684  0.7077035657560772  1.0000
  Zn  Zn2       1.0  0.7446455409004358  0.8024331054543199  0.2922959146371156  1.0000
  H   H1        1.0  0.6084348771288289  0.5204114917234791  0.7562411494050352  1.0000
  H   H2        1.0  0.39158447574276073  0.47959002429232817  0.24374738118612527  1.0000
  H   H3        1.0  0.6674673244360249  0.36299149990031754  0.8741489353109486  1.0000
  H   H4        1.0  0.332533529725886  0.6369972599071261  0.1258430087246438  1.0000
  H   H5        1.0  0.0823791088404349  0.7745743366983858  0.7099697636689797  1.0000
  H   H6        1.0  0.9176218040819464  0.22543292399562634  0.2900288894333016  1.0000
  H   H7        1.0  0.1521438563761492  0.6107795562367428  0.8146366263862107  1.0000
  H   H8        1.0  0.8478616677057715  0.3892296187464338  0.18536037213425527  1.0000
  H   H9        1.0  0.09439026385258839  0.06100334722588491  0.5408297469537118  1.0000
  H   H10       1.0  0.9056122834810907  0.9389940833505083  0.4591831658250669  1.0000
  H   H11       1.0  0.872985154858327  0.7895062531999884  0.9198541308677901  1.0000
  H   H12       1.0  0.12701473882675876  0.21049368370393043  0.0801480122994818  1.0000
  H   H13       1.0  0.9503086610059698  0.6320406459444997  0.023570746865381263  1.0000
  H   H14       1.0  0.04969699399678262  0.36796013967531144  0.9764288494609235  1.0000
  H   H15       1.0  0.8865179506853593  0.5398663138663409  0.6066553026269049  1.0000
  H   H16       1.0  0.1134751075113698  0.46013582179546836  0.39335349299820166  1.0000
  H   H17       1.0  0.017603354827038207  0.6761730318490181  0.5423535384267808  1.0000
  H   H18       1.0  0.9823907392593798  0.323830222160602  0.45765081838083427  1.0000
  H   H19       1.0  0.4050682890340481  0.36963805335356886  0.043611143046724955  1.0000
  H   H20       1.0  0.5949431658546587  0.6303542583886641  0.9563849661610039  1.0000
  H   H21       1.0  0.35981905741594744  0.5351236826016575  0.9295406558746394  1.0000
  H   H22       1.0  0.6401957497565219  0.46487172444331304  0.07045082820125256  1.0000
  H   H23       1.0  0.05359663847205099  0.818192287617947  0.06414052142734762  1.0000
  H   H24       1.0  0.9464067001366274  0.1818065210469372  0.9358592612133023  1.0000
  H   H25       1.0  0.2088840314115572  0.7512149073626446  0.9600446248307933  1.0000
  H   H26       1.0  0.791115671730367  0.248790388333667  0.03995203189865039  1.0000
  H   H27       1.0  0.4408511784772032  0.06061896800321161  0.16528326335944138  1.0000
  H   H28       1.0  0.559124629071313  0.9393682106263128  0.8347312752835591  1.0000
  H   H29       1.0  0.6133996452019588  0.17568766272480474  0.24513332862337478  1.0000
  H   H30       1.0  0.38658958842128754  0.8243005349014894  0.7548604872615458  1.0000
  H   H31       1.0  0.17051548518426074  0.0068386423944844  0.31154355480422424  1.0000
  H   H32       1.0  0.829465134881261  0.9931461115421457  0.688475456671348  1.0000
  H   H33       1.0  0.8202975256610826  0.6734296174655086  0.76607407083268  1.0000
  H   H34       1.0  0.1796990806260865  0.3265733429977331  0.23393654332581093  1.0000
  H   H35       1.0  0.9004952473114044  0.5078505076257614  0.8531948217459232  1.0000
  H   H36       1.0  0.0995151547479338  0.49215204798283463  0.14680794851003034  1.0000
  H   H37       1.0  0.6504463879451947  0.2883906583227756  0.4185579338831573  1.0000
  H   H38       1.0  0.349549881949308  0.711601315107295  0.5814379039147825  1.0000
  H   H39       1.0  0.6510751816575963  0.3885274917322334  0.5909252607024769  1.0000
  H   H40       1.0  0.34893381510190125  0.6114702126080972  0.40906779603719196  1.0000
  C   C1        1.0  0.11742440535723381  0.4694134695112311  0.6291067958492675  1.0000
  C   C2        1.0  0.8825752706052797  0.5305918550451593  0.37088889517788454  1.0000
  C   C3        1.0  0.5635448286226392  0.426564208716613  0.8427210881773562  1.0000
  C   C4        1.0  0.4364651932122356  0.5734335941611732  0.1572668887682552  1.0000
  C   C5        1.0  0.1168227207314345  0.9545575223409841  0.8547383440982301  1.0000
  C   C6        1.0  0.883173673096671  0.04545391406585251  0.14526677514754027  1.0000
  C   C7        1.0  0.04648369483458481  0.6807781376968691  0.801019714621383  1.0000
  C   C8        1.0  0.9535207553639252  0.31922892798822733  0.19898011603771687  1.0000
  C   C9        1.0  0.20730495341373262  0.08525456291230432  0.4701491461896765  1.0000
  C   C10       1.0  0.7926903343753297  0.9147465479935519  0.5298556087868109  1.0000
  C   C11       1.0  0.9817204987097765  0.7250361412493619  0.9311523308180014  1.0000
  C   C12       1.0  0.018281640645462005  0.27496687900004707  0.06884736990460989  1.0000
  C   C13       1.0  0.9833853194932233  0.5790655164728874  0.6283480967762288  1.0000
  C   C14       1.0  0.0166109986347323  0.42093878126153345  0.3716525356335935  1.0000
  C   C15       1.0  0.4576178851350933  0.46502801405274835  0.9660601692260826  1.0000
  C   C16       1.0  0.542392272884122  0.5349644877527882  0.033931362752767244  1.0000
  C   C17       1.0  0.4833251379953509  0.3423382691381108  0.7877555333623791  1.0000
  C   C18       1.0  0.5166824964342352  0.6576638199471957  0.21223164724549556  1.0000
  C   C19       1.0  0.44283063727707633  0.18118235165062663  0.4316675507415937  1.0000
  C   C20       1.0  0.5571739496803474  0.8188090994184734  0.5683332879942782  1.0000
  C   C21       1.0  0.09370633583602482  0.8074009924621349  0.9590873295600917  1.0000
  C   C22       1.0  0.9062969861202606  0.1926040216450389  0.04091340183305179  1.0000
  C   C23       1.0  0.3998141523426355  0.08565938824765601  0.26249868171591834  1.0000
  C   C24       1.0  0.6001662339224937  0.9143266452400096  0.7375122794155758  1.0000
  C   C25       1.0  0.4965322201725613  0.1509355499443785  0.3061120788486136  1.0000
  C   C26       1.0  0.5034607246175824  0.8490532993228896  0.6938893497834542  1.0000
  C   C27       1.0  0.2518839311912018  0.05282888195234388  0.3451534857334764  1.0000
  C   C28       1.0  0.7480975558494621  0.947164388745186  0.6548568824399158  1.0000
  C   C29       1.0  0.929104656026837  0.6074520108879824  0.7684486089584013  1.0000
  C   C30       1.0  0.0708986495643487  0.39255405188961134  0.23155179770901674  1.0000
  C   C31       1.0  0.5385387266319769  0.24902770036075597  0.48286096077082163  1.0000
  C   C32       1.0  0.4614565994380868  0.7509692447234997  0.5171441274062902  1.0000
  N   N1        1.0  0.4828900607998677  0.2624570887454922  0.6050871229020417  1.0000
  N   N2        1.0  0.5171073639416974  0.7375472209461692  0.39491132682060487  1.0000
  N   N3        1.0  0.29956376800428336  0.14817420365959322  0.5125523269917238  1.0000
  N   N4        1.0  0.700439641328316  0.8518234986147208  0.4874497117792416  1.0000
  N   N5        1.0  0.5579459079141955  0.3293361101177866  0.6592312640909554  1.0000
  N   N6        1.0  0.4420643313559652  0.6706614618793907  0.3407644384730019  1.0000
  O   O1        1.0  0.2392344941064906  0.012392793553836198  0.8540364966706381  1.0000
  O   O2        1.0  0.7607722727733801  0.9876110923143173  0.14596187419588344  1.0000
  O   O3        1.0  0.02389192189367151  0.014834676519505801  0.7763972416489936  1.0000
  O   O4        1.0  0.9761047548301319  0.9851723343250427  0.22361690211804594  1.0000
  O   O5        1.0  0.35999206041922355  0.28563666122870046  0.8527258658933975  1.0000
  O   O6        1.0  0.6400059755812038  0.7143805619260702  0.14725588170809087  1.0000
  O   O7        1.0  0.2515783285354374  0.5022277169815297  0.5563510298020945  1.0000
  O   O8        1.0  0.7484201320958165  0.49777771105793517  0.44364298110306066  1.0000
  O   O9        1.0  0.08453888039444021  0.34332527366959914  0.7072140964639289  1.0000
  O   O10       1.0  0.9154620217136369  0.656680967214065  0.2927839156617864  1.0000
