data_image0
_chemical_formula_structural       Mn2H26C38N2Cl4O10
_chemical_formula_sum              "Mn2 H26 C38 N2 Cl4 O10"
_cell_length_a       7.329164967060181
_cell_length_b       9.52994431340533
_cell_length_c       14.314220980911015
_cell_angle_alpha    109.43758117676427
_cell_angle_beta     89.99917571475905
_cell_angle_gamma    90.00317363871787

_space_group_name_H-M_alt    "P 1"
_space_group_IT_number       1

loop_
  _space_group_symop_operation_xyz
  'x, y, z'

loop_
  _atom_site_type_symbol
  _atom_site_label
  _atom_site_symmetry_multiplicity
  _atom_site_fract_x
  _atom_site_fract_y
  _atom_site_fract_z
  _atom_site_occupancy
  Mn  Mn1       1.0  1.1882695858000116e-06  0.49999618567026294  0.9999949978762641  1.0000
  Mn  Mn2       1.0  0.4999967563196249  0.4999953030599614  0.9999977437653127  1.0000
  H   H1        1.0  0.041908753350170996  0.4037738754329397  0.26644673749697023  1.0000
  H   H2        1.0  0.5419060955799465  0.5962266041648191  0.7335418233423423  1.0000
  H   H3        1.0  0.4580689370051799  0.13661123457168864  0.733207409161629  1.0000
  H   H4        1.0  0.9580890270965128  0.863382550666245  0.2667868961920518  1.0000
  H   H5        1.0  0.9580953906715308  0.5962293664251562  0.733549201298686  1.0000
  H   H6        1.0  0.4580980484085089  0.40377883617151167  0.26646229026452767  1.0000
  H   H7        1.0  0.5419297492302063  0.8633908674122142  0.2667959602168324  1.0000
  H   H8        1.0  0.0419069302566868  0.13661622530334236  0.7332122386597459  1.0000
  H   H9        1.0  0.0438220900204911  0.3611033294329788  0.43019477775803944  1.0000
  H   H10       1.0  0.5438144767740881  0.6388994675036201  0.5697928876052101  1.0000
  H   H11       1.0  0.45620610109136084  0.9300730379017284  0.5695641680384256  1.0000
  H   H12       1.0  0.9562256539611267  0.06991842725975063  0.4304324290242788  1.0000
  H   H13       1.0  0.9561916049548884  0.6389021381279107  0.5698016571968478  1.0000
  H   H14       1.0  0.45620058265022567  0.36111042405205757  0.430212218310487  1.0000
  H   H15       1.0  0.5437871274072704  0.06992683356208572  0.43044010130621047  1.0000
  H   H16       1.0  0.043766210048410394  0.9300781133103797  0.5695690019158803  1.0000
  H   H17       1.0  0.7499913582331245  0.6845888995398681  0.8475301114222302  1.0000
  H   H18       1.0  0.2500032345299772  0.3154054156068256  0.15247082337315015  1.0000
  H   H19       1.0  0.7499936266993286  0.8366620203459761  0.1519002542331336  1.0000
  H   H20       1.0  0.2500064238965223  0.16333786109386494  0.8481012228783553  1.0000
  H   H21       1.0  0.7499985772440636  0.1626343275367789  0.9997540649963594  1.0000
  H   H22       1.0  0.24999738004827776  0.8373622254025009  0.00024387564715773133  1.0000
  H   H23       1.0  0.7499991675558562  0.9470068845819315  0.8395825094251348  1.0000
  H   H24       1.0  0.24999269637651617  0.05298632512554491  0.16041608311216035  1.0000
  H   H25       1.0  0.749995596727871  0.10703107915662712  0.15988230386999894  1.0000
  H   H26       1.0  0.25000581827299573  0.8929676969371203  0.8401168309882223  1.0000
  C   C1        1.0  0.7500050678571029  0.4184587310229376  0.1543050305575022  1.0000
  C   C2        1.0  0.24999498279521504  0.5815411651481526  0.8456922581922298  1.0000
  C   C3        1.0  0.7499959595881902  0.26406347103080224  0.8452569833055605  1.0000
  C   C4        1.0  0.2500040910289911  0.7359353123975226  0.15474005737017643  1.0000
  C   C5        1.0  0.7500031421089446  0.4017072604056367  0.2551240923995691  1.0000
  C   C6        1.0  0.25000100190084135  0.598297081919178  0.7448755847715487  1.0000
  C   C7        1.0  0.7499918634639614  0.14607484883165972  0.744562853698653  1.0000
  C   C8        1.0  0.2500068227387899  0.8539250374875567  0.25543722729064194  1.0000
  C   C9        1.0  0.7500100338116977  0.3558435105423784  0.4376737587242728  1.0000
  C   C10       1.0  0.25000366134375435  0.6441697290313543  0.5623292991706348  1.0000
  C   C11       1.0  0.7499841080334589  0.9172291534734146  0.5621251352785636  1.0000
  C   C12       1.0  0.25001048473654913  0.08276626705041681  0.4378781417716836  1.0000
  C   C13       1.0  0.9147221591854944  0.39168535491687356  0.3022367239174101  1.0000
  C   C14       1.0  0.41471378391010916  0.6083164794719951  0.6977576178866227  1.0000
  C   C15       1.0  0.5853264619296539  0.0888142227779909  0.6974857411642716  1.0000
  C   C16       1.0  0.08534684914603469  0.9111804043406553  0.3025123543170166  1.0000
  C   C17       1.0  0.0852860781139881  0.6083201051542347  0.6977618052119324  1.0000
  C   C18       1.0  0.5852944532111906  0.3916845198072637  0.3022427111879082  1.0000
  C   C19       1.0  0.41466676660662216  0.9111856585066466  0.30251573593919545  1.0000
  C   C20       1.0  0.9146477437155695  0.08881614365717641  0.6974869824454755  1.0000
  C   C21       1.0  0.9162155379053587  0.36850281600136026  0.3932331619065366  1.0000
  C   C22       1.0  0.41621256051156763  0.6314990840029184  0.6067618814782776  1.0000
  C   C23       1.0  0.5838096691237027  0.974394592502357  0.6065793034687701  1.0000
  C   C24       1.0  0.08383328286488018  0.025594389686737915  0.3934210383785555  1.0000
  C   C25       1.0  0.08379406377090957  0.6315015313580263  0.6067651191504168  1.0000
  C   C26       1.0  0.5837997701171459  0.36851081485630033  0.3932411302533296  1.0000
  C   C27       1.0  0.4161794659729167  0.025599717609765104  0.3934230274407681  1.0000
  C   C28       1.0  0.9161613099427656  0.9744010406579168  0.6065794464305225  1.0000
  C   C29       1.0  0.7499925850096927  0.7845018038021795  0.9119914362475254  1.0000
  C   C30       1.0  0.24999927895530047  0.21549362156998347  0.0880104446789289  1.0000
  C   C31       1.0  0.7500011722887051  0.8721713546447064  0.08745629369138194  1.0000
  C   C32       1.0  0.2499988783422822  0.12782963953789314  0.9125454314941022  1.0000
  C   C33       1.0  0.7499987253420385  0.04845871277433391  0.9997487227362283  1.0000
  C   C34       1.0  0.2499999607647254  0.951537837771824  0.0002499159707909831  1.0000
  C   C35       1.0  0.7499962294728774  0.9289964912983854  0.9107919614989085  1.0000
  C   C36       1.0  0.24999699889713156  0.07099782872768402  0.0892075771742782  1.0000
  C   C37       1.0  0.749994830503496  0.0178326612004511  0.0886599937575525  1.0000
  C   C38       1.0  0.2500038556735404  0.9821661148312166  0.9113391410974572  1.0000
  N   N1        1.0  0.7499959743272127  0.758564488129146  0.9997246120485882  1.0000
  N   N2        1.0  0.2499986185412907  0.24143316524582306  0.0002770669687776965  1.0000
  Cl  Cl1       1.0  0.7500169823760316  0.3240117310145436  0.5501313318588642  1.0000
  Cl  Cl2       1.0  0.25000080575291145  0.6759926116206715  0.449868345328312  1.0000
  Cl  Cl3       1.0  0.7499833536339152  0.7729515120245056  0.4496885745113772  1.0000
  Cl  Cl4       1.0  0.25000851047162337  0.22704836431868375  0.5503142987110649  1.0000
  O   O1        1.0  0.904728680801462  0.42248972946396895  0.11486059928940758  1.0000
  O   O2        1.0  0.40473909342549064  0.5774971776337026  0.885132588239557  1.0000
  O   O3        1.0  0.5952180524784366  0.3076499041642578  0.8845998675606733  1.0000
  O   O4        1.0  0.0952283164779075  0.6923552095670757  0.11539420130837635  1.0000
  O   O5        1.0  0.09527000552802888  0.577512397071999  0.885135789486128  1.0000
  O   O6        1.0  0.5952582281545419  0.42249603219793397  0.11486600430415449  1.0000
  O   O7        1.0  0.40478063360009736  0.6923466390162787  0.1154008653272172  1.0000
  O   O8        1.0  0.9047730988630178  0.30765138027803124  0.8845996894648919  1.0000
  O   O9        1.0  0.7499979620713829  0.6186753189823123  0.9997697843225735  1.0000
  O   O10       1.0  0.24999253758458903  0.3813245475090099  0.00023588113943160291  1.0000
