data_image0
_chemical_formula_structural       Ag4H24C24N4O8
_chemical_formula_sum              "Ag4 H24 C24 N4 O8"
_cell_length_a       3.808138460821047
_cell_length_b       12.75495382936786
_cell_length_c       13.430329354744531
_cell_angle_alpha    89.9991371200908
_cell_angle_beta     89.99921939154842
_cell_angle_gamma    94.4894361741431

_space_group_name_H-M_alt    "P 1"
_space_group_IT_number       1

loop_
  _space_group_symop_operation_xyz
  'x, y, z'

loop_
  _atom_site_type_symbol
  _atom_site_label
  _atom_site_symmetry_multiplicity
  _atom_site_fract_x
  _atom_site_fract_y
  _atom_site_fract_z
  _atom_site_occupancy
  Ag  Ag1       1.0  0.8865186251662962  0.06777618126557168  0.37622233240400493  1.0000
  Ag  Ag2       1.0  0.1134153000127824  0.43221646903934635  0.876227676236688  1.0000
  Ag  Ag3       1.0  0.11346394750084704  0.9322248810969213  0.6237761564169446  1.0000
  Ag  Ag4       1.0  0.886550756170415  0.5677814152093958  0.12377676930655919  1.0000
  H   H1        1.0  0.6646797964360829  0.10474679857673407  0.1590826443101463  1.0000
  H   H2        1.0  0.3353402560588847  0.39524506143067123  0.6590831521939718  1.0000
  H   H3        1.0  0.3353221017016638  0.8952472294322574  0.8409143553547266  1.0000
  H   H4        1.0  0.6646790990149967  0.6047560766639535  0.3409131028028298  1.0000
  H   H5        1.0  0.26797021842814683  0.133690094750591  0.0985069087568036  1.0000
  H   H6        1.0  0.7320251489628973  0.3663074762946437  0.598503258798388  1.0000
  H   H7        1.0  0.7320164802343073  0.8663062600332979  0.9014886017553748  1.0000
  H   H8        1.0  0.2679681211399299  0.6336943941293499  0.4014922516620203  1.0000
  H   H9        1.0  0.6515417335220163  0.21869907656643042  0.0799602085515687  1.0000
  H   H10       1.0  0.3484712831420966  0.28130278099795447  0.5799637500396813  1.0000
  H   H11       1.0  0.34845172465986723  0.7813035802480641  0.9200367910697054  1.0000
  H   H12       1.0  0.6515383149672686  0.7187014810135182  0.42003995078850653  1.0000
  H   H13       1.0  0.06389865448608135  0.4380881646039044  0.432799293582697  1.0000
  H   H14       1.0  0.936140484068993  0.06190529767295768  0.9327983495683795  1.0000
  H   H15       1.0  0.9361328963476793  0.5619090684427092  0.5672051518342583  1.0000
  H   H16       1.0  0.06388581235202653  0.9380919246286793  0.06719790544198638  1.0000
  H   H17       1.0  0.015758611782317224  0.2987999652329165  0.40796999929628436  1.0000
  H   H18       1.0  0.9842778543756908  0.20119942237928967  0.907957975829319  1.0000
  H   H19       1.0  0.9842656213375348  0.7011996107545709  0.5920396582025234  1.0000
  H   H20       1.0  0.01574431623971156  0.798802507565611  0.09203381165603017  1.0000
  H   H21       1.0  0.4373350706119297  0.36409983846463934  0.4086388245091754  1.0000
  H   H22       1.0  0.5626934790518733  0.1358995211425338  0.9086457815474205  1.0000
  H   H23       1.0  0.5626842846706167  0.6359012997011105  0.5913492400704641  1.0000
  H   H24       1.0  0.4373341341691416  0.8641032059766405  0.09135121800511568  1.0000
  C   C1        1.0  0.4041182382970376  0.23098566344081212  0.22441872713575606  1.0000
  C   C2        1.0  0.5958697728005546  0.2690057887219695  0.724420707716284  1.0000
  C   C3        1.0  0.5958380549737967  0.7690043406141452  0.7755782726484312  1.0000
  C   C4        1.0  0.4041447036393108  0.7309969112793552  0.27558522686322817  1.0000
  C   C5        1.0  0.24680946961890982  0.32932355829733945  0.20606437206575376  1.0000
  C   C6        1.0  0.7532033108450378  0.17066904780087094  0.7060566780188822  1.0000
  C   C7        1.0  0.753175347589064  0.6706649323552795  0.7939423072559676  1.0000
  C   C8        1.0  0.2468068518050047  0.8293375734855459  0.29393957695786094  1.0000
  C   C9        1.0  0.12459077696976813  0.3983979676499132  0.2808493421365057  1.0000
  C   C10       1.0  0.8754176349134682  0.10160198460739882  0.7808436169071199  1.0000
  C   C11       1.0  0.8753906667867498  0.6015983762208847  0.71915733713692  1.0000
  C   C12       1.0  0.12459139905357129  0.8983999182649073  0.2191518935215555  1.0000
  C   C13       1.0  0.5076491416972146  0.16855798003116715  0.1351516011203486  1.0000
  C   C14       1.0  0.4923638785154196  0.3314437108845212  0.6351441853646165  1.0000
  C   C15       1.0  0.4923390616735688  0.8314446659025592  0.8648528443452789  1.0000
  C   C16       1.0  0.5076481588635247  0.6685597701574366  0.3648565371306561  1.0000
  C   C17       1.0  0.16231984606481836  0.3738228654734002  0.3894372450818792  1.0000
  C   C18       1.0  0.8377076190957525  0.1261791814537432  0.8894410057299635  1.0000
  C   C19       1.0  0.8376873130974404  0.626182177617508  0.6105567761617863  1.0000
  C   C20       1.0  0.16232299736644518  0.8738251237768891  0.11056790713956839  1.0000
  C   C21       1.0  0.2076460425139572  0.3581456211619524  0.1063362398429675  1.0000
  C   C22       1.0  0.7923568078654314  0.14185183012303776  0.6063332607238721  1.0000
  C   C23       1.0  0.7923378404552326  0.6418499417199326  0.8936696948476808  1.0000
  C   C24       1.0  0.20764490842563535  0.8581524157030741  0.3936659726198997  1.0000
  N   N1        1.0  0.17595599813012805  0.37917386345012005  0.021986772395003094  1.0000
  N   N2        1.0  0.8239730767769942  0.12081703188847827  0.5219891736292794  1.0000
  N   N3        1.0  0.8239620142390508  0.6208207779240239  0.9780079936830289  1.0000
  N   N4        1.0  0.17601024820637431  0.879187176036005  0.47801527183514736  1.0000
  O   O1        1.0  0.44602626663147754  0.19635677517069175  0.31082629793019834  1.0000
  O   O2        1.0  0.5539746105630601  0.30363949995765427  0.8108279605962636  1.0000
  O   O3        1.0  0.5539598676610281  0.8036372203964531  0.6891699571830185  1.0000
  O   O4        1.0  0.44603668058029206  0.6963718396782069  0.1891764847623207  1.0000
  O   O5        1.0  0.9783802544275702  0.481839960919018  0.2602384729382194  1.0000
  O   O6        1.0  0.021653793921593906  0.0181643299608965  0.7602365839598233  1.0000
  O   O7        1.0  0.021634410205173545  0.5181635255115964  0.739764483301897  1.0000
  O   O8        1.0  0.9783586197861851  0.9818407239202498  0.23976041560678138  1.0000
