data_image0
_chemical_formula_structural       Gd4H32C24O28
_chemical_formula_sum              "Gd4 H32 C24 O28"
_cell_length_a       7.624620893584045
_cell_length_b       8.039071706944034
_cell_length_c       14.13476127827667
_cell_angle_alpha    97.02166880587464
_cell_angle_beta     95.87611826590232
_cell_angle_gamma    103.66199000588736

_space_group_name_H-M_alt    "P 1"
_space_group_IT_number       1

loop_
  _space_group_symop_operation_xyz
  'x, y, z'

loop_
  _atom_site_type_symbol
  _atom_site_label
  _atom_site_symmetry_multiplicity
  _atom_site_fract_x
  _atom_site_fract_y
  _atom_site_fract_z
  _atom_site_occupancy
  Gd  Gd1       1.0  0.8719621122035478  0.9223725644446431  0.707592067807731  1.0000
  Gd  Gd2       1.0  0.12803687650254147  0.07762529055798237  0.2924073543254978  1.0000
  Gd  Gd3       1.0  0.4113085635564317  0.008935347734578198  0.7992279888452247  1.0000
  Gd  Gd4       1.0  0.5886904251496573  0.9910625072680472  0.2007714332880042  1.0000
  H   H1        1.0  0.07536302779739398  0.3737862189088402  0.6425128498581005  1.0000
  H   H2        1.0  0.9246379143949496  0.6262142234132141  0.357488992371465  1.0000
  H   H3        1.0  0.28751047490973036  0.5242042384090692  0.6918457588224742  1.0000
  H   H4        1.0  0.7124914183432408  0.47579490828943705  0.3081574670384769  1.0000
  H   H5        1.0  0.3219986985778008  0.46335568564282414  0.1267501759007743  1.0000
  H   H6        1.0  0.678003253410928  0.536643470275571  0.8732502241078209  1.0000
  H   H7        1.0  0.40285996675318364  0.40851085702428946  0.017056047750912712  1.0000
  H   H8        1.0  0.5971383658769653  0.5914895817696146  0.9829442201408158  1.0000
  H   H9        1.0  0.6147506788300775  0.399678496652399  0.6534806650487114  1.0000
  H   H10       1.0  0.38524603935033497  0.6003206499047307  0.3465172927473006  1.0000
  H   H11       1.0  0.4525717868327917  0.22703130213268  0.5802319379328511  1.0000
  H   H12       1.0  0.5474288970558874  0.7729730282831894  0.41976803420346454  1.0000
  H   H13       1.0  0.8106142785314887  0.3783522528500852  0.5059990630441363  1.0000
  H   H14       1.0  0.18938636867614636  0.6216469013042314  0.494000549795537  1.0000
  H   H15       1.0  0.6388801497508538  0.4915854604741979  0.5041127432038692  1.0000
  H   H16       1.0  0.3611202097852413  0.5084175771639892  0.4958864124687424  1.0000
  H   H17       1.0  0.02359493743098539  0.8478092264593682  0.511741575274428  1.0000
  H   H18       1.0  0.9764043609437394  0.15218991901596007  0.4882593697856025  1.0000
  H   H19       1.0  0.13817356663110295  0.8136220978040211  0.6006530315071998  1.0000
  H   H20       1.0  0.8618257464275628  0.18637704997628649  0.3993472070897398  1.0000
  H   H21       1.0  0.773886820325565  0.1592204383108466  0.9108872873542142  1.0000
  H   H22       1.0  0.22611287582142836  0.8407800114670109  0.08911094185406651  1.0000
  H   H23       1.0  0.6293520315500842  0.19465201204952354  0.9847073119132548  1.0000
  H   H24       1.0  0.3706472815085818  0.805347135730777  0.015292926683685006  1.0000
  H   H25       1.0  0.973263580111343  0.396614162363953  0.8065684410135675  1.0000
  H   H26       1.0  0.026735688895506395  0.6033849785014381  0.19343391697263715  1.0000
  H   H27       1.0  0.18953011475407777  0.5447197861204528  0.8540519484856048  1.0000
  H   H28       1.0  0.8104668543592268  0.45528064168949095  0.14595035808957146  1.0000
  H   H29       1.0  0.040396335122409296  0.20382491222515847  0.0709762596626646  1.0000
  H   H30       1.0  0.9596033316567157  0.7961755329427687  0.9290233824717974  1.0000
  H   H31       1.0  0.057660097274435905  0.3751480139977658  0.003570171930803705  1.0000
  H   H32       1.0  0.9423385743922308  0.6248537198787928  0.996430205961545  1.0000
  C   C1        1.0  0.17561279505331837  0.4218602289552108  0.7072440151533997  1.0000
  C   C2        1.0  0.8243874396981072  0.5781376185916046  0.2927590200011068  1.0000
  C   C3        1.0  0.25530413965855553  0.2780935404648801  0.7367331070738603  1.0000
  C   C4        1.0  0.7446941416066154  0.7219017197625063  0.26326750798431686  1.0000
  C   C5        1.0  0.1131904182958507  0.14721774561510872  0.9313165316215123  1.0000
  C   C6        1.0  0.8868069485897223  0.8527839864973715  0.06868305910191454  1.0000
  C   C7        1.0  0.3197161058629234  0.35557024853967784  0.07034949412449272  1.0000
  C   C8        1.0  0.6802828681592246  0.6444276041579684  0.9296506344718268  1.0000
  C   C9        1.0  0.4120782515309003  0.23513310541978424  0.11789947664218663  1.0000
  C   C10       1.0  0.5879230517526749  0.7648634649432465  0.8820992904389869  1.0000
  C   C11       1.0  0.6989865377146529  0.17037650345468341  0.632942720318141  1.0000
  C   C12       1.0  0.30101345341704905  0.829625234490912  0.3670577382800318  1.0000
  C   C13       1.0  0.5987215632601419  0.2931604625410317  0.5942317314150147  1.0000
  C   C14       1.0  0.4012814498899574  0.7068425855402224  0.4057668792061619  1.0000
  C   C15       1.0  0.6636114124517006  0.362398149777988  0.5042891240081957  1.0000
  C   C16       1.0  0.33639026654943655  0.63760489192925  0.4957101123702402  1.0000
  C   C17       1.0  0.5591215954577464  0.24690031870245824  0.41332190193663376  1.0000
  C   C18       1.0  0.4408800688594425  0.7531027206998074  0.586678040904893  1.0000
  C   C19       1.0  0.012878857221664965  0.6444149374078876  0.7618591871214379  1.0000
  C   C20       1.0  0.9871217606180878  0.3555842121364917  0.2381418386444167  1.0000
  C   C21       1.0  0.08650753956220571  0.4968276745150675  0.7903090827974922  1.0000
  C   C22       1.0  0.9134927245570948  0.5031701776416851  0.20969253943084004  1.0000
  C   C23       1.0  0.12389990514262914  0.2737182117367071  0.02221079349387621  1.0000
  C   C24       1.0  0.876098781207979  0.7262835244448238  0.9777888779353818  1.0000
  O   O1        1.0  0.8503400746321644  0.617678747540033  0.7226725629562339  1.0000
  O   O2        1.0  0.14966083087913523  0.3823165185204686  0.27732891997668935  1.0000
  O   O3        1.0  0.16841595398827988  0.1174717674675421  0.7083981018784586  1.0000
  O   O4        1.0  0.8315840591981355  0.8825248034363894  0.29159917157070236  1.0000
  O   O5        1.0  0.40669208315288324  0.31373795980683633  0.7896039717202187  1.0000
  O   O6        1.0  0.5933174980121193  0.6862547630114474  0.21039220444752976  1.0000
  O   O7        1.0  0.9667508855379338  0.1073177964824694  0.871132593247296  1.0000
  O   O8        1.0  0.03324648134763914  0.8926839356300104  0.1288669974761305  1.0000
  O   O9        1.0  0.2506807479368618  0.08773240234683749  0.9207909592830604  1.0000
  O   O10       1.0  0.7493162652282592  0.9122680323780229  0.07920922790284383  1.0000
  O   O11       1.0  0.34521982836872667  0.15958206343565706  0.18585873245280035  1.0000
  O   O12       1.0  0.6547801554498135  0.8404145028583299  0.8141399539225419  1.0000
  O   O13       1.0  0.5620189336334747  0.209172850038513  0.09476890743182763  1.0000
  O   O14       1.0  0.43798072583248165  0.7908224234777917  0.9052289624798108  1.0000
  O   O15       1.0  0.6610749189620363  0.11615901317887989  0.7126225092889699  1.0000
  O   O16       1.0  0.33892474781708154  0.8838414319890402  0.2873771328454923  1.0000
  O   O17       1.0  0.8219355347259308  0.1202673279993434  0.5916581263334992  1.0000
  O   O18       1.0  0.1780661149073239  0.8797357090979503  0.4083425229711183  1.0000
  O   O19       1.0  0.647146548688724  0.1718769366289266  0.3559768346897912  1.0000
  O   O20       1.0  0.3528544375554289  0.8281235126080373  0.6440228881504951  1.0000
  O   O21       1.0  0.3890800500531597  0.23054182149203228  0.39907885108160474  1.0000
  O   O22       1.0  0.6109203241668765  0.769461218451134  0.6009195981279094  1.0000
  O   O23       1.0  0.009584458835760772  0.8120800821013672  0.574957186598688  1.0000
  O   O24       1.0  0.9904148542229051  0.18791906567893343  0.4250430519982516  1.0000
  O   O25       1.0  0.6514106529053832  0.1797914775982789  0.916319774083256  1.0000
  O   O26       1.0  0.3485889845058594  0.8202089629597037  0.08368128097739459  1.0000
  O   O27       1.0  0.1160535563573575  0.8005670369580428  0.7770487444472992  1.0000
  O   O28       1.0  0.8839454176647832  0.19943081573961047  0.22295138414901325  1.0000
