data_image0
_chemical_formula_structural       Tl8H48C28O16
_chemical_formula_sum              "Tl8 H48 C28 O16"
_cell_length_a       6.733522580710948
_cell_length_b       10.179187674124016
_cell_length_c       15.535775929366439
_cell_angle_alpha    90.00055998926567
_cell_angle_beta     102.28685944582881
_cell_angle_gamma    89.9998266296103

_space_group_name_H-M_alt    "P 1"
_space_group_IT_number       1

loop_
  _space_group_symop_operation_xyz
  'x, y, z'

loop_
  _atom_site_type_symbol
  _atom_site_label
  _atom_site_symmetry_multiplicity
  _atom_site_fract_x
  _atom_site_fract_y
  _atom_site_fract_z
  _atom_site_occupancy
  Tl  Tl1       1.0  0.3950240372977305  0.22621296744723904  0.1182272804853  1.0000
  Tl  Tl2       1.0  0.10499670638248657  0.726219785624039  0.3817809732158963  1.0000
  Tl  Tl3       1.0  0.6049781622653254  0.7737846557569411  0.8817750478658651  1.0000
  Tl  Tl4       1.0  0.8950054514477159  0.27377783755637347  0.6182181329565495  1.0000
  Tl  Tl5       1.0  0.8860092667077097  0.04481276436161609  0.10576949193854547  1.0000
  Tl  Tl6       1.0  0.6140029338272867  0.5448128690805161  0.3942351871113843  1.0000
  Tl  Tl7       1.0  0.11399293285355576  0.9551897708258822  0.8942328364283227  1.0000
  Tl  Tl8       1.0  0.386000768940832  0.4551857365100742  0.6057659890239507  1.0000
  H   H1        1.0  0.22810237989469329  0.5126446885296969  0.2548791472109997  1.0000
  H   H2        1.0  0.2719353802076796  0.012644942849156795  0.2451401995017406  1.0000
  H   H3        1.0  0.771902801037349  0.48735882901969757  0.7451189434138428  1.0000
  H   H4        1.0  0.7280699259254032  0.9873516979949032  0.7548675576372689  1.0000
  H   H5        1.0  0.9765609160414497  0.5638469390045842  0.2032947166091716  1.0000
  H   H6        1.0  0.5234771255910502  0.06384558271849979  0.2967136961046677  1.0000
  H   H7        1.0  0.023435137155161094  0.43614970176788836  0.7967019096428204  1.0000
  H   H8        1.0  0.4765281805423953  0.9361500757288961  0.7032940610312012  1.0000
  H   H9        1.0  0.07857461769566497  0.4150519698990534  0.17038946542879074  1.0000
  H   H10       1.0  0.42147338827206227  0.9150523738058493  0.3296256776101174  1.0000
  H   H11       1.0  0.9214244752980676  0.5849446708719268  0.829607434128242  1.0000
  H   H12       1.0  0.5785425321130332  0.08493935503541647  0.6703811027735969  1.0000
  H   H13       1.0  0.14657197237946204  0.22000181364828109  0.2853991579228535  1.0000
  H   H14       1.0  0.35345631689809653  0.719997727222477  0.21460522824183667  1.0000
  H   H15       1.0  0.8534210660604558  0.7799928623466172  0.7145991283250552  1.0000
  H   H16       1.0  0.6465610983440582  0.27999891358708595  0.7853997555028727  1.0000
  H   H17       1.0  0.293306969001243  0.34017380905164163  0.35211863479527483  1.0000
  H   H18       1.0  0.20671526160825238  0.8401710402141371  0.1478943508064106  1.0000
  H   H19       1.0  0.7066921406867052  0.6598198845388552  0.6478795536238239  1.0000
  H   H20       1.0  0.7932930509349632  0.15982756540274315  0.8521111019009452  1.0000
  H   H21       1.0  0.2795140837718932  0.11260687373633262  0.5288175197522662  1.0000
  H   H22       1.0  0.22047227653925455  0.6126137643269587  0.9711790764374442  1.0000
  H   H23       1.0  0.7204713301347994  0.8873897670413623  0.47117814993209356  1.0000
  H   H24       1.0  0.7795193087699983  0.38739368286333326  0.028824228684726352  1.0000
  H   H25       1.0  0.43160032696412987  0.2103635978228837  0.4733869856947592  1.0000
  H   H26       1.0  0.0684113422599779  0.7103750741388949  0.0266229245085228  1.0000
  H   H27       1.0  0.568395717886986  0.7896300957548517  0.526608996112067  1.0000
  H   H28       1.0  0.9315939304828901  0.28963237304944295  0.973382254922065  1.0000
  H   H29       1.0  0.31959807432284737  0.06315220100525208  0.4235052097978027  1.0000
  H   H30       1.0  0.18041365210542176  0.5631661206944542  0.07649989253104653  1.0000
  H   H31       1.0  0.6803843164812944  0.936840510196788  0.5764914754404415  1.0000
  H   H32       1.0  0.8195809563081722  0.436840344088182  0.9235023970215295  1.0000
  H   H33       1.0  0.7810222687849586  0.19216161051446073  0.3758903063826651  1.0000
  H   H34       1.0  0.7189941837445983  0.6921584617137952  0.12410025830319428  1.0000
  H   H35       1.0  0.21896919132432657  0.8078497661911753  0.6241033322159096  1.0000
  H   H36       1.0  0.2810095106780253  0.3078371966820582  0.875900273386975  1.0000
  H   H37       1.0  0.9016175803401579  0.08611533352721776  0.4617836972259326  1.0000
  H   H38       1.0  0.5983700129699727  0.5861259295284283  0.038199081997262886  1.0000
  H   H39       1.0  0.09835415447733449  0.913887201637166  0.5382107426045976  1.0000
  H   H40       1.0  0.4016245453659977  0.41387562324236876  0.9617993409251469  1.0000
  H   H41       1.0  0.9349388230055523  0.06014286601352126  0.35240941600704906  1.0000
  H   H42       1.0  0.5650731243065363  0.5601433671345503  0.1475766724280447  1.0000
  H   H43       1.0  0.06504355110008217  0.9398645811289511  0.6475859804068238  1.0000
  H   H44       1.0  0.4349229539297852  0.4398532736521829  0.8524218871311791  1.0000
  H   H45       1.0  0.021607809517305992  0.406696790959728  0.44146332350466383  1.0000
  H   H46       1.0  0.4784036415059204  0.9067038622591425  0.058542042114758885  1.0000
  H   H47       1.0  0.9783943316186876  0.593303779401168  0.5585344938057162  1.0000
  H   H48       1.0  0.5216000863011913  0.09329670813904298  0.941461067334089  1.0000
  C   C1        1.0  0.7828680489922986  0.3427257184137175  0.24740786726570013  1.0000
  C   C2        1.0  0.7171758105704881  0.8427166141581206  0.25259836413057  1.0000
  C   C3        1.0  0.2171476877646938  0.6572758342895921  0.7525847355630546  1.0000
  C   C4        1.0  0.2828203761723103  0.15727707950042455  0.7474085730839022  1.0000
  C   C5        1.0  0.9882146034791575  0.40375724203178714  0.2972193243679726  1.0000
  C   C6        1.0  0.5118155742482102  0.9037557350880402  0.20278928959341158  1.0000
  C   C7        1.0  0.011784489513502198  0.5962423459291841  0.702777575198482  1.0000
  C   C8        1.0  0.4881927299487926  0.09624188812742318  0.7972155186750598  1.0000
  C   C9        1.0  0.07286909635318749  0.4785987220100906  0.22685829170373492  1.0000
  C   C10       1.0  0.4271742869145356  0.9785982779449253  0.2731555588205339  1.0000
  C   C11       1.0  0.9271269735362109  0.5213989011685526  0.7731396234228853  1.0000
  C   C12       1.0  0.5728370654254391  0.0214013100671195  0.7268501671950033  1.0000
  C   C13       1.0  0.14181972177426158  0.29426352427497443  0.3363504457527853  1.0000
  C   C14       1.0  0.3582115782190058  0.7942616208567299  0.1636566218595732  1.0000
  C   C15       1.0  0.8581778513191196  0.70573802848007  0.6636463171674336  1.0000
  C   C16       1.0  0.6418012773253138  0.20574091433505248  0.8363479519464151  1.0000
  C   C17       1.0  0.10660113098129638  0.22556322214116872  0.4203104256804764  1.0000
  C   C18       1.0  0.3934088904161896  0.7255717848963242  0.0796904229467614  1.0000
  C   C19       1.0  0.8933918907644127  0.774434401034213  0.5796865717053663  1.0000
  C   C20       1.0  0.6065993970862492  0.2744297678962795  0.9203130964627846  1.0000
  C   C21       1.0  0.2954565031536943  0.1477977880425598  0.46380722727570156  1.0000
  C   C22       1.0  0.2045460588880132  0.6478130209727478  0.03619888523651579  1.0000
  C   C23       1.0  0.7045304056136387  0.8521939407368104  0.5361866457382405  1.0000
  C   C24       1.0  0.7954409333389307  0.3521954085974314  0.9638014321882622  1.0000
  C   C25       1.0  0.9199912516686196  0.13571705414524618  0.40116698559592834  1.0000
  C   C26       1.0  0.580014669477009  0.6357197471985996  0.0988274171211572  1.0000
  C   C27       1.0  0.0799971769929755  0.8642864633933338  0.5988270241082247  1.0000
  C   C28       1.0  0.4199829370048035  0.36427591119548447  0.9011719235231935  1.0000
  O   O1        1.0  0.7907490917167549  0.2639714140871162  0.1842606753162244  1.0000
  O   O2        1.0  0.7092932803039884  0.7639573671557257  0.31574298255048217  1.0000
  O   O3        1.0  0.20925919578317576  0.7360370154821323  0.8157428441153061  1.0000
  O   O4        1.0  0.290721028366704  0.2360441856006189  0.6842565724189313  1.0000
  O   O5        1.0  0.6166875016587239  0.37583086210628375  0.2675612187045644  1.0000
  O   O6        1.0  0.8833502207992723  0.8758161639475617  0.23244209999463553  1.0000
  O   O7        1.0  0.38330845971882604  0.6241844441504937  0.7324283188139233  1.0000
  O   O8        1.0  0.1166640962179883  0.12418538881353668  0.7675580994105289  1.0000
  O   O9        1.0  0.9624130978697277  0.49117044736816234  0.3652533370927529  1.0000
  O   O10       1.0  0.5376201310683513  0.9911708222890635  0.1347619090202912  1.0000
  O   O11       1.0  0.0375966511052752  0.5088311053904206  0.6347458079191031  1.0000
  O   O12       1.0  0.4623836134311787  0.008831712911948798  0.8652424893063327  1.0000
  O   O13       1.0  0.07595207415677409  0.3264833631146899  0.48270573529561034  1.0000
  O   O14       1.0  0.4240487793410069  0.8264909326794122  0.017296872002653216  1.0000
  O   O15       1.0  0.9240470438759513  0.6735152424638782  0.5172930975749352  1.0000
  O   O16       1.0  0.5759610113672052  0.17350963770628167  0.9827054951847884  1.0000
