data_image0
_chemical_formula_structural       CuH12C12N8O6
_chemical_formula_sum              "Cu1 H12 C12 N8 O6"
_cell_length_a       6.7758375094693495
_cell_length_b       7.3582781588479556
_cell_length_c       9.242214387361738
_cell_angle_alpha    94.09091511347509
_cell_angle_beta     111.40070674500603
_cell_angle_gamma    112.27270772367191

_space_group_name_H-M_alt    "P 1"
_space_group_IT_number       1

loop_
  _space_group_symop_operation_xyz
  'x, y, z'

loop_
  _atom_site_type_symbol
  _atom_site_label
  _atom_site_symmetry_multiplicity
  _atom_site_fract_x
  _atom_site_fract_y
  _atom_site_fract_z
  _atom_site_occupancy
  Cu  Cu1       1.0  3.594692259256483e-07  0.49999875622499684  0.5000006291522683  1.0000
  H   H1        1.0  0.8817133867719136  0.7075741074867281  0.720038069409462  1.0000
  H   H2        1.0  0.11829046408556111  0.2924241569064847  0.27996054042115054  1.0000
  H   H3        1.0  0.48375949002542024  0.2842349168693232  0.27905023836243  1.0000
  H   H4        1.0  0.5162435397872615  0.715764858896776  0.720948233866672  1.0000
  H   H5        1.0  0.7447543531801912  0.2865574290420625  0.1457439306320438  1.0000
  H   H6        1.0  0.25525184962104674  0.7134423521335123  0.8542553918477654  1.0000
  H   H7        1.0  0.6684311523561421  0.39191596869608253  0.8857302473963887  1.0000
  H   H8        1.0  0.3315694713859473  0.6080853202713924  0.11426874474293675  1.0000
  H   H9        1.0  0.07874563375053605  0.8914466974110764  0.39706747372650864  1.0000
  H   H10       1.0  0.9212471175209273  0.10855156618190881  0.6029324907750039  1.0000
  H   H11       1.0  0.9951829114058486  0.9957041225193066  0.13353696190527145  1.0000
  H   H12       1.0  0.0048074352635155  0.0042956588082887015  0.8664646051435698  1.0000
  C   C1        1.0  0.7107253654418599  0.6147154322655054  0.621704993454074  1.0000
  C   C2        1.0  0.28927531389554423  0.38528283125147317  0.37829384876292255  1.0000
  C   C3        1.0  0.4925784217131267  0.3813747811161862  0.3781742324083269  1.0000
  C   C4        1.0  0.5074238441185557  0.6186234851055302  0.6218250349340267  1.0000
  C   C5        1.0  0.8042958368345269  0.44579768272767956  0.14317766079966537  1.0000
  C   C6        1.0  0.19570719444664075  0.5542020975716542  0.8568218940665349  1.0000
  C   C7        1.0  0.7600209527733455  0.5059560402008003  0.9994197127400215  1.0000
  C   C8        1.0  0.23997731902498035  0.4940437319843198  0.0005785667501073011  1.0000
  C   C9        1.0  0.9877445748918633  0.7809852810627974  0.2820928064843003  1.0000
  C   C10       1.0  0.012249762873878573  0.21901298523492588  0.7179075831425694  1.0000
  C   C11       1.0  0.9399263124539488  0.8366978889982237  0.1361320139170132  1.0000
  C   C12       1.0  0.06006720720397144  0.16330189773885456  0.8638704033825422  1.0000
  N   N1        1.0  0.7026377480803347  0.496681899393181  0.5005657232412661  1.0000
  N   N2        1.0  0.2973613988896133  0.5033133314353222  0.49943146129094634  1.0000
  N   N3        1.0  0.9205514561902391  0.5846298207238477  0.2842241136093265  1.0000
  N   N4        1.0  0.07944922461564372  0.415368447326358  0.7157758112447682  1.0000
  N   N5        1.0  0.828304332499542  0.7012475760397126  0.9951659089862094  1.0000
  N   N6        1.0  0.17169153469667728  0.29875371388001787  0.004833973051248134  1.0000
  N   N7        1.0  0.607488238997256  0.9888303619815701  0.2927132679532536  1.0000
  N   N8        1.0  0.3925272647938769  0.011181550824140601  0.7072924528793083  1.0000
  O   O1        1.0  0.8138253009828632  0.13917777742164367  0.35586534182702695  1.0000
  O   O2        1.0  0.18613922255795498  0.8608022711833526  0.64412282297279  1.0000
  O   O3        1.0  0.44961412630424774  0.9928012325792325  0.16856460414061306  1.0000
  O   O4        1.0  0.5504065422903038  0.007189560052751205  0.8314532516198201  1.0000
  O   O5        1.0  0.5682148009976233  0.840311627944516  0.3556599464478581  1.0000
  O   O6        1.0  0.4318011814554978  0.1597168989919169  0.6443403156975905  1.0000
