data_image0
_chemical_formula_structural       Zn2H14C36Br4N6Cl4O8
_chemical_formula_sum              "Zn2 H14 C36 Br4 N6 Cl4 O8"
_cell_length_a       11.036261659478855
_cell_length_b       15.95859270686308
_cell_length_c       17.27861298853002
_cell_angle_alpha    99.20553894419598
_cell_angle_beta     93.03831725838809
_cell_angle_gamma    99.79732391233284

_space_group_name_H-M_alt    "P 1"
_space_group_IT_number       1

loop_
  _space_group_symop_operation_xyz
  'x, y, z'

loop_
  _atom_site_type_symbol
  _atom_site_label
  _atom_site_symmetry_multiplicity
  _atom_site_fract_x
  _atom_site_fract_y
  _atom_site_fract_z
  _atom_site_occupancy
  Zn  Zn1       1.0  0.4708504137004112  0.4110484552282401  0.4955588179336704  1.0000
  Zn  Zn2       1.0  0.5225100760737007  0.5966831837740258  0.5125588925767632  1.0000
  H   H1        1.0  0.3907276106637382  0.7017045757529271  0.4344262755786802  1.0000
  H   H2        1.0  0.3824543439776491  0.8572930372542372  0.42832083920437486  1.0000
  H   H3        1.0  0.6982180571556995  0.9272114785077362  0.5995946406541466  1.0000
  H   H4        1.0  0.3057910211428592  0.08008900975904959  0.40309951461900095  1.0000
  H   H5        1.0  0.6335126753312394  0.15085731008893785  0.5644247556797525  1.0000
  H   H6        1.0  0.6192535515051246  0.30679028316828294  0.562520416419176  1.0000
  H   H7        1.0  0.46206572620696557  0.6124964242322901  0.26868826837936416  1.0000
  H   H8        1.0  0.4682685346839293  0.6114093422601385  0.12354451846959345  1.0000
  H   H9        1.0  0.5434737888366357  0.3531493055090066  0.09551926525395522  1.0000
  H   H10       1.0  0.4519935573694837  0.6516843369488824  0.909917977869448  1.0000
  H   H11       1.0  0.5377530326549405  0.39629316421477506  0.8856398086133483  1.0000
  H   H12       1.0  0.5378614781033805  0.3914825359166797  0.7395356557816444  1.0000
  H   H13       1.0  0.7763692046086987  0.5591215912525199  0.3769130402459667  1.0000
  H   H14       1.0  0.2307746208314754  0.5721454477865607  0.3854575775120425  1.0000
  C   C1        1.0  0.4875506826106601  0.4915376085243324  0.3515564735585458  1.0000
  C   C2        1.0  0.2637423561414066  0.5109548818923813  0.5087798076257642  1.0000
  C   C3        1.0  0.5049992587977314  0.5100482316674047  0.6550056907200814  1.0000
  C   C4        1.0  0.7328257843077708  0.5047907902063855  0.5043279035233044  1.0000
  C   C5        1.0  0.4565278245944597  0.7542821281635027  0.4697303583569906  1.0000
  C   C6        1.0  0.4521420501295879  0.8397184981017529  0.4664514875510975  1.0000
  C   C7        1.0  0.5405146504157371  0.9033642491335669  0.5142682276846531  1.0000
  C   C8        1.0  0.6288982632719851  0.8787873791652171  0.5624280884350699  1.0000
  C   C9        1.0  0.6254699714596513  0.7907384845176892  0.5620412687068994  1.0000
  C   C10       1.0  0.37633397637987537  0.1287367093033822  0.439006122517654  1.0000
  C   C11       1.0  0.4694285445615948  0.10448504781858499  0.4836282375646734  1.0000
  C   C12       1.0  0.55981502770711  0.1683809178991353  0.5295324141747673  1.0000
  C   C13       1.0  0.5517851385250766  0.2538363857034867  0.5289207229149754  1.0000
  C   C14       1.0  0.3761407334081496  0.21673038816585685  0.44194615429271533  1.0000
  C   C15       1.0  0.4962903343295577  0.48407464694952995  0.2642861349073514  1.0000
  C   C16       1.0  0.4791070260027083  0.5558724416137437  0.22950420978806832  1.0000
  C   C17       1.0  0.4826848093436809  0.5557357172348389  0.14958945226639742  1.0000
  C   C18       1.0  0.5053865943473141  0.4814400737139692  0.10100188826974944  1.0000
  C   C19       1.0  0.5248765970145044  0.4098068154645274  0.1339386884189722  1.0000
  C   C20       1.0  0.5204405614807328  0.41052137171752884  0.2146361306000984  1.0000
  C   C21       1.0  0.472376265783346  0.595136443123799  0.8721977239264551  1.0000
  C   C22       1.0  0.49591307072981994  0.5250171366452107  0.9062415805198898  1.0000
  C   C23       1.0  0.5203622471188823  0.45063835870212887  0.8585563525171697  1.0000
  C   C24       1.0  0.5208786309285074  0.4485578372071259  0.7782057073883951  1.0000
  C   C25       1.0  0.49943985544151553  0.5188325706839122  0.7425087801135535  1.0000
  C   C26       1.0  0.4742424411466287  0.5925210780721031  0.7911422507359662  1.0000
  C   C27       1.0  0.8700018705506595  0.5070799758601225  0.5069333851477256  1.0000
  C   C28       1.0  0.9356885593910887  0.53558770478228  0.44409733284035025  1.0000
  C   C29       1.0  0.9328752621978537  0.4840439757219385  0.5694620955023313  1.0000
  C   C30       1.0  0.8755424397487487  0.5613611553823146  0.3795602489244133  1.0000
  C   C31       1.0  0.9410804997703364  0.5915479454301219  0.3207979265784929  1.0000
  C   C32       1.0  0.12738227324865653  0.5114737278705732  0.5097366012507865  1.0000
  C   C33       1.0  0.062317407254731394  0.4862031723351663  0.5709087528430106  1.0000
  C   C34       1.0  0.06609703226180838  0.5384468936598096  0.44594250041433287  1.0000
  C   C35       1.0  0.13132219462205794  0.5690712784645553  0.3844124697393668  1.0000
  C   C36       1.0  0.07098335833428136  0.5965107375333715  0.32385695213722704  1.0000
  Br  Br1       1.0  0.1495192215812509  0.4573054296101374  0.657616900423257  1.0000
  Br  Br2       1.0  0.8461392486585025  0.4531578056808668  0.6559913158002788  1.0000
  Br  Br3       1.0  0.8530049219318556  0.6254553970520857  0.23730252008196842  1.0000
  Br  Br4       1.0  0.16580943948015656  0.6415523402810164  0.2463080958703402  1.0000
  N   N1        1.0  0.5413567218134502  0.7296843035524957  0.5167645691382108  1.0000
  N   N2        1.0  0.548636215755323  0.9937967477796688  0.5186771192526296  1.0000
  N   N3        1.0  0.4625813025530475  0.014091481574567405  0.47854865108639205  1.0000
  N   N4        1.0  0.4612396224141477  0.27801887250304697  0.486107585560383  1.0000
  N   N5        1.0  0.5105977244482105  0.47124547477797296  0.018547682076324214  1.0000
  N   N6        1.0  0.4914120095464227  0.5358841852060365  0.9888070974018109  1.0000
  Cl  Cl1       1.0  0.7315147694217855  0.7590135923814784  0.6214671888269694  1.0000
  Cl  Cl2       1.0  0.26334714380353563  0.24835092278549803  0.3877348754129032  1.0000
  Cl  Cl3       1.0  0.5491638352169516  0.31812314742202114  0.24722194614799528  1.0000
  Cl  Cl4       1.0  0.4389531765561685  0.6814031975454213  0.7552414376605798  1.0000
  O   O1        1.0  0.47854590429223265  0.4228335710413518  0.38054001036326224  1.0000
  O   O2        1.0  0.4893155229114469  0.5670965592285171  0.39032553236283735  1.0000
  O   O3        1.0  0.33410638533313625  0.5842670219369522  0.5205986217567118  1.0000
  O   O4        1.0  0.294449729407944  0.43753440272359967  0.4937114737779284  1.0000
  O   O5        1.0  0.5364388475134021  0.5784469049313188  0.626894752353117  1.0000
  O   O6        1.0  0.4792961514322157  0.4333777835107567  0.6160644427020615  1.0000
  O   O7        1.0  0.6642000986310919  0.4323072205854999  0.5022247157169561  1.0000
  O   O8        1.0  0.6989108872228725  0.5767744854201807  0.5025585758656278  1.0000
