data_image0
_chemical_formula_structural       ZnH27C24SN3O8
_chemical_formula_sum              "Zn1 H27 C24 S1 N3 O8"
_cell_length_a       5.132662459648096
_cell_length_b       10.029020466135105
_cell_length_c       12.461410704521064
_cell_angle_alpha    77.07310059120051
_cell_angle_beta     82.37419464900263
_cell_angle_gamma    82.11391145903983

_space_group_name_H-M_alt    "P 1"
_space_group_IT_number       1

loop_
  _space_group_symop_operation_xyz
  'x, y, z'

loop_
  _atom_site_type_symbol
  _atom_site_label
  _atom_site_symmetry_multiplicity
  _atom_site_fract_x
  _atom_site_fract_y
  _atom_site_fract_z
  _atom_site_occupancy
  Zn  Zn1       1.0  0.24599627256845485  0.4755299940040062  0.16822418420691318  1.0000
  H   H1        1.0  0.054051430166602216  0.7790996319745888  0.008285869952168033  1.0000
  H   H2        1.0  0.13275761712753112  0.9375587166239613  0.8279995858875322  1.0000
  H   H3        1.0  0.5746990797769841  0.7379956818426621  0.7032806981199184  1.0000
  H   H4        1.0  0.5185370337930381  0.5860211598360294  0.8911340104426344  1.0000
  H   H5        1.0  0.7686551292099041  0.9285486755721165  0.579361295295193  1.0000
  H   H6        1.0  0.22258546704599524  0.03540780448132352  0.6644305528397182  1.0000
  H   H7        1.0  0.409367621131807  0.22201945586981964  0.554776510314653  1.0000
  H   H8        1.0  0.46308293142622875  0.3946440164864597  0.3771163465109524  1.0000
  H   H9        1.0  0.9333859246025469  0.22243618169462562  0.23782900697601406  1.0000
  H   H10       1.0  0.8572806597049123  0.045065564095828806  0.4078196511888591  1.0000
  H   H11       1.0  0.17322237877018415  0.22628136809668584  0.8671530854116225  1.0000
  H   H12       1.0  0.13953958339828182  0.0387559565230333  0.0267974741944528  1.0000
  H   H13       1.0  0.4236271914650375  0.01268767163916352  0.9342281581456502  1.0000
  H   H14       1.0  0.4122747041097271  0.09163453919565971  0.1596741901621854  1.0000
  H   H15       1.0  0.6980461684680536  0.08626357166939162  0.066018973610511  1.0000
  H   H16       1.0  0.18447604802191364  0.4646490471824267  0.7604193817768061  1.0000
  H   H17       1.0  0.039683333695414505  0.6660546466803653  0.619514486337067  1.0000
  H   H18       1.0  0.7618469737510127  0.6021918692120495  0.4096132856847132  1.0000
  H   H19       1.0  0.9088316069673469  0.39784079154420493  0.5511138914497734  1.0000
  H   H20       1.0  0.10981967257652772  0.7606665784786346  0.3919703994092386  1.0000
  H   H21       1.0  0.44453548552377964  0.7909566887854426  0.3476305926215132  1.0000
  H   H22       1.0  0.2640075610252239  0.8644674592006614  0.4563909110920504  1.0000
  H   H23       1.0  0.6810362951523316  0.28999710414070995  0.9289396422978269  1.0000
  H   H24       1.0  0.7330496300633201  0.4132348286836631  0.10782798126877678  1.0000
  H   H25       1.0  0.6911032319800441  0.5745958689197936  0.07939829162695836  1.0000
  H   H26       1.0  0.9355377010242308  0.7058635586145529  0.21042111546673678  1.0000
  H   H27       1.0  0.25017100604575404  0.712029804203354  0.18371002328504454  1.0000
  C   C1        1.0  0.9520642082354557  0.7716716029408985  0.9386925886881127  1.0000
  C   C2        1.0  0.9962880341950254  0.8606971308613608  0.8369928999345645  1.0000
  C   C3        1.0  0.8631879035392063  0.8506948185878399  0.7478307360176542  1.0000
  C   C4        1.0  0.6855298239219396  0.7505517806590165  0.7686268125842942  1.0000
  C   C5        1.0  0.6539640388318658  0.6651969498213219  0.8731349727185743  1.0000
  C   C6        1.0  0.9043876121388126  0.9371508608523557  0.6375815342443543  1.0000
  C   C7        1.0  0.0909634783037419  0.025090553775015702  0.6054937420104877  1.0000
  C   C8        1.0  0.12543205192277185  0.11911957742305652  0.4987143821614095  1.0000
  C   C9        1.0  0.30155443008230526  0.21903245970363375  0.4859176699675699  1.0000
  C   C10       1.0  0.331175957024982  0.3151701831070355  0.3876254502101942  1.0000
  C   C11       1.0  0.03341262467614572  0.21951246689553028  0.31039039007519154  1.0000
  C   C12       1.0  0.9923013167947304  0.12048163954234781  0.40638533419658524  1.0000
  C   C13       1.0  0.14364395416957623  0.3172327438566712  0.007050516808639884  1.0000
  C   C14       1.0  0.29667222952153344  0.22414055955793802  0.9330916446260316  1.0000
  C   C15       1.0  0.33498878798400983  0.0731390165930534  0.9960228420216806  1.0000
  C   C16       1.0  0.5082037873082044  0.0433927548455202  0.09095001050975067  1.0000
  C   C17       1.0  0.5620288437356322  0.8891914253738238  0.13899164642640466  1.0000
  C   C18       1.0  0.5553452489022419  0.418098992724879  0.6636599033071562  1.0000
  C   C19       1.0  0.31164159318556983  0.49425706414786663  0.6839664289935355  1.0000
  C   C20       1.0  0.2310616151648689  0.6080699633825333  0.6041881923198316  1.0000
  C   C21       1.0  0.38893667922349834  0.6489772274226908  0.5041998476596203  1.0000
  C   C22       1.0  0.6342168619236689  0.5718421907149108  0.486265475935319  1.0000
  C   C23       1.0  0.7175852109085952  0.45678825665742545  0.5651045369527523  1.0000
  C   C24       1.0  0.2978522399355654  0.7726472396359156  0.4200853395283416  1.0000
  S   S1        1.0  0.6547976981334571  0.26158810114542774  0.755020633842875  1.0000
  N   N1        1.0  0.7847824751019133  0.6745346039698107  0.9571706892798699  1.0000
  N   N2        1.0  0.19816008269677357  0.3170396908071923  0.3006938571578742  1.0000
  N   N3        1.0  0.5440983130705561  0.2770414302132381  0.8797205473822484  1.0000
  O   O1        1.0  0.9054592352749395  0.2979666815781385  0.040804918821479005  1.0000
  O   O2        1.0  0.26891489097317134  0.4064236205850591  0.03164047315067362  1.0000
  O   O3        1.0  0.7471988652879562  0.8492024329582721  0.2011447023874665  1.0000
  O   O4        1.0  0.41487241010200654  0.811702565094599  0.11299242493699069  1.0000
  O   O5        1.0  0.5245485901244537  0.15611956367934002  0.7272432589255827  1.0000
  O   O6        1.0  0.9411716517009764  0.2486094099863935  0.7456453196524958  1.0000
  O   O7        1.0  0.64538840394696  0.49227069336054546  0.14230977965937083  1.0000
  O   O8        1.0  0.11090904320879255  0.6440043423553947  0.21795236467200843  1.0000
