data_image0
_chemical_formula_structural       Ni3H60C48S6N18
_chemical_formula_sum              "Ni3 H60 C48 S6 N18"
_cell_length_a       8.575386889943001
_cell_length_b       10.852093206666602
_cell_length_c       16.4272
_cell_angle_alpha    71.89154337251772
_cell_angle_beta     75.8442956933149
_cell_angle_gamma    71.3586280869036

_space_group_name_H-M_alt    "P 1"
_space_group_IT_number       1

loop_
  _space_group_symop_operation_xyz
  'x, y, z'

loop_
  _atom_site_type_symbol
  _atom_site_label
  _atom_site_symmetry_multiplicity
  _atom_site_fract_x
  _atom_site_fract_y
  _atom_site_fract_z
  _atom_site_occupancy
  Ni  Ni1       1.0  0.9998026379332359  0.5000465696760372  0.49999773688202237  1.0000
  Ni  Ni2       1.0  0.6753729076546618  0.4985175658735344  0.8352145870488243  1.0000
  Ni  Ni3       1.0  0.32469387654577275  0.501566526118765  0.16474379285432414  1.0000
  H   H1        1.0  0.7692788801197424  0.7132687133542461  0.5916304255977777  1.0000
  H   H2        1.0  0.23079266658006503  0.2869108785468271  0.4084867086793835  1.0000
  H   H3        1.0  0.6802504361989251  0.9579455111944738  0.5674954980829411  1.0000
  H   H4        1.0  0.3199191411507982  0.0421918596942916  0.4325423058310918  1.0000
  H   H5        1.0  0.03823805244724105  0.979645100991263  0.3277499096778556  1.0000
  H   H6        1.0  0.9620086269331977  0.0202791543116163  0.6722998953529853  1.0000
  H   H7        1.0  0.1048718461274163  0.7328783630422819  0.36256255225480766  1.0000
  H   H8        1.0  0.8952551417704769  0.266963460760401  0.6375748548496245  1.0000
  H   H9        1.0  0.549139761181621  0.1755368744156272  0.4851117774227022  1.0000
  H   H10       1.0  0.4510526466750236  0.824413517704393  0.5149188921040847  1.0000
  H   H11       1.0  0.646776084742477  0.3075368483166088  0.45993413024361013  1.0000
  H   H12       1.0  0.35326107230315507  0.6924798911084551  0.5400071630248532  1.0000
  H   H13       1.0  0.6922600389711703  0.1695354590961244  0.550414089926086  1.0000
  H   H14       1.0  0.3079332550697202  0.8305405907985985  0.4495760551249504  1.0000
  H   H15       1.0  0.017210850949496093  0.1822721311393565  0.3433920385962779  1.0000
  H   H16       1.0  0.9828917625099436  0.8178310608346919  0.6565803689682213  1.0000
  H   H17       1.0  0.837887624678487  0.3177392543597648  0.35153600061029516  1.0000
  H   H18       1.0  0.16206032280708627  0.6822744692787026  0.648355817434826  1.0000
  H   H19       1.0  0.8482120750582353  0.20607774524005856  0.28969061003858343  1.0000
  H   H20       1.0  0.15195469791845534  0.7937711153980089  0.710302087576572  1.0000
  H   H21       1.0  0.9326098409245845  0.2660707879289603  0.7722503651563032  1.0000
  H   H22       1.0  0.06736101657256914  0.7337740516603191  0.22763728915746373  1.0000
  H   H23       1.0  0.0311471755934463  0.0196066339014465  0.8185098749119817  1.0000
  H   H24       1.0  0.9687551193992832  0.9803115898282542  0.18147251631310723  1.0000
  H   H25       1.0  0.6509255202936898  0.0385296895085361  0.04839487034509199  1.0000
  H   H26       1.0  0.3489709584851114  0.961600644544845  0.9515678429658507  1.0000
  H   H27       1.0  0.576717373215473  0.2832245820683283  0.9924576981264793  1.0000
  H   H28       1.0  0.42300760912783625  0.7168786099057272  0.007357163396633828  1.0000
  H   H29       1.0  0.0014539164231664786  0.8043967368263409  0.8488270083999367  1.0000
  H   H30       1.0  0.9984389959086001  0.1955757710620247  0.15121483154383947  1.0000
  H   H31       1.0  0.0433921957580736  0.6799583451754998  0.946559437025627  1.0000
  H   H32       1.0  0.9564897403370975  0.3200402995300067  0.05349243867129158  1.0000
  H   H33       1.0  0.14763668099886476  0.8090732165694448  0.9080875579678107  1.0000
  H   H34       1.0  0.8522721953938159  0.1908982860567221  0.09194088415308956  1.0000
  H   H35       1.0  0.8127117961072656  0.8269648731618346  0.10174870094173374  1.0000
  H   H36       1.0  0.18717967661967796  0.1731513872207913  0.8982668496903727  1.0000
  H   H37       1.0  0.8575889570118631  0.6889654944657408  0.056529684054062654  1.0000
  H   H38       1.0  0.1423846187591451  0.3110874343984307  0.9435602208973394  1.0000
  H   H39       1.0  0.6710894866033498  0.8191600174598861  0.04048464277855152  1.0000
  H   H40       1.0  0.3288436017359828  0.1808476746053955  0.9595564098801006  1.0000
  H   H41       1.0  0.4348186035024925  0.7170002466316276  0.7228631510453667  1.0000
  H   H42       1.0  0.5650513542121017  0.2829028981651049  0.27727621631991184  1.0000
  H   H43       1.0  0.33772430728264885  0.9641479789534984  0.6782762314889723  1.0000
  H   H44       1.0  0.6622170952580433  0.0357903500201573  0.32180600446203306  1.0000
  H   H45       1.0  0.6877121529859878  0.9736296120009912  0.8269766507737444  1.0000
  H   H46       1.0  0.31234994162521446  0.0263147485458433  0.17301832396879752  1.0000
  H   H47       1.0  0.7620654972037783  0.7258807328849812  0.866534685285096  1.0000
  H   H48       1.0  0.23803046698407127  0.2740777013326223  0.1334646419221741  1.0000
  H   H49       1.0  0.3488850835856425  0.1684940074594365  0.6131150512008929  1.0000
  H   H50       1.0  0.6512112583419452  0.8313679215872014  0.3868790846720245  1.0000
  H   H51       1.0  0.3213045335149545  0.3107838452147647  0.6512838196221296  1.0000
  H   H52       1.0  0.6786650484251879  0.6891052259112058  0.34869535860113393  1.0000
  H   H53       1.0  0.20441902150164992  0.1926162791523751  0.7087762920247441  1.0000
  H   H54       1.0  0.7956819720040895  0.8072094604551481  0.2912173758575847  1.0000
  H   H55       1.0  0.5147102201157522  0.1838624559359161  0.8259971741853036  1.0000
  H   H56       1.0  0.48533230249393  0.816082909873117  0.1739830479036897  1.0000
  H   H57       1.0  0.4769090888296147  0.3153055145794426  0.7311597513005169  1.0000
  H   H58       1.0  0.5231001870516393  0.6846458828027764  0.26883443419907843  1.0000
  H   H59       1.0  0.6685482244825706  0.1887651196734765  0.7309656154327016  1.0000
  H   H60       1.0  0.3314770949642566  0.8112033671661009  0.2690144904210925  1.0000
  C   C1        1.0  0.007489605814697626  0.4930328553235768  0.6908668078586756  1.0000
  C   C2        1.0  0.9921700725295963  0.5069577472843463  0.3090616895484004  1.0000
  C   C3        1.0  0.8244101104496407  0.7761227322574342  0.5332097961923097  1.0000
  C   C4        1.0  0.1757885987994072  0.2239844807654094  0.46690353051716477  1.0000
  C   C5        1.0  0.775176836557236  0.9143975527956556  0.5193814085122312  1.0000
  C   C6        1.0  0.22499849728531268  0.0856965918186177  0.48067671111917315  1.0000
  C   C7        1.0  0.8496668850749386  0.9960037327323549  0.4439785696126748  1.0000
  C   C8        1.0  0.15054141393247278  0.0039898856621647  0.5560466741985763  1.0000
  C   C9        1.0  0.9733209973841925  0.9261380100011039  0.38695504991465407  1.0000
  C   C10       1.0  0.026940193263300202  0.07380434002134  0.613110493256819  1.0000
  C   C11       1.0  0.011586277922120327  0.7873796583458414  0.4062950762566615  1.0000
  C   C12       1.0  0.9885840549070791  0.2125647022009929  0.5937956546214664  1.0000
  C   C13       1.0  0.6659990337665603  0.1987905995698611  0.48371228210085354  1.0000
  C   C14       1.0  0.334170432661935  0.80121508197103  0.5162825700242095  1.0000
  C   C15       1.0  0.8807548113078383  0.21271850731721997  0.3488566711629487  1.0000
  C   C16       1.0  0.11934615893186869  0.7872540005711457  0.6511220822860295  1.0000
  C   C17       1.0  0.6694710497874253  0.4970116831015686  0.6450900744805637  1.0000
  C   C18       1.0  0.33159435365768525  0.5032141508605861  0.3546782316622625  1.0000
  C   C19       1.0  0.6659894873600223  0.5051090701030105  0.02517121262972206  1.0000
  C   C20       1.0  0.333116698456564  0.49484936411459307  0.9749891731526574  1.0000
  C   C21       1.0  0.8737271534191535  0.21115431933780118  0.8332237132845818  1.0000
  C   C22       1.0  0.12609922240617522  0.7887900412090403  0.16666012530887994  1.0000
  C   C23       1.0  0.9282241710209644  0.0724291413350642  0.8594120925412553  1.0000
  C   C24       1.0  0.07162001258791412  0.9275232613093537  0.1405317397100703  1.0000
  C   C25       1.0  0.8490361807618002  0.0016797931321405998  0.9384839801128634  1.0000
  C   C26       1.0  0.1508340402888138  0.9983289041953397  0.06149975621271154  1.0000
  C   C27       1.0  0.7183225025222055  0.0826395894758036  0.986542778064951  1.0000
  C   C28       1.0  0.28154157770133276  0.9174465130408933  0.013388715016219488  1.0000
  C   C29       1.0  0.675350019347803  0.22096266259951142  0.9551129276215136  1.0000
  C   C30       1.0  0.32441249519536086  0.779121429392788  0.04473758895929343  1.0000
  C   C31       1.0  0.02825136755701148  0.7865764538499818  0.9144157273142142  1.0000
  C   C32       1.0  0.9716393349454078  0.2134101277091531  0.08562472248060259  1.0000
  C   C33       1.0  0.8037143559543979  0.7975167223461597  0.04505968514013153  1.0000
  C   C34       1.0  0.19620170645893606  0.20253922230460833  0.9549845908217948  1.0000
  C   C35       1.0  0.486980199668423  0.7783111880615436  0.7445872006035046  1.0000
  C   C36       1.0  0.5129264420728672  0.2216231198633167  0.2554990812366142  1.0000
  C   C37       1.0  0.43346887702534787  0.9171258343998687  0.7195068035013248  1.0000
  C   C38       1.0  0.5664890511473641  0.0828024419518059  0.2805619943971037  1.0000
  C   C39       1.0  0.5046450966021752  0.9956750119937468  0.7473717762030674  1.0000
  C   C40       1.0  0.49537940453204493  0.0042592959311136  0.2526513681500901  1.0000
  C   C41       1.0  0.6271056863340476  0.9223964241017342  0.8018228026500579  1.0000
  C   C42       1.0  0.37292492576669634  0.0775449206585037  0.1981944641880702  1.0000
  C   C43       1.0  0.6698981637776881  0.7833716779641264  0.8240109232524091  1.0000
  C   C44       1.0  0.3301344262329522  0.21656363522293276  0.17601585199492586  1.0000
  C   C45       1.0  0.326934119790991  0.2038671736675965  0.671780007142914  1.0000
  C   C46       1.0  0.6731421862961682  0.7960118448363929  0.3282113513716567  1.0000
  C   C47       1.0  0.5336266718728025  0.2080601222936735  0.7546837315134097  1.0000
  C   C48       1.0  0.4663924388753102  0.7918942908751418  0.2452957955081203  1.0000
  S   S1        1.0  0.9749840090312389  0.5028582880426455  0.7907938021111675  1.0000
  S   S2        1.0  0.022862222102389824  0.4968458148389701  0.2093209405847674  1.0000
  S   S3        1.0  0.6979598120113336  0.5046898757666227  0.5420892805911137  1.0000
  S   S4        1.0  0.3049597963771192  0.4953057531522873  0.45759854236277414  1.0000
  S   S5        1.0  0.6230567878538977  0.5026280829994008  0.1276893479271024  1.0000
  S   S6        1.0  0.376360628315652  0.4974851615966216  0.8724597831853771  1.0000
  N   N1        1.0  0.03190011997375561  0.4837090484410993  0.6186284543496895  1.0000
  N   N2        1.0  0.9718064433668516  0.5166263591005915  0.3809743594739317  1.0000
  N   N3        1.0  0.9397472414782794  0.7108470367202955  0.4778171066638918  1.0000
  N   N4        1.0  0.06038477225501279  0.2891958395219092  0.5223124663384056  1.0000
  N   N5        1.0  0.803861564111962  0.1320301317669106  0.4272773201694378  1.0000
  N   N6        1.0  0.19631154671220238  0.8679534340056348  0.5727264777166496  1.0000
  N   N7        1.0  0.6520069541318135  0.4904593840977967  0.7199486200857875  1.0000
  N   N8        1.0  0.3445951002514677  0.5101635284324004  0.2800608158103657  1.0000
  N   N9        1.0  0.6975028256892415  0.5087239929654785  0.9502636046353742  1.0000
  N   N10       1.0  0.3016227118424196  0.4911680939470813  0.0499134124819278  1.0000
  N   N11       1.0  0.7490427804937667  0.2870737310228293  0.8790019492101421  1.0000
  N   N12       1.0  0.25071807919663774  0.7129530610242085  0.12081001813061222  1.0000
  N   N13       1.0  0.8939198037914836  0.8656071520365032  0.9657596999256838  1.0000
  N   N14       1.0  0.1059826568050752  0.1344095873885607  0.03426514272609889  1.0000
  N   N15       1.0  0.603216329124521  0.7097402430407627  0.7963241227147577  1.0000
  N   N16       1.0  0.39671095307787846  0.2902081385548598  0.203745676865374  1.0000
  N   N17       1.0  0.45906035682729396  0.1319969581143852  0.7235317884548991  1.0000
  N   N18       1.0  0.540986567213551  0.8679313182372895  0.2764629469023347  1.0000
