data_image0
_chemical_formula_structural       Cu2H16C12N10O2
_chemical_formula_sum              "Cu2 H16 C12 N10 O2"
_cell_length_a       6.770131691326838
_cell_length_b       7.670238968441438
_cell_length_c       7.749738388524783
_cell_angle_alpha    89.74132393521778
_cell_angle_beta     86.45692185685935
_cell_angle_gamma    88.89710878120538

_space_group_name_H-M_alt    "P 1"
_space_group_IT_number       1

loop_
  _space_group_symop_operation_xyz
  'x, y, z'

loop_
  _atom_site_type_symbol
  _atom_site_label
  _atom_site_symmetry_multiplicity
  _atom_site_fract_x
  _atom_site_fract_y
  _atom_site_fract_z
  _atom_site_occupancy
  Cu  Cu1       1.0  0.1497612056835607  0.015289824416157704  0.17801886783752963  1.0000
  Cu  Cu2       1.0  0.8502261865716463  0.9846914451337553  0.8220313721809944  1.0000
  H   H1        1.0  0.8747918115835489  0.22037832443864155  0.15316986665803964  1.0000
  H   H2        1.0  0.1252289085751173  0.7796325942331921  0.8468080344123621  1.0000
  H   H3        1.0  0.8742560988384369  0.16371068390874646  0.3598396529407566  1.0000
  H   H4        1.0  0.1257088586659876  0.8363417162245029  0.6401531419391233  1.0000
  H   H5        1.0  0.5142450152021995  0.4071646512251591  0.10681637767431337  1.0000
  H   H6        1.0  0.485777856540885  0.5927851284761873  0.8931802175995713  1.0000
  H   H7        1.0  0.44070034487986487  0.3432355521342815  0.3203406781383222  1.0000
  H   H8        1.0  0.5593104682300024  0.656723302814811  0.6796592059618831  1.0000
  H   H9        1.0  0.22921340969283222  0.5833250364225223  0.2044831224225945  1.0000
  H   H10       1.0  0.7708246980589308  0.41665741031869175  0.7955081490980191  1.0000
  H   H11       1.0  0.15378817983739881  0.44278786087637917  0.042869514414221  1.0000
  H   H12       1.0  0.8462409055516957  0.5572010715033288  0.9571248715964629  1.0000
  H   H13       1.0  0.0939988531271396  0.37098683146246714  0.4320005030161981  1.0000
  H   H14       1.0  0.9060044478562546  0.6290241229593292  0.5679966536703062  1.0000
  H   H15       1.0  0.9144140685018627  0.47738055244849426  0.3098550544575431  1.0000
  H   H16       1.0  0.0856015876840246  0.5226432744158203  0.6901101230188331  1.0000
  C   C1        1.0  0.5212435759220356  0.09058205383864501  0.02954814698584579  1.0000
  C   C2        1.0  0.47872500228632486  0.9093596585107591  0.9704638682399249  1.0000
  C   C3        1.0  0.3961875563436905  0.34312285233684753  0.1859428616636905  1.0000
  C   C4        1.0  0.6038305585614837  0.6568360067160627  0.8140513620956682  1.0000
  C   C5        1.0  0.2019950619044764  0.4461379484684046  0.1759729852460623  1.0000
  C   C6        1.0  0.798041297899232  0.5538470140860667  0.8240080490548749  1.0000
  C   C7        1.0  0.038456792718939425  0.3819986451788964  0.3021918127681928  1.0000
  C   C8        1.0  0.9615556101026714  0.617996613283907  0.6977920158072664  1.0000
  C   C9        1.0  0.7805195016156788  0.8087579508765472  0.2752595211075217  1.0000
  C   C10       1.0  0.2194726213245843  0.19125849867459982  0.7247822081106251  1.0000
  C   C11       1.0  0.459476031029567  0.8140506116610594  0.3938563416824934  1.0000
  C   C12       1.0  0.5405196235904556  0.18601370469583148  0.6061329184734846  1.0000
  N   N1        1.0  0.37920502224871916  0.16380516899817377  0.1283943968176615  1.0000
  N   N2        1.0  0.6207540948917226  0.8361692524006801  0.8716384994295225  1.0000
  N   N3        1.0  0.931962597340025  0.8550462599846825  0.20797107890184213  1.0000
  N   N4        1.0  0.068027970957381  0.14496618579902085  0.7920604823258941  1.0000
  N   N5        1.0  0.9631384276836741  0.2102879737474268  0.2567829878172958  1.0000
  N   N6        1.0  0.0368471878040992  0.7897189388608938  0.7432128449389808  1.0000
  N   N7        1.0  0.6237006771828817  0.7359371371714402  0.3412366722125739  1.0000
  N   N8        1.0  0.3762871233177947  0.264075373296734  0.658805401585056  1.0000
  N   N9        1.0  0.3027330801352477  0.8721842041131043  0.4420149138806906  1.0000
  N   N10       1.0  0.6972614926904157  0.12793712058171283  0.5579272386050533  1.0000
  O   O1        1.0  0.6882549738967683  0.1567612347616034  0.9793224958421122  1.0000
  O   O2        1.0  0.3117057564417537  0.8431841986905155  0.020671939467582893  1.0000
