data_image0
_chemical_formula_structural       CuH28C20N10O8
_chemical_formula_sum              "Cu1 H28 C20 N10 O8"
_cell_length_a       8.628069378743593
_cell_length_b       8.811083492138978
_cell_length_c       10.321720967846892
_cell_angle_alpha    83.31341183429033
_cell_angle_beta     65.88857154445715
_cell_angle_gamma    60.62891098243482

_space_group_name_H-M_alt    "P 1"
_space_group_IT_number       1

loop_
  _space_group_symop_operation_xyz
  'x, y, z'

loop_
  _atom_site_type_symbol
  _atom_site_label
  _atom_site_symmetry_multiplicity
  _atom_site_fract_x
  _atom_site_fract_y
  _atom_site_fract_z
  _atom_site_occupancy
  Cu  Cu1       1.0  0.9999990151379449  0.49999923666519663  0.49999977160863546  1.0000
  H   H1        1.0  0.8345496859210539  0.920125743598973  0.5631280201848625  1.0000
  H   H2        1.0  0.16545235151451007  0.0798685242522339  0.43687294730985127  1.0000
  H   H3        1.0  0.547255894103095  0.6213219090324672  0.6506686729625388  1.0000
  H   H4        1.0  0.45274133469325045  0.37867890655893166  0.34933134121646253  1.0000
  H   H5        1.0  0.27109804368508594  0.9743627020668199  0.7208763733043002  1.0000
  H   H6        1.0  0.7288991929253681  0.0256381194888462  0.2791255752514985  1.0000
  H   H7        1.0  0.31174901652130405  0.2566946534545522  0.6593634845823715  1.0000
  H   H8        1.0  0.6882534418571136  0.7433035261977565  0.34063499762373795  1.0000
  H   H9        1.0  0.5503149893192116  0.22623493618358737  0.5981958646282165  1.0000
  H   H10       1.0  0.4496881785734316  0.7737619368220617  0.40180347621165424  1.0000
  H   H11       1.0  0.3412470467918281  0.38522520030941365  0.8410552569220044  1.0000
  H   H12       1.0  0.6587520141617134  0.614776907825508  0.1589420548591035  1.0000
  H   H13       1.0  0.3055834042095426  0.2028804390680392  0.9081214794199469  1.0000
  H   H14       1.0  0.6944182218577521  0.7971216728565408  0.09187979172742189  1.0000
  H   H15       1.0  0.5281632318277474  0.11485783267932699  0.050253540298491745  1.0000
  H   H16       1.0  0.47183258575424936  0.8851456021696575  0.9497466909897911  1.0000
  H   H17       1.0  0.4913991734764804  0.3290970760807923  0.009147800879972634  1.0000
  H   H18       1.0  0.5086004663802938  0.6709063450688147  0.9908520827331061  1.0000
  H   H19       1.0  0.8040948711492389  0.1279503784348037  0.04761948157297263  1.0000
  H   H20       1.0  0.19590619164304698  0.8720504324036183  0.9523830864960132  1.0000
  H   H21       1.0  0.8909135851184471  0.995976499750995  0.8878305256054658  1.0000
  H   H22       1.0  0.10908490865303117  0.0040243043156352  0.11216711590886773  1.0000
  H   H23       1.0  0.8725338068253232  0.2062996468855474  0.655187420467506  1.0000
  H   H24       1.0  0.12746540427449546  0.7936998564986909  0.3448130140573865  1.0000
  H   H25       1.0  0.9846564576653448  0.5537047568744242  0.8047657365910579  1.0000
  H   H26       1.0  0.01534855410566385  0.44629341762114183  0.19523380341611585  1.0000
  H   H27       1.0  0.8856137310991553  0.35676311441248026  0.02446604175035815  1.0000
  H   H28       1.0  0.1143866104577426  0.6432389941262001  0.9755327661196775  1.0000
  C   C1        1.0  0.7221603967756064  0.8832501096327545  0.5957336361520265  1.0000
  C   C2        1.0  0.277840221631507  0.11674677151176377  0.4042656140751789  1.0000
  C   C3        1.0  0.5657595483214731  0.735150301819779  0.6458602808595514  1.0000
  C   C4        1.0  0.4342349964712822  0.26485313858970727  0.35414038871659415  1.0000
  C   C5        1.0  0.42815692411629397  0.9092600449411279  0.6823287290683241  1.0000
  C   C6        1.0  0.5718410102872226  0.090739461021478  0.3176711765560328  1.0000
  C   C7        1.0  0.44603832473911337  0.18930071245100774  0.6766664941740644  1.0000
  C   C8        1.0  0.5539641336393041  0.810697467201301  0.32333198803204516  1.0000
  C   C9        1.0  0.4075674860164328  0.2415181222589098  0.826097148846678  1.0000
  C   C10       1.0  0.5924335650546905  0.7584826796331113  0.17390251765711895  1.0000
  C   C11       1.0  0.5859240839023271  0.1886085549145093  0.9690975123911869  1.0000
  C   C12       1.0  0.41407626546867937  0.8113935595884384  0.030903229855653084  1.0000
  C   C13       1.0  0.794206840299992  0.12858445371467297  0.9449852375133079  1.0000
  C   C14       1.0  0.20579279955678223  0.8714189674349341  0.05501464609977085  1.0000
  C   C15       1.0  0.889864015627516  0.27563266478019705  0.7238838453908586  1.0000
  C   C16       1.0  0.11014042505436798  0.724364202664951  0.27611505716114226  1.0000
  C   C17       1.0  0.9433533203986355  0.45491461828372337  0.8073178538175939  1.0000
  C   C18       1.0  0.0566457483690214  0.5450874958154586  0.1926813923403117  1.0000
  C   C19       1.0  0.8962325239990675  0.3587148589389741  0.9159265971569893  1.0000
  C   C20       1.0  0.10377050156141363  0.6412846247816189  0.08407155531589443  1.0000
  N   N1        1.0  0.7481420664839784  0.7213544884090268  0.5910817582982165  1.0000
  N   N2        1.0  0.25185402794823364  0.27864371904579593  0.4089189153472361  1.0000
  N   N3        1.0  0.529429755145898  0.0006298261477794998  0.649824981652614  1.0000
  N   N4        1.0  0.470570871075317  0.9993670609610062  0.3501762029513884  1.0000
  N   N5        1.0  0.8626035921604753  0.2464754626864333  0.8618896368758584  1.0000
  N   N6        1.0  0.1373994412141142  0.7535240269984269  0.13811044997382282  1.0000
  N   N7        1.0  0.9396065173493608  0.400981598961792  0.688552068648768  1.0000
  N   N8        1.0  0.060397221632406656  0.5990165810942755  0.31144790964627594  1.0000
  N   N9        1.0  0.1544440644005149  0.7273250822831796  0.6417913699810853  1.0000
  N   N10       1.0  0.8455510632025207  0.2726796741231254  0.3582128386154295  1.0000
  O   O1        1.0  0.20635817255499928  0.5891904761969826  0.5716618735606076  1.0000
  O   O2        1.0  0.7936457478294655  0.4108051229654706  0.4283489649854105  1.0000
  O   O3        1.0  0.11434918500658126  0.8700570886301763  0.5859310916406529  1.0000
  O   O4        1.0  0.8856623056934081  0.1299384264729895  0.4140606749753816  1.0000
  O   O5        1.0  0.14214302970874815  0.7221819585972113  0.7695671301057843  1.0000
  O   O6        1.0  0.8578323178372  0.2778359526841783  0.23044351410421643  1.0000
  O   O7        1.0  0.5911548069560554  0.15631830024368296  0.8352542909090843  1.0000
  O   O8        1.0  0.40884680739007695  0.843683802734496  0.16474407867308824  1.0000
