data_image0
_chemical_formula_structural       Zn2H24C62N12O28
_chemical_formula_sum              "Zn2 H24 C62 N12 O28"
_cell_length_a       14.554973213499647
_cell_length_b       14.790996695661955
_cell_length_c       16.042798971641627
_cell_angle_alpha    88.21098554314145
_cell_angle_beta     71.01567276583884
_cell_angle_gamma    81.42930040248744

_space_group_name_H-M_alt    "P 1"
_space_group_IT_number       1

loop_
  _space_group_symop_operation_xyz
  'x, y, z'

loop_
  _atom_site_type_symbol
  _atom_site_label
  _atom_site_symmetry_multiplicity
  _atom_site_fract_x
  _atom_site_fract_y
  _atom_site_fract_z
  _atom_site_occupancy
  Zn  Zn1       1.0  0.5994239124531122  0.5253717451338602  0.46011257315223014  1.0000
  Zn  Zn2       1.0  0.40000058073246675  0.4721062168993982  0.5297322689597054  1.0000
  H   H1        1.0  0.4629938023452027  0.3585571462831467  0.9466064403486384  1.0000
  H   H2        1.0  0.5363309264610123  0.6399538879531266  0.04515685231306328  1.0000
  H   H3        1.0  0.5287430739116133  0.7676715187484647  0.5341492502397215  1.0000
  H   H4        1.0  0.47664085237441617  0.21251479277481167  0.5714988975478761  1.0000
  H   H5        1.0  0.22094793245586433  0.7681543494161218  0.6049873623255168  1.0000
  H   H6        1.0  0.7784056618151639  0.24391953960184762  0.45016510787344527  1.0000
  H   H7        1.0  0.9226047363839881  0.3708545591521855  0.6977018179099304  1.0000
  H   H8        1.0  0.07158911245940662  0.6369338563301028  0.3012783265699212  1.0000
  H   H9        1.0  0.7533576936771738  0.4864896554006534  0.5259724636373946  1.0000
  H   H10       1.0  0.24621871068377044  0.504435240299955  0.46168429833241476  1.0000
  H   H11       1.0  0.08136246765254639  0.3505684266710817  0.7342287517428617  1.0000
  H   H12       1.0  0.9116171219006688  0.663140677047032  0.267832779197306  1.0000
  H   H13       1.0  0.8283575559527634  0.43452303768788175  0.6029493918347697  1.0000
  H   H14       1.0  0.16733168335363052  0.5684462656768899  0.3930696740298032  1.0000
  H   H15       1.0  0.24814632115636218  0.512692741292156  0.9887461617849452  1.0000
  H   H16       1.0  0.08044542638980084  0.48011692781786763  0.06815668130007418  1.0000
  H   H17       1.0  0.04068429784564391  0.41591600758803077  0.2191586134903929  1.0000
  H   H18       1.0  0.1707847090648471  0.38554817258519597  0.2904194896893983  1.0000
  H   H19       1.0  0.3381347271150901  0.42113401730149747  0.212529652810673  1.0000
  H   H20       1.0  0.7542060090046121  0.4790532640012374  0.9987999543174694  1.0000
  H   H21       1.0  0.9205488194953234  0.5152920378628494  0.9196853659180135  1.0000
  H   H22       1.0  0.9556784223142787  0.589836165750043  0.7734443413100323  1.0000
  H   H23       1.0  0.8225745352833586  0.6260746003949293  0.705964788129769  1.0000
  H   H24       1.0  0.6569736338137134  0.5868967434669868  0.7830838253177106  1.0000
  C   C1        1.0  0.5894619251466509  0.3336019999522932  0.4862969400745953  1.0000
  C   C2        1.0  0.40298731258936743  0.6614528885627922  0.5354872405621336  1.0000
  C   C3        1.0  0.5095727666491213  0.5059764462731096  0.6529955510799041  1.0000
  C   C4        1.0  0.49185014304340774  0.4941515606793274  0.33828847174305565  1.0000
  C   C5        1.0  0.5632900029826046  0.42778387501640935  0.006008348682023363  1.0000
  C   C6        1.0  0.4359948097319801  0.5707763204738401  0.9858446592772693  1.0000
  C   C7        1.0  0.4790444930708518  0.42164892448548136  0.9688078264805355  1.0000
  C   C8        1.0  0.5201545819003569  0.5768836187913918  0.023058053718713677  1.0000
  C   C9        1.0  0.5087499818260568  0.5073966793959954  0.7430173516292911  1.0000
  C   C10       1.0  0.4902949804967704  0.4920853671425007  0.24895298230731563  1.0000
  C   C11       1.0  0.5934165119666089  0.5128675814481625  0.9457286195247577  1.0000
  C   C12       1.0  0.4058052793157287  0.4856700701557203  0.04614900570158651  1.0000
  C   C13       1.0  0.5059346353765264  0.5058294197230069  0.9076213233661008  1.0000
  C   C14       1.0  0.4932341533423141  0.4926759980788802  0.08428211825231806  1.0000
  C   C15       1.0  0.5081407531947307  0.5084334192818858  0.8189438137926645  1.0000
  C   C16       1.0  0.49099483422983764  0.4904571643445125  0.17300297375950174  1.0000
  C   C17       1.0  0.6227511574494713  0.236413344310634  0.5053797265836266  1.0000
  C   C18       1.0  0.378875502896399  0.7585403278681041  0.569944973449239  1.0000
  C   C19       1.0  0.7517657156791132  0.110706998294738  0.49857215709421604  1.0000
  C   C20       1.0  0.26559855466678783  0.893514838366933  0.6304132502314275  1.0000
  C   C21       1.0  0.7230246602160975  0.20052328621243734  0.4814879360608231  1.0000
  C   C22       1.0  0.2822141571848817  0.8030362067401242  0.6035968962436016  1.0000
  C   C23       1.0  0.5537853245890646  0.18290658684459524  0.5518109761383769  1.0000
  C   C24       1.0  0.4560787595788654  0.8043102713114718  0.5672915573707229  1.0000
  C   C25       1.0  0.5816243639967525  0.09076142089546123  0.5694643438962856  1.0000
  C   C26       1.0  0.44108055016472747  0.8935290474986531  0.601413450154574  1.0000
  C   C27       1.0  0.6822936299969913  0.049924960274481095  0.5366205889026858  1.0000
  C   C28       1.0  0.34215483148562237  0.941910401825112  0.6334253919188555  1.0000
  C   C29       1.0  0.5059832197036016  0.03578630667878711  0.6103091134537664  1.0000
  C   C30       1.0  0.5236577409959653  0.9408358263863403  0.5948608163883264  1.0000
  C   C31       1.0  0.625033573112134  0.900948841632129  0.5678582568265611  1.0000
  C   C32       1.0  0.4093857977729273  0.07354306124378951  0.6659663607976185  1.0000
  C   C33       1.0  0.70074049623382  0.9525674964789203  0.5415884388207031  1.0000
  C   C34       1.0  0.3295215282385442  0.030945621707985503  0.6723206928036163  1.0000
  C   C35       1.0  0.1133599909391521  0.38514788181707627  0.6730121842747465  1.0000
  C   C36       1.0  0.8808588793874179  0.6237230940088878  0.3260404284890868  1.0000
  C   C37       1.0  0.21065857443045397  0.39604774041423957  0.6466200023218746  1.0000
  C   C38       1.0  0.7842438532379673  0.610871390704247  0.3506584895551584  1.0000
  C   C39       1.0  0.20502742383609276  0.4712412870522514  0.5206624674296806  1.0000
  C   C40       1.0  0.7928899718934305  0.5251522865963806  0.47050650067730254  1.0000
  C   C41       1.0  0.1042667382973974  0.46580758533019656  0.5405000649844923  1.0000
  C   C42       1.0  0.8923316442619582  0.5344941717293067  0.4535348174855257  1.0000
  C   C43       1.0  0.057731549823294884  0.41838034764552395  0.6180484160734849  1.0000
  C   C44       1.0  0.9376276624960413  0.5859745371969394  0.37862477157480595  1.0000
  C   C45       1.0  0.0483234320298109  0.5061406080134958  0.4856006912177406  1.0000
  C   C46       1.0  0.9481604690814082  0.49404307063522174  0.5084481311432681  1.0000
  C   C47       1.0  0.9052697656804227  0.44338762286232486  0.5849538963762768  1.0000
  C   C48       1.0  0.09075552857409261  0.5586227938890643  0.41038352217556456  1.0000
  C   C49       1.0  0.957436084121497  0.4073374160294776  0.6384618933619706  1.0000
  C   C50       1.0  0.03767378347269103  0.5975287935799612  0.35865230472592907  1.0000
  C   C51       1.0  0.304655793704505  0.46969532158756516  0.0956202828887172  1.0000
  C   C52       1.0  0.2312896141135711  0.4859684091075279  0.055362122829407716  1.0000
  C   C53       1.0  0.13673410971060923  0.4672646158207526  0.10004463838431119  1.0000
  C   C54       1.0  0.11449970835634099  0.43121244763939615  0.18470043813098164  1.0000
  C   C55       1.0  0.1873428916190889  0.414229711502216  0.2246288185093803  1.0000
  C   C56       1.0  0.28182943738659105  0.4337852353338647  0.180755260741158  1.0000
  C   C57       1.0  0.6941252433784157  0.529902345880032  0.896040869486157  1.0000
  C   C58       1.0  0.7691543924993525  0.5101071643341087  0.9340545346216659  1.0000
  C   C59       1.0  0.8628881274222312  0.5309976085611864  0.8895984296571626  1.0000
  C   C60       1.0  0.882550312246643  0.5726908155946262  0.8075150265790609  1.0000
  C   C61       1.0  0.8081063199026773  0.5929763325038166  0.7697239654688488  1.0000
  C   C62       1.0  0.71443392467436  0.571298755771622  0.8133094811269643  1.0000
  N   N1        1.0  0.25784221412969544  0.4359768216236475  0.57116079024604  1.0000
  N   N2        1.0  0.7396973562862854  0.5627872157686936  0.42128929496483647  1.0000
  N   N3        1.0  0.722462456410419  0.6560804917648966  0.29937044379001077  1.0000
  N   N4        1.0  0.2700743506005097  0.3592414261534885  0.7026224610596543  1.0000
  N   N5        1.0  0.6352953378311241  0.34887309233045016  0.01084414800281046  1.0000
  N   N6        1.0  0.3637862668111963  0.6494596827736744  0.981126762418107  1.0000
  N   N7        1.0  0.8018622031955402  0.9015526416611266  0.5096124886624551  1.0000
  N   N8        1.0  0.22919673544335242  0.07532764470167308  0.7250144139888662  1.0000
  N   N9        1.0  0.8580717735430882  0.08534198794815503  0.4828663383718632  1.0000
  N   N10       1.0  0.1630747269406214  0.9382566128629293  0.6472068007661348  1.0000
  N   N11       1.0  0.6520866965243002  0.8008345694721442  0.5752168021291482  1.0000
  N   N12       1.0  0.40285753834611177  0.14321645100366  0.7346808514178278  1.0000
  O   O1        1.0  0.6540825848250691  0.3866576484958911  0.46360902965551526  1.0000
  O   O2        1.0  0.3343364154276642  0.6135546195463918  0.5501149645325256  1.0000
  O   O3        1.0  0.49854890988828526  0.354004830787332  0.49647716551766047  1.0000
  O   O4        1.0  0.4936694738897458  0.6357655770440899  0.4957912268633464  1.0000
  O   O5        1.0  0.5880023543105537  0.521679250879977  0.5938663682580484  1.0000
  O   O6        1.0  0.41101017424232117  0.4883620331847922  0.39951100238881304  1.0000
  O   O7        1.0  0.4309450676507112  0.48902614295450064  0.6420233700839901  1.0000
  O   O8        1.0  0.5741974535451889  0.5016029827191203  0.34674216162668603  1.0000
  O   O9        1.0  0.7648973588495451  0.6691056476056261  0.2204894754171817  1.0000
  O   O10       1.0  0.6344498123977261  0.6791187221249544  0.3399780558256325  1.0000
  O   O11       1.0  0.35390170710437024  0.32026066100004863  0.6639584454696886  1.0000
  O   O12       1.0  0.23051627848710865  0.3692871598184694  0.7830791854141737  1.0000
  O   O13       1.0  0.6606016086757763  0.2926047171045738  0.9489047777770734  1.0000
  O   O14       1.0  0.6674838066646558  0.3459201179651643  0.07364667713568451  1.0000
  O   O15       1.0  0.33913444396930703  0.7062587398259836  0.04261667467829967  1.0000
  O   O16       1.0  0.33061730258889105  0.6517293560907618  0.9189785632013212  1.0000
  O   O17       1.0  0.8307050201239577  0.852805524398825  0.5624092308881429  1.0000
  O   O18       1.0  0.8471074227278592  0.9104659873687028  0.43068212104522974  1.0000
  O   O19       1.0  0.1840870446908127  0.03189713408865201  0.7880254934439748  1.0000
  O   O20       1.0  0.19878017001333603  0.14902051399275965  0.6984591756065228  1.0000
  O   O21       1.0  0.9154515633003157  0.115506125975493  0.416781029760422  1.0000
  O   O22       1.0  0.8812633289700431  0.0399201258103687  0.5412039173384783  1.0000
  O   O23       1.0  0.1527714634932167  0.012305073208622702  0.6105298609655562  1.0000
  O   O24       1.0  0.09675240430549792  0.896481017694029  0.6913596724631788  1.0000
  O   O25       1.0  0.6232461515173711  0.769837551025752  0.6498964989678768  1.0000
  O   O26       1.0  0.7015910230994536  0.7570126350071008  0.5068983911614352  1.0000
  O   O27       1.0  0.47959941031475495  0.1703523648285739  0.7330823587582955  1.0000
  O   O28       1.0  0.32277732986964486  0.1626431318964734  0.7929237599513854  1.0000
