data_image0
_chemical_formula_structural       Cu4H40C68O20F24
_chemical_formula_sum              "Cu4 H40 C68 O20 F24"
_cell_length_a       6.968710771005938
_cell_length_b       12.768194660253743
_cell_length_c       20.85582942732582
_cell_angle_alpha    94.16473560501898
_cell_angle_beta     89.99991769918185
_cell_angle_gamma    90.00012918485199

_space_group_name_H-M_alt    "P 1"
_space_group_IT_number       1

loop_
  _space_group_symop_operation_xyz
  'x, y, z'

loop_
  _atom_site_type_symbol
  _atom_site_label
  _atom_site_symmetry_multiplicity
  _atom_site_fract_x
  _atom_site_fract_y
  _atom_site_fract_z
  _atom_site_occupancy
  Cu  Cu1       1.0  0.1498018587342287  0.046589684063924615  0.981194336492351  1.0000
  Cu  Cu2       1.0  0.1497965154328682  0.45340927538966014  0.5188025469174279  1.0000
  Cu  Cu3       1.0  0.8502093773354603  0.9534063395156313  0.018807231963087607  1.0000
  Cu  Cu4       1.0  0.8502061107526515  0.5465945790066017  0.4811926474380713  1.0000
  H   H1        1.0  0.5307031322649607  0.07286109839801472  0.9524408735756185  1.0000
  H   H2        1.0  0.5306961222153747  0.42714540816081137  0.5475633479217806  1.0000
  H   H3        1.0  0.4693224536702587  0.9271443624603252  0.047565418363333806  1.0000
  H   H4        1.0  0.469316548852234  0.5728553223442461  0.45243698564620877  1.0000
  H   H5        1.0  0.4159963659463202  0.1628195319230485  0.922978042025143  1.0000
  H   H6        1.0  0.4159888616717922  0.33718605196298757  0.5770261939421033  1.0000
  H   H7        1.0  0.5840191750873557  0.8371961702043433  0.07703876197199121  1.0000
  H   H8        1.0  0.5840065895791041  0.66282096223825  0.42297489086693224  1.0000
  H   H9        1.0  0.8289426838270232  0.1547660135538678  0.6870135250801611  1.0000
  H   H10       1.0  0.8289485383266638  0.34523377660753607  0.8129883466437707  1.0000
  H   H11       1.0  0.17104989744017732  0.8452394441619193  0.3129918077643198  1.0000
  H   H12       1.0  0.17105695781791042  0.6547653708657961  0.1870080825982754  1.0000
  H   H13       1.0  0.9807323255774706  0.13335538731627142  0.7918332380666516  1.0000
  H   H14       1.0  0.9807344171303072  0.3666367319865103  0.7081682299622899  1.0000
  H   H15       1.0  0.0192631256484148  0.8666414262061367  0.20816980300512716  1.0000
  H   H16       1.0  0.019256729150136202  0.6333569139170836  0.2918265229047634  1.0000
  H   H17       1.0  0.49171372656379486  0.958531060041594  0.8505827513416765  1.0000
  H   H18       1.0  0.4917262285693553  0.5414677647084858  0.6494182527118896  1.0000
  H   H19       1.0  0.5082774197047542  0.041461816207800005  0.1494167630717698  1.0000
  H   H20       1.0  0.5082706576621304  0.45853610685966817  0.35058221670277595  1.0000
  H   H21       1.0  0.34179386308792903  0.9748582420030375  0.7446954656704962  1.0000
  H   H22       1.0  0.3418000991999151  0.5251419736943107  0.7553056696040417  1.0000
  H   H23       1.0  0.6582015881503338  0.025140128003108893  0.2553033273664482  1.0000
  H   H24       1.0  0.6582039619572343  0.47486268939184845  0.244696751972839  1.0000
  H   H25       1.0  0.10241659139210671  0.035521576718025506  0.5886978903647845  1.0000
  H   H26       1.0  0.1024325498358536  0.4644749904803902  0.9113051453240221  1.0000
  H   H27       1.0  0.8975688149499845  0.9644823010888217  0.4113044972551948  1.0000
  H   H28       1.0  0.897580121207227  0.5355163261753759  0.08869765801826192  1.0000
  H   H29       1.0  0.9665035847142036  0.8644683662934581  0.5507416222704578  1.0000
  H   H30       1.0  0.9665166037469248  0.6355286838825479  0.9492629158442728  1.0000
  H   H31       1.0  0.033476081699532804  0.1355417905322724  0.44926007793598205  1.0000
  H   H32       1.0  0.0334845874027252  0.364459494816579  0.05074071075853941  1.0000
  H   H33       1.0  0.488008630720465  0.7105522540118728  0.6007146208745625  1.0000
  H   H34       1.0  0.4880153185542326  0.7894504832688014  0.8992836772444123  1.0000
  H   H35       1.0  0.5119753406628718  0.2894531584183327  0.3992768050007598  1.0000
  H   H36       1.0  0.5119772626950835  0.2105479132793208  0.10072326815543423  1.0000
  H   H37       1.0  0.6230726057853815  0.8809760650236885  0.6430901326134164  1.0000
  H   H38       1.0  0.6230830883484301  0.6190268371718091  0.8569090675805668  1.0000
  H   H39       1.0  0.3769142355584735  0.11902700097218853  0.35690406868313573  1.0000
  H   H40       1.0  0.3769195378133007  0.3809754779160529  0.14309564986772472  1.0000
  C   C1        1.0  0.5748423714759808  0.0649034604686136  0.7074087685392457  1.0000
  C   C2        1.0  0.5748501154518453  0.43509601906794876  0.7925912922656054  1.0000
  C   C3        1.0  0.425153079761742  0.9350956979284603  0.29259101755997824  1.0000
  C   C4        1.0  0.4251568156818665  0.5649070609925033  0.20740722498321426  1.0000
  C   C5        1.0  0.7541324107040808  0.1102497518145142  0.7216959115858544  1.0000
  C   C6        1.0  0.7541400319841499  0.3897475866846137  0.7783039716380956  1.0000
  C   C7        1.0  0.2458587355867365  0.8897572670683261  0.2783066118762605  1.0000
  C   C8        1.0  0.24586546415175545  0.6102476360094258  0.22169276735048982  1.0000
  C   C9        1.0  0.8402629684906773  0.0992051256081297  0.7810587013066199  1.0000
  C   C10       1.0  0.8402708923289454  0.4007875997718032  0.7189395031347205  1.0000
  C   C11       1.0  0.15973248273776622  0.900792471621031  0.21894389417526844  1.0000
  C   C12       1.0  0.15972599389772307  0.5992068282805718  0.2810543245905138  1.0000
  C   C13       1.0  0.7477018757195565  0.044367809852275286  0.8277531447640243  1.0000
  C   C14       1.0  0.7477016155985011  0.4556271635733467  0.6722461597434091  1.0000
  C   C15       1.0  0.252289270553014  0.9556282105924511  0.17224746459421433  1.0000
  C   C16       1.0  0.2522852257304606  0.5443719870116014  0.3277512286040151  1.0000
  C   C17       1.0  0.5663253683696682  0.00039191510939670014  0.8142809338745921  1.0000
  C   C18       1.0  0.5663309688325739  0.4996020604693997  0.6857198519022846  1.0000
  C   C19       1.0  0.43366864788654885  0.9996072370412392  0.1857169340220466  1.0000
  C   C20       1.0  0.4336644823995357  0.5003947436846587  0.31428031186515437  1.0000
  C   C21       1.0  0.48179912301926464  0.010333101466024203  0.7545865687727443  1.0000
  C   C22       1.0  0.4818087289414592  0.4896654813493343  0.7454134973548606  1.0000
  C   C23       1.0  0.5182020681682147  0.9896691964456394  0.24541287361789443  1.0000
  C   C24       1.0  0.5181982021871221  0.5103360312976336  0.2545859110737254  1.0000
  C   C25       1.0  0.8426905902546552  0.0328676276149338  0.8911632072294895  1.0000
  C   C26       1.0  0.8426820421962232  0.4671266790063626  0.6088374618656403  1.0000
  C   C27       1.0  0.15730773093399364  0.96712211068899  0.1088371304405413  1.0000
  C   C28       1.0  0.1573076691055775  0.5328732568484399  0.3911599604420176  1.0000
  C   C29       1.0  0.4703224824095358  0.07548031267076989  0.6430405663507344  1.0000
  C   C30       1.0  0.47033564394465094  0.42451904947424884  0.8569619363361486  1.0000
  C   C31       1.0  0.529672968830198  0.9245204178239707  0.3569597672208858  1.0000
  C   C32       1.0  0.529675592135284  0.5754801089322754  0.14303784975975026  1.0000
  C   C33       1.0  0.3248466681331692  0.1674489460716373  0.6548796152464648  1.0000
  C   C34       1.0  0.32485520152019376  0.3325533828813221  0.8451230847063872  1.0000
  C   C35       1.0  0.6751516530840362  0.8325533502769177  0.34511934759405705  1.0000
  C   C36       1.0  0.6751560345679833  0.6674473382545115  0.1548743715575682  1.0000
  C   C37       1.0  0.6077799363513137  0.10388306743983831  0.5876946577919854  1.0000
  C   C38       1.0  0.6077927420639996  0.39611959887297127  0.9123074431513987  1.0000
  C   C39       1.0  0.3922212548309858  0.8961192382788  0.4123071823522651  1.0000
  C   C40       1.0  0.39222423395765554  0.6038764106574774  0.08768980934632252  1.0000
  C   C41       1.0  0.37259609368904023  0.9711743281144293  0.6197904336388123  1.0000
  C   C42       1.0  0.3726046727913328  0.5288243617522357  0.8802130184621008  1.0000
  C   C43       1.0  0.6273964875870064  0.028830328719280405  0.38021006973760063  1.0000
  C   C44       1.0  0.6273993883398248  0.47116852699603834  0.11979033235439832  1.0000
  C   C45       1.0  0.1879622749813734  0.9654057300945312  0.59328450044179  1.0000
  C   C46       1.0  0.18797506753178084  0.534596661824331  0.9067182403155982  1.0000
  C   C47       1.0  0.8120188264201005  0.03460442360927372  0.4067162406629025  1.0000
  C   C48       1.0  0.812026123634169  0.46539936799477744  0.0932852463448555  1.0000
  C   C49       1.0  0.1101973831595942  0.8688085785837882  0.5713540740296636  1.0000
  C   C50       1.0  0.11021190894624769  0.6311905837951244  0.9286500023694516  1.0000
  C   C51       1.0  0.8897808482680603  0.1311992161910922  0.4286456060916777  1.0000
  C   C52       1.0  0.8897921521766677  0.36880074222384  0.07135567827899081  1.0000
  C   C53       1.0  0.21682379768513732  0.7765605092999338  0.5744978274717454  1.0000
  C   C54       1.0  0.21683153789747678  0.7234379830407393  0.9255023335432286  1.0000
  C   C55       1.0  0.7831616086694595  0.22344177454974104  0.42549729896571636  1.0000
  C   C56       1.0  0.7831667832930054  0.276558053022221  0.0745030713207271  1.0000
  C   C57       1.0  0.4027175348208161  0.7819243370855135  0.6001529132976702  1.0000
  C   C58       1.0  0.4027267994944808  0.7180751647630574  0.8998476827419566  1.0000
  C   C59       1.0  0.5972707415080832  0.21808109252260982  0.3998437876347013  1.0000
  C   C60       1.0  0.5972786966248337  0.2819200829132811  0.10015672905819882  1.0000
  C   C61       1.0  0.4787805310339408  0.8781655148619621  0.6229569070076268  1.0000
  C   C62       1.0  0.47878950268969334  0.6218332881480749  0.8770421843043439  1.0000
  C   C63       1.0  0.5212091802760953  0.12183598372214993  0.37703818546808787  1.0000
  C   C64       1.0  0.5212188634075829  0.37816431221160224  0.12296137027627202  1.0000
  C   C65       1.0  0.1353537674971008  0.6734599037969248  0.5489527770190394  1.0000
  C   C66       1.0  0.1353675567234447  0.8265408405153069  0.9510456020719006  1.0000
  C   C67       1.0  0.86463163887025  0.32654787380692346  0.4510416280428303  1.0000
  C   C68       1.0  0.8646379393928781  0.1734512614043027  0.04895723523274141  1.0000
  O   O1        1.0  0.014472883980310805  0.06485336909818779  0.8980655565441185  1.0000
  O   O2        1.0  0.014475715488387698  0.4351375755717228  0.6019310443930977  1.0000
  O   O3        1.0  0.9855254372083453  0.9351363692057361  0.1019347811259124  1.0000
  O   O4        1.0  0.985521170735595  0.5648592192148243  0.39806624206969593  1.0000
  O   O5        1.0  0.7414513403147467  0.9909802322843861  0.9340284876578909  1.0000
  O   O6        1.0  0.741451157364594  0.5090149652718382  0.5659722411519398  1.0000
  O   O7        1.0  0.2585512858251349  0.0090103022200125  0.06597524082712881  1.0000
  O   O8        1.0  0.2585586437435978  0.4909865348856997  0.4340233308702608  1.0000
  O   O9        1.0  0.23645693376517582  0.5920707333972784  0.556972601923569  1.0000
  O   O10       1.0  0.23646965427674627  0.9079285692939509  0.9430280643125643  1.0000
  O   O11       1.0  0.763538517499633  0.40793862255582525  0.4430242688114704  1.0000
  O   O12       1.0  0.7635458867360612  0.09206353731585182  0.0569762116421302  1.0000
  O   O13       1.0  0.9725015041428051  0.6753338420155757  0.5209953622159349  1.0000
  O   O14       1.0  0.9725065545243865  0.824668679428115  0.9789993405287521  1.0000
  O   O15       1.0  0.0274824672396221  0.32466842153511527  0.4789935300624251  1.0000
  O   O16       1.0  0.0274888967070481  0.17533206355778216  0.0210048294486569  1.0000
  O   O17       1.0  0.42370638040417663  0.12272814609645621  0.9606965473339176  1.0000
  O   O18       1.0  0.4237006380587331  0.37727509122184705  0.5393075834951873  1.0000
  O   O19       1.0  0.5763249454545729  0.877274980820424  0.03931635643144201  1.0000
  O   O20       1.0  0.5763091630391487  0.6227248493291667  0.4606912774603984  1.0000
  F   F1        1.0  0.2351745901967703  0.19579105745175707  0.6004829119939005  1.0000
  F   F2        1.0  0.23518994703925955  0.30420802613959114  0.8995206490762443  1.0000
  F   F3        1.0  0.7648366459026334  0.8042143721701153  0.399513788933625  1.0000
  F   F4        1.0  0.7648370738676464  0.6957832795950127  0.10047879740795201  1.0000
  F   F5        1.0  0.41180979296769493  0.25615618055647366  0.6809481527937465  1.0000
  F   F6        1.0  0.4118137732419598  0.243849381146113  0.8190508098807429  1.0000
  F   F7        1.0  0.5881842232945615  0.7438476878871684  0.3190513575200812  1.0000
  F   F8        1.0  0.5881888529533938  0.7561552460271341  0.18094058202980534  1.0000
  F   F9        1.0  0.18507748852719175  0.1422592586854492  0.6965428986569294  1.0000
  F   F10       1.0  0.1850834353174093  0.3577452633285603  0.8034614008433751  1.0000
  F   F11       1.0  0.8149064828432769  0.8577438104315009  0.3034522617416685  1.0000
  F   F12       1.0  0.8149134509139558  0.6422617586805117  0.19654208171897383  1.0000
  F   F13       1.0  0.5143897535617086  0.10154165252924942  0.5307784967592327  1.0000
  F   F14       1.0  0.5144023218518115  0.3984640414248093  0.9692232999072846  1.0000
  F   F15       1.0  0.48561861254594163  0.8984559322164929  0.46922026231414554  1.0000
  F   F16       1.0  0.4856246990804749  0.601541402259059  0.030777716973410904  1.0000
  F   F17       1.0  0.6883445147124548  0.2015919217909712  0.5970603563475836  1.0000
  F   F18       1.0  0.6883612680789498  0.29841241000537627  0.9029412989505801  1.0000
  F   F19       1.0  0.3116523715153789  0.7984127428522927  0.4029425447815315  1.0000
  F   F20       1.0  0.3116427930713641  0.7015812374673446  0.09705393346446563  1.0000
  F   F21       1.0  0.7554957972478888  0.0341072077385363  0.5810099080125044  1.0000
  F   F22       1.0  0.7555059881720683  0.4658964129789993  0.9189897667712402  1.0000
  F   F23       1.0  0.2445096988825952  0.9658943236442924  0.41899525502506674  1.0000
  F   F24       1.0  0.2445152928138654  0.5340980104038097  0.0810026222966727  1.0000
