data_image0
_chemical_formula_structural       Zn8H80C96N16O16
_chemical_formula_sum              "Zn8 H80 C96 N16 O16"
_cell_length_a       13.861428023906887
_cell_length_b       18.132437480374456
_cell_length_c       18.132339439854654
_cell_angle_alpha    81.50941187277014
_cell_angle_beta     67.52489258031667
_cell_angle_gamma    67.52533951309137

_space_group_name_H-M_alt    "P 1"
_space_group_IT_number       1

loop_
  _space_group_symop_operation_xyz
  'x, y, z'

loop_
  _atom_site_type_symbol
  _atom_site_label
  _atom_site_symmetry_multiplicity
  _atom_site_fract_x
  _atom_site_fract_y
  _atom_site_fract_z
  _atom_site_occupancy
  Zn  Zn1       1.0  0.13030339155443457  0.7172116437055963  0.2653633037544694  1.0000
  Zn  Zn2       1.0  0.8869031551135927  0.7654285061957967  0.2170763108464441  1.0000
  Zn  Zn3       1.0  0.3696983197312561  0.7346303892195678  0.28278143805331274  1.0000
  Zn  Zn4       1.0  0.6130979044115319  0.7829340611396348  0.23456577681962185  1.0000
  Zn  Zn5       1.0  0.8697007505041724  0.28278353493167435  0.7346331204831598  1.0000
  Zn  Zn6       1.0  0.11309107311792829  0.23456547016813542  0.7829290137975348  1.0000
  Zn  Zn7       1.0  0.6303040210820329  0.2653683672880476  0.7172181070917388  1.0000
  Zn  Zn8       1.0  0.38690751866430123  0.2170706633378928  0.7654339545198993  1.0000
  H   H1        1.0  0.3016670180394027  0.5231354624999371  0.1270049493975449  1.0000
  H   H2        1.0  0.40826384380928704  0.41855910319662126  0.021422266779438794  1.0000
  H   H3        1.0  0.6043878361426211  0.4127414834173847  0.7918094051339536  1.0000
  H   H4        1.0  0.6044469101032914  0.3651039173769917  0.8842748390071546  1.0000
  H   H5        1.0  0.5097694965872396  0.4641738721013978  0.8826876621283757  1.0000
  H   H6        1.0  0.1961163522977143  0.8307424118280695  0.047748809972318965  1.0000
  H   H7        1.0  0.19578013597789123  0.9357469765706768  0.9423226966477144  1.0000
  H   H8        1.0  0.9948510196272693  0.15228885452820154  0.9108766554952652  1.0000
  H   H9        1.0  0.02720573224573994  0.07454844237376082  0.9797180677612473  1.0000
  H   H10       1.0  0.06470240554092055  0.051591043127416504  0.8785627713864556  1.0000
  H   H11       1.0  0.04833045611875503  0.6271149369580514  0.02277097495237261  1.0000
  H   H12       1.0  0.15182678529926394  0.521166512452794  0.9185844101426636  1.0000
  H   H13       1.0  0.1903284495275914  0.2917101494330225  0.9128587882242342  1.0000
  H   H14       1.0  0.14603316098416025  0.3841232200603103  0.865061424280661  1.0000
  H   H15       1.0  0.14286591051787667  0.3825734444394229  0.9641887510981986  1.0000
  H   H16       1.0  0.9253704402055548  0.5474545600474341  0.33086936128896133  1.0000
  H   H17       1.0  0.9261194972611975  0.44205127008545736  0.4358918987068208  1.0000
  H   H18       1.0  0.9416088364164276  0.41084152880611674  0.6528264840137581  1.0000
  H   H19       1.0  0.9181256743099764  0.4797761952015378  0.5751641098808163  1.0000
  H   H20       1.0  0.004994869390749627  0.378696478228278  0.5520616570459751  1.0000
  H   H21       1.0  0.19836173874693938  0.872983913013954  0.4768658983547382  1.0000
  H   H22       1.0  0.09175281732574093  0.9785621431771859  0.5814403656000806  1.0000
  H   H23       1.0  0.8956192266272894  0.20817733940551628  0.587246475574794  1.0000
  H   H24       1.0  0.8955504230262081  0.11571102045010662  0.6348867480452468  1.0000
  H   H25       1.0  0.9902353631828262  0.11730063585736163  0.5358275535657243  1.0000
  H   H26       1.0  0.30384045174109503  0.9522626449482915  0.16926173917205742  1.0000
  H   H27       1.0  0.3042150728208668  0.0576749218027359  0.0642458231446454  1.0000
  H   H28       1.0  0.5051572996082923  0.08914437984434193  0.8477234666616127  1.0000
  H   H29       1.0  0.4728025881676102  0.020297905857809398  0.9254710847306455  1.0000
  H   H30       1.0  0.4352476311340465  0.12146642902470013  0.9484243937689597  1.0000
  H   H31       1.0  0.45167899148736973  0.9772225306107744  0.3729010218423454  1.0000
  H   H32       1.0  0.3481795675101935  0.0814100015575505  0.47884465404938226  1.0000
  H   H33       1.0  0.30963478939586503  0.08715010100626593  0.7083104228956713  1.0000
  H   H34       1.0  0.35394894246702796  0.13494606304789167  0.6158940258382087  1.0000
  H   H35       1.0  0.3571339786910811  0.0358052028007165  0.61744379246322  1.0000
  H   H36       1.0  0.5746077168092328  0.6691183047897271  0.4525256472158006  1.0000
  H   H37       1.0  0.5738637234890476  0.5641174944032343  0.5579569348633484  1.0000
  H   H38       1.0  0.5584103440469759  0.34717737750644073  0.5891282675345622  1.0000
  H   H39       1.0  0.581908071194853  0.42484227037917327  0.5202041030315454  1.0000
  H   H40       1.0  0.495007515175466  0.44794519303972896  0.6212757610974293  1.0000
  H   H41       1.0  0.6983229797240753  0.47686926559303083  0.8729914562953808  1.0000
  H   H42       1.0  0.5917374007489968  0.5814551811429141  0.97856675435127  1.0000
  H   H43       1.0  0.3956370092465278  0.5872465413434964  0.20817854649186532  1.0000
  H   H44       1.0  0.3955641801975245  0.6348829098889156  0.11571727695864809  1.0000
  H   H45       1.0  0.49025799509456663  0.5358242977081956  0.11730116341013291  1.0000
  H   H46       1.0  0.8038659801797722  0.16925871457508632  0.9522686726379702  1.0000
  H   H47       1.0  0.8042246566025142  0.06423805402913983  0.057675797547048546  1.0000
  H   H48       1.0  0.0051459221377426435  0.8477403103354605  0.08915278245572016  1.0000
  H   H49       1.0  0.9728038530578755  0.925475359891472  0.0203022446120471  1.0000
  H   H50       1.0  0.9352432849316584  0.9484381293166636  0.12146008312942769  1.0000
  H   H51       1.0  0.9516585672547818  0.37289397155315385  0.9772227644003451  1.0000
  H   H52       1.0  0.8481797297996535  0.4788471775494189  0.08140199888368457  1.0000
  H   H53       1.0  0.8096612253188269  0.7083094900511712  0.08714684753196172  1.0000
  H   H54       1.0  0.8539610275782294  0.6158940353210554  0.13494090977538062  1.0000
  H   H55       1.0  0.8571489182104343  0.6174456091216527  0.03580538412050765  1.0000
  H   H56       1.0  0.0746154683698421  0.45253405120783446  0.6691297990245387  1.0000
  H   H57       1.0  0.07386171546579584  0.5579510571882835  0.5641183242515453  1.0000
  H   H58       1.0  0.05841578816620078  0.5891303813128063  0.3471619299205173  1.0000
  H   H59       1.0  0.08190230361351775  0.5202010790848561  0.42483151909581096  1.0000
  H   H60       1.0  0.9949957636697487  0.6212815384276738  0.4479318111522232  1.0000
  H   H61       1.0  0.8016633167299361  0.12700469748680382  0.5231332161695476  1.0000
  H   H62       1.0  0.9082697470984726  0.0214270674359014  0.41855548432336326  1.0000
  H   H63       1.0  0.10438706995088863  0.7918255891627197  0.41275872368949956  1.0000
  H   H64       1.0  0.10443830287190535  0.8842972798490792  0.36511847540634795  1.0000
  H   H65       1.0  0.00975149891681323  0.8827058736061562  0.4641780814826504  1.0000
  H   H66       1.0  0.6961326268152062  0.047758185848607596  0.8307465871116405  1.0000
  H   H67       1.0  0.6957841067751928  0.9423280199569248  0.9357462296668685  1.0000
  H   H68       1.0  0.49485388962960986  0.9108740568699218  0.15229092275029638  1.0000
  H   H69       1.0  0.5272026723024297  0.9797157451040731  0.07455469110446697  1.0000
  H   H70       1.0  0.5646994554708653  0.8785621453365097  0.051599702816567145  1.0000
  H   H71       1.0  0.5483466565340791  0.0227571221697502  0.6271035157587049  1.0000
  H   H72       1.0  0.651848402935755  0.9185738286524697  0.5211601610812907  1.0000
  H   H73       1.0  0.6903459427721684  0.9128420709606503  0.29170921865993904  1.0000
  H   H74       1.0  0.6460502806465059  0.8650455111506472  0.3841261888519584  1.0000
  H   H75       1.0  0.6428687859224951  0.9641804051994499  0.38257431446270107  1.0000
  H   H76       1.0  0.42538512360685127  0.330877477022142  0.5474646079974334  1.0000
  H   H77       1.0  0.4261220037932531  0.43589021205636413  0.44204534518782174  1.0000
  H   H78       1.0  0.44160493778034016  0.6528166246147791  0.41085066793392144  1.0000
  H   H79       1.0  0.4181083071153535  0.5751582879609318  0.47978369832936346  1.0000
  H   H80       1.0  0.5049904413805988  0.5520470125624543  0.3787096314925478  1.0000
  C   C1        1.0  0.27037410592788547  0.5224839881247336  0.0804817907638906  1.0000
  C   C2        1.0  0.3294651450621301  0.46432440046442036  0.021431503815719635  1.0000
  C   C3        1.0  0.46381369664130295  0.37551349688838104  0.8536785230564589  1.0000
  C   C4        1.0  0.550142070154095  0.4058923733242494  0.8530515805676372  1.0000
  C   C5        1.0  0.21890354641619314  0.8811040318033819  0.05087914342102811  1.0000
  C   C6        1.0  0.21855399510896906  0.9399837939009644  0.992393373805541  1.0000
  C   C7        1.0  0.16691411675321183  0.10486207187646099  0.9000024714304045  1.0000
  C   C8        1.0  0.05788903057473502  0.0953657870847593  0.9181399927431996  1.0000
  C   C9        1.0  0.1267059507654408  0.580579606731817  0.022302937995199678  1.0000
  C   C10       1.0  0.18474185024987103  0.521307800219681  0.9643760066333937  1.0000
  C   C11       1.0  0.3066784290540665  0.3533048801526419  0.8758423556682756  1.0000
  C   C12       1.0  0.19053524343935596  0.35284225987881973  0.9059832323904259  1.0000
  C   C13       1.0  0.8491029688598957  0.5506611661253871  0.3812728683867449  1.0000
  C   C14       1.0  0.849060272986385  0.492178047984126  0.4401687926806445  1.0000
  C   C15       1.0  0.8281198074019046  0.39988875755972947  0.6051431793480545  1.0000
  C   C16       1.0  0.9283581141599623  0.41815451768253814  0.595831868318072  1.0000
  C   C17       1.0  0.22965052686967596  0.9195066795690324  0.4775120539980051  1.0000
  C   C18       1.0  0.17055226444389143  0.9785558161705835  0.5356743715313997  1.0000
  C   C19       1.0  0.03618379302722003  0.14631588174714244  0.6244762429883792  1.0000
  C   C20       1.0  0.9498555595033478  0.14693730112834663  0.5941061225853017  1.0000
  C   C21       1.0  0.2810714185788825  0.9491344230654803  0.11889124471854026  1.0000
  C   C22       1.0  0.28142880814269927  0.007608041361983501  0.060003749351409355  1.0000
  C   C23       1.0  0.33308790579680186  0.09999642511326813  0.895134841125234  1.0000
  C   C24       1.0  0.4421037481668649  0.08187360847411902  0.9046431293019024  1.0000
  C   C25       1.0  0.37330545893360045  0.9776995926424663  0.41941822343426344  1.0000
  C   C26       1.0  0.31526527211994454  0.03562027024022291  0.47869421618062796  1.0000
  C   C27       1.0  0.19330257713149002  0.12415628290752072  0.6467054536448343  1.0000
  C   C28       1.0  0.3094503068560214  0.094019916773  0.6471707346401772  1.0000
  C   C29       1.0  0.6508726683623536  0.6187201100427375  0.44932983356517286  1.0000
  C   C30       1.0  0.6509229945872048  0.5598369206952614  0.5078245923839261  1.0000
  C   C31       1.0  0.6718761388219219  0.3948657351047018  0.6001124744350435  1.0000
  C   C32       1.0  0.5716575034362135  0.4041712801095444  0.5818287125230553  1.0000
  C   C33       1.0  0.7296316055832718  0.4775213422401166  0.9195087992695787  1.0000
  C   C34       1.0  0.6705428760968387  0.5356863092706732  0.9785510029028756  1.0000
  C   C35       1.0  0.5361879981143715  0.6244888509581656  0.146310546908353  1.0000
  C   C36       1.0  0.4498697258602532  0.5941051988628773  0.14693837504466956  1.0000
  C   C37       1.0  0.7810927986119083  0.1188911269443693  0.9491374840597048  1.0000
  C   C38       1.0  0.7814346447405071  0.06000481073088081  0.0076124046978379685  1.0000
  C   C39       1.0  0.833093384673006  0.8951384724780808  0.09999960598769066  1.0000
  C   C40       1.0  0.9420990364846913  0.9046514538868279  0.08187698811236986  1.0000
  C   C41       1.0  0.8732918665685644  0.41942273659427803  0.9776907670745628  1.0000
  C   C42       1.0  0.8152640766525252  0.4786993224752011  0.035612699868380636  1.0000
  C   C43       1.0  0.6933188582885208  0.6467117895997063  0.12414863563535056  1.0000
  C   C44       1.0  0.809460261461339  0.6471767873529332  0.09401767880323318  1.0000
  C   C45       1.0  0.15088606488842496  0.44933221890806163  0.6187270296562986  1.0000
  C   C46       1.0  0.15092329748620142  0.5078207027292552  0.5598369778430693  1.0000
  C   C47       1.0  0.17187987891796286  0.6001076148631483  0.39485319347009096  1.0000
  C   C48       1.0  0.07165336016025485  0.581829324371583  0.40416135118726265  1.0000
  C   C49       1.0  0.7703690208585173  0.08048193255505963  0.5224855381106649  1.0000
  C   C50       1.0  0.8294630858471876  0.021434587877422504  0.4643218371611583  1.0000
  C   C51       1.0  0.9638208807014902  0.8536804970412534  0.3755136126012956  1.0000
  C   C52       1.0  0.05013692027268479  0.8530668245275878  0.4058958905012915  1.0000
  C   C53       1.0  0.7189352990184689  0.0508732928784781  0.8811010457069269  1.0000
  C   C54       1.0  0.7185626829041348  0.9923949084046059  0.9399803931892593  1.0000
  C   C55       1.0  0.6669121216320945  0.8999981562895558  0.10486208369736963  1.0000
  C   C56       1.0  0.5578833677702234  0.9181400558262355  0.09536957897296361  1.0000
  C   C57       1.0  0.6267128688797071  0.0222913998208085  0.5805863951753238  1.0000
  C   C58       1.0  0.6847511949082583  0.9643689321622876  0.5213100330947923  1.0000
  C   C59       1.0  0.8066903595918901  0.8758347027648838  0.3533065309822517  1.0000
  C   C60       1.0  0.6905395950911171  0.9059704657610013  0.3528476777577935  1.0000
  C   C61       1.0  0.34911556950363115  0.38128044348051304  0.5506634012090145  1.0000
  C   C62       1.0  0.3490575231450492  0.4401701905593428  0.49217616572101963  1.0000
  C   C63       1.0  0.3281220964017563  0.605132426493178  0.39988522850214986  1.0000
  C   C64       1.0  0.4283488766769491  0.5958239068672528  0.4181592618818825  1.0000
  C   C65       1.0  0.1059277039486871  0.6441515757003274  0.14390994622941386  1.0000
  C   C66       1.0  0.16866744824552876  0.5814751690499733  0.08124843524964123  1.0000
  C   C67       1.0  0.2875613164114198  0.46224790424387413  0.9624647795185836  1.0000
  C   C68       1.0  0.3491438592363424  0.4004788005004086  0.9008950803418755  1.0000
  C   C69       1.0  0.3940940359219596  0.8560887965130276  0.3558470754317327  1.0000
  C   C70       1.0  0.3313617682917991  0.9187401145101647  0.41853074197329215  1.0000
  C   C71       1.0  0.21245006489666446  0.0375219323609741  0.5377566447309475  1.0000
  C   C72       1.0  0.15085862034271713  0.09909747062364722  0.5995232591363971  1.0000
  C   C73       1.0  0.8940675665294576  0.35584479554153603  0.8560877076352467  1.0000
  C   C74       1.0  0.8313342434967766  0.4185271780216767  0.91874141564611  1.0000
  C   C75       1.0  0.712445078157117  0.5377616073695463  0.03752227331676753  1.0000
  C   C76       1.0  0.6508587197404622  0.5995372803389216  0.09908783234079271  1.0000
  C   C77       1.0  0.6059338178463277  0.14389861937178952  0.6441529613699615  1.0000
  C   C78       1.0  0.6686669589788251  0.0812455054653682  0.5814747627531816  1.0000
  C   C79       1.0  0.7875636956876301  0.9624660778238269  0.46224622347532573  1.0000
  C   C80       1.0  0.8491438890987263  0.9008965083421574  0.4004792730798811  1.0000
  C   C81       1.0  0.24997930451379335  0.8224575286665115  0.17755062145425884  1.0000
  C   C82       1.0  0.24997962198906976  0.8851514077358899  0.1148622842695843  1.0000
  C   C83       1.0  0.24999945585707203  0.0043997938842253  0.9955871284888572  1.0000
  C   C84       1.0  0.25000453333385037  0.0661312479293983  0.9338511304459657  1.0000
  C   C85       1.0  0.7499833723220205  0.6773944460719649  0.32260264176487397  1.0000
  C   C86       1.0  0.7499913183556614  0.6146683075348564  0.38532214057302383  1.0000
  C   C87       1.0  0.7499918576970402  0.49540938981574095  0.5046063132542286  1.0000
  C   C88       1.0  0.7499950614301834  0.4336779383724334  0.5663395188694197  1.0000
  C   C89       1.0  0.7499826327112443  0.17755792039810106  0.822468350237358  1.0000
  C   C90       1.0  0.7499979272566933  0.11485926482087191  0.8851583145542107  1.0000
  C   C91       1.0  0.7499935373971025  0.9955924115516626  0.0043985338820463245  1.0000
  C   C92       1.0  0.7500074650671777  0.9338472344777105  0.06613023891207367  1.0000
  C   C93       1.0  0.25000093159587755  0.32260073577463544  0.6773909569417356  1.0000
  C   C94       1.0  0.25000209435074766  0.38532627442114636  0.6146743630265378  1.0000
  C   C95       1.0  0.24999018344789195  0.5046000982542296  0.495404965817741  1.0000
  C   C96       1.0  0.24999424881173127  0.5663291651704939  0.43366882924473776  1.0000
  N   N1        1.0  0.4871186182290756  0.3176656023088853  0.8036316997841125  1.0000
  N   N2        1.0  0.19892121136961544  0.15824097094726147  0.8454605402257869  1.0000
  N   N3        1.0  0.3912914437400373  0.30336727381705936  0.8179048342035315  1.0000
  N   N4        1.0  0.7973157303022518  0.3453120024879581  0.6584924860190995  1.0000
  N   N5        1.0  0.012866793685816336  0.196356761735565  0.6823307277949127  1.0000
  N   N6        1.0  0.30107949570576414  0.1545386837630005  0.8417559714239288  1.0000
  N   N7        1.0  0.10868918411139122  0.1820908914434796  0.6966357554859356  1.0000
  N   N8        1.0  0.7026765137419273  0.3415082026196573  0.6546838275544217  1.0000
  N   N9        1.0  0.5128802812485629  0.6823379409285125  0.1963556669723445  1.0000
  N   N10       1.0  0.801086287043233  0.8417595726323769  0.15454231812324798  1.0000
  N   N11       1.0  0.6087028441473946  0.696641038807023  0.1820878549067118  1.0000
  N   N12       1.0  0.20267864557997226  0.6546861592388781  0.3415051664373864  1.0000
  N   N13       1.0  0.9871337284134111  0.8036312472308824  0.31767364075809473  1.0000
  N   N14       1.0  0.6989353131518923  0.8454517228495321  0.15823766414113993  1.0000
  N   N15       1.0  0.8913072798845292  0.8179018874447337  0.3033733848245675  1.0000
  N   N16       1.0  0.2973210625313172  0.6584857839288674  0.34531116513335297  1.0000
  O   O1        1.0  0.1339842430810236  0.632718808273296  0.2053282890731012  1.0000
  O   O2        1.0  0.21971267840955014  0.7658232696986503  0.17160976959997506  1.0000
  O   O3        1.0  0.02774977434101786  0.7055135305518335  0.13256575717521457  1.0000
  O   O4        1.0  0.8429024075539496  0.671652841125436  0.2661411823068889  1.0000
  O   O5        1.0  0.36603705643502565  0.7946722422624788  0.36726401749758253  1.0000
  O   O6        1.0  0.2802757859210772  0.8283898314782122  0.23416780061752004  1.0000
  O   O7        1.0  0.47225782389480736  0.8674387753671623  0.2944761616648108  1.0000
  O   O8        1.0  0.6570630086569408  0.7338452009240086  0.3283550527656089  1.0000
  O   O9        1.0  0.866019074412364  0.3672769736313413  0.7946616569129362  1.0000
  O   O10       1.0  0.7802857947453955  0.23417427957286918  0.828403552425463  1.0000
  O   O11       1.0  0.9722495189193479  0.2944858247581266  0.8674318548962174  1.0000
  O   O12       1.0  0.15708825278480265  0.3283417420296787  0.7338541696193913  1.0000
  O   O13       1.0  0.6339881835761929  0.20531935785965774  0.6327295382361625  1.0000
  O   O14       1.0  0.7197254955208481  0.1716232571197907  0.7658233339101412  1.0000
  O   O15       1.0  0.5277534262219346  0.13256535608302042  0.7055196260431202  1.0000
  O   O16       1.0  0.3429295064401784  0.26615117074206307  0.671642230356717  1.0000
