data_image0
_chemical_formula_structural       ZnH60C52S2N6O12
_chemical_formula_sum              "Zn1 H60 C52 S2 N6 O12"
_cell_length_a       10.979438070261642
_cell_length_b       12.272104254735163
_cell_length_c       12.583596405797467
_cell_angle_alpha    60.58945531076446
_cell_angle_beta     80.14248434123768
_cell_angle_gamma    65.20281880347747

_space_group_name_H-M_alt    "P 1"
_space_group_IT_number       1

loop_
  _space_group_symop_operation_xyz
  'x, y, z'

loop_
  _atom_site_type_symbol
  _atom_site_label
  _atom_site_symmetry_multiplicity
  _atom_site_fract_x
  _atom_site_fract_y
  _atom_site_fract_z
  _atom_site_occupancy
  Zn  Zn1       1.0  0.0  0.0  0.0  1.0000
  H   H1        1.0  0.5475349532664991  0.0355404549200671  0.8182176050066519  1.0000
  H   H2        1.0  0.45246239479385486  0.9644582555851355  0.18178190790472132  1.0000
  H   H3        1.0  0.662477021883525  0.9213456450905256  0.689939164637444  1.0000
  H   H4        1.0  0.3375211217604103  0.0786510378399754  0.3100603983918901  1.0000
  H   H5        1.0  0.589099993470839  0.3133179779129235  0.3744381653822659  1.0000
  H   H6        1.0  0.4109040749420458  0.6866777399515128  0.6255601694797052  1.0000
  H   H7        1.0  0.47262797243811155  0.42596452404649193  0.500304651294691  1.0000
  H   H8        1.0  0.527371447751257  0.574038305507571  0.49968861620023836  1.0000
  H   H9        1.0  0.804864683556701  0.03248355404203809  0.4279602842025911  1.0000
  H   H10       1.0  0.1951378032989125  0.9675162048334229  0.5720403397867743  1.0000
  H   H11       1.0  0.6474559229430381  0.09827581225847838  0.35436890446438707  1.0000
  H   H12       1.0  0.3525505199756936  0.9017209307937717  0.6456309689751408  1.0000
  H   H13       1.0  0.7025540102552338  0.9371682266959239  0.4869107011203227  1.0000
  H   H14       1.0  0.297451105433673  0.06282953419817261  0.5130872986239723  1.0000
  H   H15       1.0  0.5796521202305768  0.30451862196346  0.8814751255049061  1.0000
  H   H16       1.0  0.42035008667124185  0.6954841977835142  0.11852328967155769  1.0000
  H   H17       1.0  0.46541761835551637  0.16658747446674474  0.12844803675510974  1.0000
  H   H18       1.0  0.5345799846005901  0.8334153019300317  0.8715518873750695  1.0000
  H   H19       1.0  0.5923917839652191  0.22751382613637358  0.10701166584352965  1.0000
  H   H20       1.0  0.4076070139678906  0.7724859065419521  0.8929887316908207  1.0000
  H   H21       1.0  0.31430548080235343  0.4053598831859303  0.9763992618283838  1.0000
  H   H22       1.0  0.6856954020729445  0.594643949690095  0.023598076107290745  1.0000
  H   H23       1.0  0.4377279573857109  0.46364409820284874  0.9718661839686079  1.0000
  H   H24       1.0  0.5622742623292823  0.5363587026929649  0.028135417025623617  1.0000
  H   H25       1.0  0.16598634732387282  0.5293321680049773  0.2517452448083901  1.0000
  H   H26       1.0  0.834014321730187  0.4706604486524454  0.7482574617747846  1.0000
  H   H27       1.0  0.2219883742919889  0.6671235749288299  0.1838880046536745  1.0000
  H   H28       1.0  0.7780113925520238  0.33286900572436195  0.8161196231560056  1.0000
  H   H29       1.0  0.3244552530213766  0.5024534630447803  0.30140021041694354  1.0000
  H   H30       1.0  0.6755431994059862  0.4975401165990974  0.6986087295152714  1.0000
  H   H31       1.0  0.8280234951146921  0.10663428003960006  0.78022541125241  1.0000
  H   H32       1.0  0.17198229671814858  0.8933594085520368  0.21977442413655277  1.0000
  H   H33       1.0  0.8074324921248034  0.2590082093103944  0.5565009364015837  1.0000
  H   H34       1.0  0.1925723846848228  0.7409854621281794  0.44350063439611637  1.0000
  H   H35       1.0  0.1728664418483205  0.29319223615588896  0.5933829443705179  1.0000
  H   H36       1.0  0.8271269379040475  0.7068165980844368  0.40661870731436545  1.0000
  H   H37       1.0  0.1761453598707305  0.14246538049432184  0.8155148410807841  1.0000
  H   H38       1.0  0.8238532871581081  0.8575394436449032  0.1844839514772829  1.0000
  H   H39       1.0  0.8898938575432567  0.47185563044443046  0.39300793043076276  1.0000
  H   H40       1.0  0.11010401896005105  0.5281440945064162  0.606992609603431  1.0000
  H   H41       1.0  0.06705480246660034  0.41312441159249164  0.39492821312635584  1.0000
  H   H42       1.0  0.932942923132444  0.5868804048192544  0.6050707219315683  1.0000
  H   H43       1.0  0.9087187403356579  0.2657871910349953  0.3791841060862353  1.0000
  H   H44       1.0  0.09128241929013102  0.7342135856823119  0.6208146442079043  1.0000
  H   H45       1.0  0.08362525122591791  0.22171428990167633  0.36496776864807157  1.0000
  H   H46       1.0  0.9163769588791977  0.7782885251325025  0.6350314429828361  1.0000
  H   H47       1.0  0.8655078920790514  0.48918348210488466  0.192520021903107  1.0000
  H   H48       1.0  0.13449419217982947  0.5108172976271135  0.807479382345619  1.0000
  H   H49       1.0  0.040484192789705276  0.44636082048181447  0.1750043176910765  1.0000
  H   H50       1.0  0.959517092682311  0.5536419915376741  0.8249942399852445  1.0000
  H   H51       1.0  0.7778777398357872  0.3059718442950299  0.21266770828951567  1.0000
  H   H52       1.0  0.2221214196195405  0.694034017853795  0.7873281291191676  1.0000
  H   H53       1.0  0.8018613616583108  0.1579575362237406  0.12075906709323904  1.0000
  H   H54       1.0  0.1981326718149389  0.8420472587036587  0.8792388450552122  1.0000
  H   H55       1.0  0.16295021071835689  0.1781012622050397  0.9733576189252064  1.0000
  H   H56       1.0  0.837047266391522  0.8218994788895486  0.026642497822791558  1.0000
  H   H57       1.0  0.1561384448786001  0.3238297347964121  0.060427934105227545  1.0000
  H   H58       1.0  0.843861790114097  0.6761710389062047  0.9395701622343182  1.0000
  H   H59       1.0  0.4164978335778712  0.14167674338454364  0.9346692962825858  1.0000
  H   H60       1.0  0.5835020020213901  0.8583250464618148  0.06532837677076477  1.0000
  C   C1        1.0  0.5572452960420691  0.0955068937024848  0.7208790872329092  1.0000
  C   C2        1.0  0.44275217145793283  0.9044938615304757  0.27911864015175786  1.0000
  C   C3        1.0  0.6222696575264237  0.032122399979009196  0.6484961656169405  1.0000
  C   C4        1.0  0.3777291372034028  0.9678773374121051  0.3515034354629591  1.0000
  C   C5        1.0  0.6334228312241026  0.10854784557352558  0.522693722523947  1.0000
  C   C6        1.0  0.3665751583122656  0.8914539335306627  0.4773034390746675  1.0000
  C   C7        1.0  0.5804750751238074  0.25078902603056014  0.4715409612920141  1.0000
  C   C8        1.0  0.4195223891729043  0.7492117339151959  0.5284559696382161  1.0000
  C   C9        1.0  0.5148786124073295  0.31546504048741036  0.542449911780196  1.0000
  C   C10       1.0  0.48512467003185816  0.6845326908133486  0.45755076232713077  1.0000
  C   C11       1.0  0.5023710103710641  0.23730399683930156  0.6671062994798334  1.0000
  C   C12       1.0  0.497632143018606  0.7626917038720719  0.332893770790868  1.0000
  C   C13       1.0  0.7003316286438731  0.0403689223181445  0.44414725478535644  1.0000
  C   C14       1.0  0.29967113175894877  0.9596277851113868  0.5558539851080297  1.0000
  C   C15       1.0  0.5494597418086897  0.2220409503330671  0.9494173794728626  1.0000
  C   C16       1.0  0.45053916595418997  0.7779608412113959  0.05057884317145782  1.0000
  C   C17       1.0  0.6720505592047202  0.08648888369727098  0.987522940160055  1.0000
  C   C18       1.0  0.3279452131366584  0.9135067693326204  0.012475880746166141  1.0000
  C   C19       1.0  0.5039980515638972  0.24365092859886764  0.06262064109488827  1.0000
  C   C20       1.0  0.4960011489659451  0.7563477832229282  0.9373809761801014  1.0000
  C   C21       1.0  0.3975973948740331  0.3855781060759682  0.030147785057280867  1.0000
  C   C22       1.0  0.6024060198179626  0.6144216511013951  0.9698542893411145  1.0000
  C   C23       1.0  0.33850394023414043  0.40188491325280035  0.14135606532894235  1.0000
  C   C24       1.0  0.6614906563499828  0.5981137552187903  0.8586470608997632  1.0000
  C   C25       1.0  0.25317797223621596  0.5573348443392449  0.22323312945970042  1.0000
  C   C26       1.0  0.7468254835302941  0.44265776251108246  0.7767747248050014  1.0000
  C   C27       1.0  0.9020033297592602  0.1507778864935148  0.734744392017504  1.0000
  C   C28       1.0  0.0980010186074125  0.8492147704994151  0.26525615165736155  1.0000
  C   C29       1.0  0.8917974143405161  0.2354783273153345  0.6098511916765689  1.0000
  C   C30       1.0  0.10820455688531896  0.7645203982633219  0.3901515910077366  1.0000
  C   C31       1.0  0.9896337112703077  0.28987818105284896  0.5543751950048802  1.0000
  C   C32       1.0  0.010367980001731765  0.7101236053973139  0.4456253788665309  1.0000
  C   C33       1.0  0.09367359639634282  0.25461653400793693  0.630107088993185  1.0000
  C   C34       1.0  0.9063259720622977  0.7453882978587671  0.3698915610650246  1.0000
  C   C35       1.0  0.096166085443663  0.1703676125106242  0.7550352670621622  1.0000
  C   C36       1.0  0.9038308413685103  0.8296392361886118  0.2449628214233572  1.0000
  C   C37       1.0  0.98303756376351  0.37985965914812425  0.4193543472287828  1.0000
  C   C38       1.0  0.01696108646861924  0.6201451602783122  0.5806452417837279  1.0000
  C   C39       1.0  0.9865505213168503  0.3082033689312809  0.34712145739642597  1.0000
  C   C40       1.0  0.01344839605590651  0.6917984084748099  0.6528771546112182  1.0000
  C   C41       1.0  0.9631341861056979  0.40377169919195666  0.20917455465342275  1.0000
  C   C42       1.0  0.03686790455977726  0.5962290711144576  0.7908264425041909  1.0000
  C   C43       1.0  0.9663702619674053  0.32750684668081215  0.1446745271779619  1.0000
  C   C44       1.0  0.033628259215213084  0.6724959421562317  0.8553244579979167  1.0000
  C   C45       1.0  0.8649890768601551  0.28037881479922067  0.15979946716046106  1.0000
  C   C46       1.0  0.13500744094870498  0.7196290641821292  0.8401958086755246  1.0000
  C   C47       1.0  0.8771406791475866  0.19860258736174066  0.10894306890107691  1.0000
  C   C48       1.0  0.12285824463175027  0.801399180618766  0.8910571360154479  1.0000
  C   C49       1.0  0.0777645747515976  0.21054182036489516  0.02495518293870452  1.0000
  C   C50       1.0  0.9222330250012192  0.7894609607446695  0.9750439447370381  1.0000
  C   C51       1.0  0.07364908789644888  0.2914676359238229  0.07453659172968231  1.0000
  C   C52       1.0  0.9263536821162504  0.7085290573673362  0.9254670375270352  1.0000
  S   S1        1.0  0.39715259897043603  0.32248569960201223  0.7505460293930499  1.0000
  S   S2        1.0  0.6028469881396673  0.6775120149271955  0.24945282535037455  1.0000
  N   N1        1.0  0.4379317863601813  0.22797488079631018  0.8952090341394624  1.0000
  N   N2        1.0  0.56206792979944  0.7720248643222901  0.10479042444058707  1.0000
  N   N3        1.0  0.0016550397320643016  0.1193585993267021  0.8070889230641428  1.0000
  N   N4        1.0  0.9983460004540843  0.8806401326628472  0.19291161275669594  1.0000
  N   N5        1.0  0.9818411148643164  0.1628472977439372  0.042814135501977546  1.0000
  N   N6        1.0  0.018156877875341603  0.8371544766474627  0.9571838225510805  1.0000
  O   O1        1.0  0.7844548817852511  0.0964811108595285  0.9802735430098792  1.0000
  O   O2        1.0  0.21554483437437702  0.9035186342590721  0.019725915570163025  1.0000
  O   O3        1.0  0.6527948937038769  0.9792110816679058  0.026496891629726353  1.0000
  O   O4        1.0  0.34720506133502477  0.020792752906217498  0.9734989958969182  1.0000
  O   O5        1.0  0.41904585614031475  0.4456878117108616  0.709770364697917  1.0000
  O   O6        1.0  0.5809537341730786  0.5543098981055578  0.290229286499951  1.0000
  O   O7        1.0  0.2635743191530295  0.3331260203828563  0.7366014419845187  1.0000
  O   O8        1.0  0.7364253970065916  0.666873724735744  0.2633980165955236  1.0000
  O   O9        1.0  0.3097081496644377  0.31650686100115166  0.23361492211802226  1.0000
  O   O10       1.0  0.6902796913309429  0.6834948519519061  0.7663806211612254  1.0000
  O   O11       1.0  0.31799492271623814  0.5256250630994472  0.12576319560606206  1.0000
  O   O12       1.0  0.6820095835295915  0.47436958206775864  0.874245119995415  1.0000
