data_image0
_chemical_formula_structural       CoH28C24N2O6
_chemical_formula_sum              "Co1 H28 C24 N2 O6"
_cell_length_a       8.102622671779574
_cell_length_b       9.03762693348197
_cell_length_c       9.040722740279117
_cell_angle_alpha    103.6960954755272
_cell_angle_beta     116.62740757404941
_cell_angle_gamma    89.98519345799137

_space_group_name_H-M_alt    "P 1"
_space_group_IT_number       1

loop_
  _space_group_symop_operation_xyz
  'x, y, z'

loop_
  _atom_site_type_symbol
  _atom_site_label
  _atom_site_symmetry_multiplicity
  _atom_site_fract_x
  _atom_site_fract_y
  _atom_site_fract_z
  _atom_site_occupancy
  Co  Co1       1.0  0.2252368719925926  7.194212379600005e-06  6.332879050320085e-05  1.0000
  H   H1        1.0  0.12707745974866916  0.8657187392238653  0.5795936446295044  1.0000
  H   H2        1.0  0.5474892833924585  0.13427567857370093  0.42017970000109967  1.0000
  H   H3        1.0  0.34442042324422306  0.805450516807248  0.6038269923375736  1.0000
  H   H4        1.0  0.7405238818977581  0.1946489082244653  0.3959119505699107  1.0000
  H   H5        1.0  0.56998136904609  0.8134750544815219  0.9181446848548089  1.0000
  H   H6        1.0  0.6517225758969475  0.186875723392923  0.08161371207432216  1.0000
  H   H7        1.0  0.4373120349115497  0.6304397685704614  0.802867170284145  1.0000
  H   H8        1.0  0.6337904725995499  0.36972767306736637  0.19690061217805516  1.0000
  H   H9        1.0  0.3079446023963897  0.6474237608749078  0.005643748595510054  1.0000
  H   H10       1.0  0.30168545616542275  0.35237202509632226  0.9943066714374494  1.0000
  H   H11       1.0  0.5562320299440132  0.6626181439176833  0.11731585302164395  1.0000
  H   H12       1.0  0.4379222514455919  0.3373923700917771  0.8823098387397792  1.0000
  H   H13       1.0  0.675149034802615  0.9571881411286537  0.16269824086381118  1.0000
  H   H14       1.0  0.5120652921835713  0.04280811961106679  0.8371748667583105  1.0000
  H   H15       1.0  0.71547593531659  0.9091867538031053  0.3533774050737009  1.0000
  H   H16       1.0  0.36163797336425324  0.09087973003476427  0.6465779395943869  1.0000
  H   H17       1.0  0.2131057861873984  0.7863120511275808  0.18854856979981338  1.0000
  H   H18       1.0  0.024082922030501698  0.2136022283163115  0.8114646707435611  1.0000
  H   H19       1.0  0.3511862951324786  0.9517743992778521  0.3491898906106811  1.0000
  H   H20       1.0  0.001550920996159296  0.048152777019559785  0.650767202626767  1.0000
  H   H21       1.0  0.26435829722628057  0.536994830416063  0.23214501315619165  1.0000
  H   H22       1.0  0.03191166685191148  0.4630140613691012  0.767998691459745  1.0000
  H   H23       1.0  0.4177342411192056  0.3794478990758208  0.4333087198117979  1.0000
  H   H24       1.0  0.9843853512890774  0.6205945060485758  0.5669696413990336  1.0000
  H   H25       1.0  0.7061994041693751  0.492275276379388  0.7106792357554852  1.0000
  H   H26       1.0  0.9956505508802066  0.5077904098767265  0.289696128304179  1.0000
  H   H27       1.0  0.6823198227075977  0.9204902852809055  0.5834535920695103  1.0000
  H   H28       1.0  0.09860142535491431  0.07943459315848858  0.4166766166516637  1.0000
  C   C1        1.0  0.8946161756563454  0.7742543691562955  0.8201413281340418  1.0000
  C   C2        1.0  0.07446068905576199  0.2257812593501214  0.18011642341060247  1.0000
  C   C3        1.0  0.2749741615251081  0.8745094451733164  0.6711850150704918  1.0000
  C   C4        1.0  0.603816980213793  0.12548291577234486  0.328596284301419  1.0000
  C   C5        1.0  0.44283718904997466  0.7421109141501602  0.8880542096142037  1.0000
  C   C6        1.0  0.5544643711921394  0.2579979142961547  0.11166633130127214  1.0000
  C   C7        1.0  0.4371290160350865  0.7203744003314013  0.046324224584338825  1.0000
  C   C8        1.0  0.3901969709724398  0.27952980301871116  0.9534323871834759  1.0000
  C   C9        1.0  0.6179145756714987  0.9601765209984309  0.25273781594412964  1.0000
  C   C10       1.0  0.3647701519005295  0.039801877356218485  0.747146503202103  1.0000
  C   C11       1.0  0.3574094828068581  0.8392451873490783  0.2741326031394563  1.0000
  C   C12       1.0  0.08279504756988129  0.16066677390816148  0.7258464555304514  1.0000
  C   C13       1.0  0.4626386053107295  0.7401720097754846  0.3905821721896529  1.0000
  C   C14       1.0  0.0717031629115965  0.25976178425330687  0.6094973656180471  1.0000
  C   C15       1.0  0.3917220332358653  0.5863609351193732  0.3505662949927951  1.0000
  C   C16       1.0  0.04078104880704097  0.41358422691897795  0.649542285182406  1.0000
  C   C17       1.0  0.4776878041566662  0.49734034015749257  0.46512008341758804  1.0000
  C   C18       1.0  0.012422063166283706  0.5026760989257542  0.5351432525807382  1.0000
  C   C19       1.0  0.637330569654459  0.559316741855227  0.6189696583344144  1.0000
  C   C20       1.0  0.01839316040649655  0.4407550169567711  0.3813775825804554  1.0000
  C   C21       1.0  0.7140655613178739  0.7111215338332072  0.6588814420421372  1.0000
  C   C22       1.0  0.0551433917429875  0.2889096166105389  0.3413828184068208  1.0000
  C   C23       1.0  0.6247184674319753  0.8005734144443649  0.5452670167722785  1.0000
  C   C24       1.0  0.07931409422058519  0.19939299372708058  0.45491376807936484  1.0000
  N   N1        1.0  0.4320018788600847  0.8684784415326943  0.1574085263909452  1.0000
  N   N2        1.0  0.2741439464801942  0.1314164847316377  0.8424969028974656  1.0000
  O   O1        1.0  0.9599796137960085  0.6998998986793693  0.9302932900215025  1.0000
  O   O2        1.0  0.029339550483030094  0.3000325325018096  0.06986095344890227  1.0000
  O   O3        1.0  0.9705945335987778  0.9027592253127777  0.8257402182939513  1.0000
  O   O4        1.0  0.1450417917202955  0.09733896429561639  0.17451415299734654  1.0000
  O   O5        1.0  0.2800459977944172  0.8124772314054097  0.8046027590198432  1.0000
  O   O6        1.0  0.4753422440230964  0.18733665982614406  0.19506048377017046  1.0000
