data_image0
_chemical_formula_structural       Zn16H48C112S8Br8O52
_chemical_formula_sum              "Zn16 H48 C112 S8 Br8 O52"
_cell_length_a       18.512073724933376
_cell_length_b       19.714825909917785
_cell_length_c       32.77204138345902
_cell_angle_alpha    85.9215181453006
_cell_angle_beta     73.59082770457323
_cell_angle_gamma    61.98967252779594

_space_group_name_H-M_alt    "P 1"
_space_group_IT_number       1

loop_
  _space_group_symop_operation_xyz
  'x, y, z'

loop_
  _atom_site_type_symbol
  _atom_site_label
  _atom_site_symmetry_multiplicity
  _atom_site_fract_x
  _atom_site_fract_y
  _atom_site_fract_z
  _atom_site_occupancy
  Zn  Zn1       1.0  0.8753088249618697  0.5556613477384147  0.518627984069127  1.0000
  Zn  Zn2       1.0  0.03792530949348822  0.4867485324204708  0.4378112055842394  1.0000
  Zn  Zn3       1.0  0.040236513246803406  0.3980357669699615  0.5238885189389036  1.0000
  Zn  Zn4       1.0  0.0478335756859494  0.5588857632189743  0.5191180058859786  1.0000
  Zn  Zn5       1.0  0.6245462400902184  0.19327970827926322  0.7318497211913525  1.0000
  Zn  Zn6       1.0  0.4633418223040665  0.34971668917636123  0.7251754691406802  1.0000
  Zn  Zn7       1.0  0.4597907367263972  0.2651002719802591  0.8129295887164432  1.0000
  Zn  Zn8       1.0  0.452127697935893  0.1918383494370559  0.7301238712651497  1.0000
  Zn  Zn9       1.0  0.46303995227272327  0.7619593484018665  0.31231816058195955  1.0000
  Zn  Zn10      1.0  0.4511111796106066  0.6935292017511826  0.23103173371880809  1.0000
  Zn  Zn11      1.0  0.6259323157842476  0.6920058631311435  0.22989065751119137  1.0000
  Zn  Zn12      1.0  0.4601953198530992  0.8519122193860511  0.2260716313262918  1.0000
  Zn  Zn13      1.0  0.036199019789137324  0.9003237253818528  0.024846709035926992  1.0000
  Zn  Zn14      1.0  0.05043372097154022  0.05579743428123859  0.01842177928619289  1.0000
  Zn  Zn15      1.0  0.8743663861216859  0.0589895646884315  0.019567824959061435  1.0000
  Zn  Zn16      1.0  0.037851968595205975  0.9849034649515003  0.9370430687023513  1.0000
  H   H1        1.0  0.908035035093505  0.2917536766719806  0.6045329423993734  1.0000
  H   H2        1.0  0.8130679981449946  0.24419549885694644  0.6520047292194063  1.0000
  H   H3        1.0  0.5406051637498096  0.4846698166771334  0.6215024812453578  1.0000
  H   H4        1.0  0.5458439741192791  0.524743442034769  0.6670055626871944  1.0000
  H   H5        1.0  0.6422217914893836  0.573065736978087  0.6188035015317439  1.0000
  H   H6        1.0  0.6368743470049053  0.5329508104479785  0.573349442879163  1.0000
  H   H7        1.0  0.19593052462082042  0.5528909224238987  0.3436554573644344  1.0000
  H   H8        1.0  0.2909318160029032  0.6003886070066217  0.29617901716764544  1.0000
  H   H9        1.0  0.35338480902072444  0.6747143129399404  0.43171225697149407  1.0000
  H   H10       1.0  0.2625221296326644  0.7630226717983318  0.4289977367264513  1.0000
  H   H11       1.0  0.16600478219518794  0.7148680783195258  0.4772266280177107  1.0000
  H   H12       1.0  0.2569142403440097  0.6265976004841108  0.4799015250904901  1.0000
  H   H13       1.0  0.9076539256974244  0.5528541954174456  0.343652926824319  1.0000
  H   H14       1.0  0.8127539236817899  0.6003624751636991  0.2961252809697185  1.0000
  H   H15       1.0  0.5454861333249641  0.7631254485073741  0.4289434484549303  1.0000
  H   H16       1.0  0.5401740395845565  0.6748532741398776  0.4316232471363294  1.0000
  H   H17       1.0  0.6365668050130185  0.6265716877285783  0.479786388517894  1.0000
  H   H18       1.0  0.6419916843554179  0.7147784427400552  0.4771836148521018  1.0000
  H   H19       1.0  0.20911628962665688  0.5058580907399772  0.5979382173903289  1.0000
  H   H20       1.0  0.3041268647960321  0.45832777964281485  0.6454238704074343  1.0000
  H   H21       1.0  0.33393077374560687  0.1770597763619648  0.6311691820629193  1.0000
  H   H22       1.0  0.24303089434334177  0.21714133393017934  0.6766290549782781  1.0000
  H   H23       1.0  0.14663550707877002  0.2653510086626767  0.6284914376704194  1.0000
  H   H24       1.0  0.23749616153396158  0.22525501264587433  0.5830183083678121  1.0000
  H   H25       1.0  0.5920394062587492  0.1972402517891538  0.9065659144460696  1.0000
  H   H26       1.0  0.6871889897162762  0.1497448269043673  0.953978758571793  1.0000
  H   H27       1.0  0.9593669048710327  0.07545878583957939  0.818383068606984  1.0000
  H   H28       1.0  0.9541489851842615  0.9871758012821416  0.8210527454071794  1.0000
  H   H29       1.0  0.8577135957575451  0.03530510287152569  0.7728702428239416  1.0000
  H   H30       1.0  0.8629890422484933  0.12358490787592306  0.7702337907123182  1.0000
  H   H31       1.0  0.2907796688893144  0.10021981759625478  0.7960736753599988  1.0000
  H   H32       1.0  0.19576509660224423  0.0527422768402346  0.8435452514846561  1.0000
  H   H33       1.0  0.16591982456602491  0.21467399698303782  0.9771385303258953  1.0000
  H   H34       1.0  0.25686678258845325  0.12642131030495557  0.9797947730219648  1.0000
  H   H35       1.0  0.3532494089910827  0.17455013528246613  0.931608621365818  1.0000
  H   H36       1.0  0.26240244193715523  0.26282062696050446  0.9289396288111859  1.0000
  H   H37       1.0  0.29077941355882353  0.7444378525493319  0.15203272387360295  1.0000
  H   H38       1.0  0.19584891914298924  0.791837923710112  0.10452625333605432  1.0000
  H   H39       1.0  0.256949883055512  0.0330741267379011  0.07326638674712169  1.0000
  H   H40       1.0  0.16591273968828094  0.0731901473836771  0.11869354466387698  1.0000
  H   H41       1.0  0.2622672134532423  0.024985415859035204  0.1669338924643284  1.0000
  H   H42       1.0  0.3532103193267774  0.9848631992637845  0.12149376555254315  1.0000
  H   H43       1.0  0.5919377619294721  0.9583483440818483  0.1454542228499349  1.0000
  H   H44       1.0  0.6869412894208582  0.0058111499133915  0.09793211347152209  1.0000
  H   H45       1.0  0.9541415367326498  0.7252203445342857  0.08298041693033295  1.0000
  H   H46       1.0  0.9593970521825316  0.7653756334002538  0.12844614975873003  1.0000
  H   H47       1.0  0.8631643088378316  0.7171707623963429  0.17663003239440656  1.0000
  H   H48       1.0  0.8578444044277804  0.6769356125800243  0.13122351266041216  1.0000
  C   C1        1.0  0.8627032950517516  0.568438928085037  0.4302990290442494  1.0000
  C   C2        1.0  0.12283884813417961  0.31611955289569243  0.4386211869501508  1.0000
  C   C3        1.0  0.8633095741327994  0.42943803410437914  0.5689663631600154  1.0000
  C   C4        1.0  0.1385130523965686  0.4322121206780593  0.568937364019753  1.0000
  C   C5        1.0  0.8769462376821836  0.6836424486637256  0.5610048100868212  1.0000
  C   C6        1.0  0.13800583121993537  0.5690135143486685  0.4302952356587895  1.0000
  C   C7        1.0  0.6398652160036777  0.3178093142893346  0.680939730776835  1.0000
  C   C8        1.0  0.37755331707974454  0.4339711026897533  0.8110171935294659  1.0000
  C   C9        1.0  0.6365881221772443  0.1815859203978221  0.8199377918442039  1.0000
  C   C10       1.0  0.3614081081955477  0.180470574560168  0.8184004966027771  1.0000
  C   C11       1.0  0.6229024256183068  0.06624135989466139  0.6887334237648233  1.0000
  C   C12       1.0  0.36236682958939087  0.3202048491844067  0.6805450044994714  1.0000
  C   C13       1.0  0.36193512033398906  0.6801334963422788  0.3186384075672706  1.0000
  C   C14       1.0  0.6224413243759771  0.5661450503144321  0.18859534819259946  1.0000
  C   C15       1.0  0.6394979900905896  0.6800806355613319  0.31840378329791724  1.0000
  C   C16       1.0  0.6366695429014801  0.8203964062027467  0.18073853093066813  1.0000
  C   C17       1.0  0.3774263530655875  0.9330837782777335  0.31152982206149454  1.0000
  C   C18       1.0  0.36124671585096724  0.8182685308368036  0.1809764000160001  1.0000
  C   C19       1.0  0.13814125749485118  0.9296953616358086  0.06906972585630203  1.0000
  C   C20       1.0  0.8786893556197912  0.18361421312459208  0.06119024814276491  1.0000
  C   C21       1.0  0.8601330836818732  0.932319270339001  0.0692478738860203  1.0000
  C   C22       1.0  0.8604035465024182  0.06975760698382769  0.9314936991382295  1.0000
  C   C23       1.0  0.12193313528051422  0.8160580978151516  0.9390409383077483  1.0000
  C   C24       1.0  0.13827382435455604  0.0682497105640962  0.9301845670502047  1.0000
  C   C25       1.0  0.7375001645026488  0.8029322661354856  0.6009284997933975  1.0000
  C   C26       1.0  0.7624491671752128  0.9467687108119163  0.6490364585308654  1.0000
  C   C27       1.0  0.8255638120709965  0.758369961953477  0.5860939094171016  1.0000
  C   C28       1.0  0.6743555448828576  0.991337808312657  0.6638337271084679  1.0000
  C   C29       1.0  0.7855514394148672  0.8781233679350606  0.6260886270845631  1.0000
  C   C30       1.0  0.7144184655545517  0.8715878894259675  0.6238500229312507  1.0000
  C   C31       1.0  0.20206207341237103  0.2269039484396274  0.36884776093540245  1.0000
  C   C32       1.0  0.2981960145822813  0.022458025988328197  0.38125764785019095  1.0000
  C   C33       1.0  0.17249591628323915  0.2421112469584372  0.4129030756745209  1.0000
  C   C34       1.0  0.327780904673297  0.007171315642978002  0.3372244748358355  1.0000
  C   C35       1.0  0.2523740337725968  0.1024816424845199  0.39283370946605345  1.0000
  C   C36       1.0  0.2478958875332822  0.1468705576781701  0.3572772573515977  1.0000
  C   C37       1.0  0.6962434429768153  0.3465378767620209  0.6524470858002047  1.0000
  C   C38       1.0  0.8060931880725236  0.40152808000628687  0.5974916242905195  1.0000
  C   C39       1.0  0.6641961782822535  0.41908635834890623  0.6364703268572072  1.0000
  C   C40       1.0  0.8390824604724756  0.32791880142004703  0.6135277234898383  1.0000
  C   C41       1.0  0.7175322189717976  0.4458213007347283  0.609784494771489  1.0000
  C   C42       1.0  0.7858832510559638  0.3012803640994619  0.6401381013448599  1.0000
  C   C43       1.0  0.5834717417225406  0.49213521939353216  0.6359364200288694  1.0000
  C   C44       1.0  0.6438476706032575  0.5224055167901652  0.6057359449098669  1.0000
  C   C45       1.0  0.3049875232631223  0.6520963457639439  0.34719837927001856  1.0000
  C   C46       1.0  0.19503372512513548  0.597334606952522  0.40209241906558907  1.0000
  C   C47       1.0  0.28042804283255435  0.6644292366187726  0.3914410903664347  1.0000
  C   C48       1.0  0.2196774128189178  0.5844848939290939  0.3572586154001343  1.0000
  C   C49       1.0  0.2270039703462885  0.6378106114253441  0.418116659710094  1.0000
  C   C50       1.0  0.2729271136553211  0.6110554109696124  0.3306626793341607  1.0000
  C   C51       1.0  0.2885950478485739  0.7001156566278227  0.4282435182182526  1.0000
  C   C52       1.0  0.22812142082874948  0.6699358300213448  0.4584556224821482  1.0000
  C   C53       1.0  0.6958646488947766  0.6521264251808035  0.3470569572357718  1.0000
  C   C54       1.0  0.8056094088697635  0.5971853325338259  0.40206228076625916  1.0000
  C   C55       1.0  0.6637655969512226  0.6644830825421907  0.39132913372161227  1.0000
  C   C56       1.0  0.8386939942818618  0.5844616467685668  0.35723645342234517  1.0000
  C   C57       1.0  0.7170904359969088  0.6377933668341738  0.4180280289989681  1.0000
  C   C58       1.0  0.7855185310821966  0.611105479213947  0.3306011850516199  1.0000
  C   C59       1.0  0.5830628239530146  0.7002138999011719  0.4281546385099872  1.0000
  C   C60       1.0  0.6434893095062508  0.6699479016852693  0.4583684119302446  1.0000
  C   C61       1.0  0.3050510822646402  0.3484711854670053  0.6523886665982842  1.0000
  C   C62       1.0  0.19507731019644586  0.40351914441750847  0.5974746927753216  1.0000
  C   C63       1.0  0.27295321053349403  0.30427761267714  0.6401713344594525  1.0000
  C   C64       1.0  0.22713049367696672  0.44877918319863136  0.6098061241476812  1.0000
  C   C65       1.0  0.21955215652987903  0.3309915440047035  0.613478345651785  1.0000
  C   C66       1.0  0.2803683426563596  0.4221507800997841  0.6364054478297945  1.0000
  C   C67       1.0  0.2718258981237227  0.22769631900965243  0.6442498371619649  1.0000
  C   C68       1.0  0.2113876448911754  0.25792208903803976  0.6140631897582836  1.0000
  C   C69       1.0  0.2981459746731333  0.5832308399548297  0.8208155013915714  1.0000
  C   C70       1.0  0.2018586118804108  0.6668133206616389  0.9292515309564352  1.0000
  C   C71       1.0  0.3276580466827499  0.5095358981489894  0.8352056419495213  1.0000
  C   C72       1.0  0.1722021216263983  0.7404990383615343  0.9148549116775301  1.0000
  C   C73       1.0  0.24776006169392434  0.6094522913040807  0.8950206093074442  1.0000
  C   C74       1.0  0.25225101375677644  0.6405912994134297  0.8550484648458436  1.0000
  C   C75       1.0  0.8039058741549641  0.09797248888226312  0.9029421946140629  1.0000
  C   C76       1.0  0.6938462955471325  0.15290377237647593  0.8481013027245651  1.0000
  C   C77       1.0  0.8358417934775488  0.0856642691738188  0.8586835369712488  1.0000
  C   C78       1.0  0.6609842509466759  0.16562397014511276  0.8929229297358178  1.0000
  C   C79       1.0  0.7823991907959141  0.1123541047733383  0.8320186668137027  1.0000
  C   C80       1.0  0.7142757738044739  0.1390461684059119  0.9194980640700834  1.0000
  C   C81       1.0  0.9164987714753325  0.05007574286160829  0.8218661453938978  1.0000
  C   C82       1.0  0.8560784441570208  0.08023235779363351  0.7916674506808903  1.0000
  C   C83       1.0  0.19488808947171074  0.0970742023030624  0.9019753879937653  1.0000
  C   C84       1.0  0.3047613373941261  0.1520679187134562  0.847038301661584  1.0000
  C   C85       1.0  0.22687981664155646  0.13759338840951327  0.9179955414357934  1.0000
  C   C86       1.0  0.27271764490360795  0.11096551022817638  0.8305505244311108  1.0000
  C   C87       1.0  0.28023531833675014  0.16431796819381364  0.891311635953933  1.0000
  C   C88       1.0  0.2194943324774386  0.0843517976623573  0.8571474940792356  1.0000
  C   C89       1.0  0.2280369680238792  0.16973647279515083  0.9583389913701978  1.0000
  C   C90       1.0  0.288482335229233  0.1999197548134077  0.928126054125471  1.0000
  C   C91       1.0  0.642060762034575  0.446787852193566  0.14894648165594046  1.0000
  C   C92       1.0  0.858990390598962  0.30294342355080767  0.1009094638305824  1.0000
  C   C93       1.0  0.6708610415198208  0.4912717070435945  0.16375056557323833  1.0000
  C   C94       1.0  0.8302803593213357  0.25842785534832297  0.08609664788470177  1.0000
  C   C95       1.0  0.7904857086831925  0.3715625446369303  0.12383126817704948  1.0000
  C   C96       1.0  0.7105646206930346  0.37811178220140806  0.12604651587373894  1.0000
  C   C97       1.0  0.1950147973471843  0.9016578060385214  0.09743182739438082  1.0000
  C   C98       1.0  0.3047444117367063  0.8468607097479152  0.1524390832016422  1.0000
  C   C99       1.0  0.22696832454482072  0.9459557429392832  0.10968135020127785  1.0000
  C   C100      1.0  0.2727669763300968  0.8014982245297944  0.1401323888387651  1.0000
  C   C101      1.0  0.2802367623012219  0.9193300935368567  0.1364206182880849  1.0000
  C   C102      1.0  0.2195938494632373  0.8280660441321075  0.11350128355985589  1.0000
  C   C103      1.0  0.2280537918178709  0.022556561065250905  0.1056375073802727  1.0000
  C   C104      1.0  0.288420063052449  0.9923535994863215  0.1358756713450333  1.0000
  C   C105      1.0  0.8037256721012797  0.9034650524428471  0.09753156178049237  1.0000
  C   C106      1.0  0.6938926311130872  0.848494785671008  0.15241880155483045  1.0000
  C   C107      1.0  0.8358023627187734  0.8309054962063414  0.1134684115159884  1.0000
  C   C108      1.0  0.6608856266990913  0.9221283908139383  0.13642444137911272  1.0000
  C   C109      1.0  0.7824517110446723  0.8041791730701463  0.14014765305365975  1.0000
  C   C110      1.0  0.7140957976825961  0.9487489822896932  0.10981706114875316  1.0000
  C   C111      1.0  0.9165222011084496  0.7578849553753173  0.11403263529680172  1.0000
  C   C112      1.0  0.8561560455655411  0.7276435089579254  0.14424982304308998  1.0000
  S   S1        1.0  0.8802936497732575  0.8006182991651585  0.6002516823123543  1.0000
  S   S2        1.0  0.6196621396095453  0.9491060766263716  0.6496468418595143  1.0000
  S   S3        1.0  0.20080285462200462  0.15830469597204913  0.4402243113536741  1.0000
  S   S4        1.0  0.2995040332114698  0.09097093910764188  0.3098990532667045  1.0000
  S   S5        1.0  0.2993026624138082  0.5104424743594507  0.8907708847227624  1.0000
  S   S6        1.0  0.20061622233984633  0.739596493592735  0.8592911177337044  1.0000
  S   S7        1.0  0.7819670890544475  0.44900211159397685  0.1496400968890725  1.0000
  S   S8        1.0  0.7191523913580654  0.3006496870933546  0.10021910196542899  1.0000
  Br  Br1       1.0  0.6539053992264102  0.7804047382027478  0.5933555005405964  1.0000
  Br  Br2       1.0  0.8460174420741426  0.9692312479139389  0.6566372645081486  1.0000
  Br  Br3       1.0  0.18698973114945971  0.2988217534193893  0.32712242617010656  1.0000
  Br  Br4       1.0  0.3133450235418351  0.9505175252291808  0.42303719775119936  1.0000
  Br  Br5       1.0  0.3133704377704093  0.6099619543549721  0.7639867025536446  1.0000
  Br  Br6       1.0  0.18668477083419793  0.6401213304357611  0.9860690278926681  1.0000
  Br  Br7       1.0  0.5284488141986332  0.4694214949981088  0.15642921110529068  1.0000
  Br  Br8       1.0  0.9727291107793761  0.2802565941505931  0.09336856604775787  1.0000
  O   O1        1.0  0.000587558194020185  0.49970027268450684  0.5003339806439868  1.0000
  O   O2        1.0  0.826225286856449  0.583080560960923  0.4704097746727031  1.0000
  O   O3        1.0  0.10216612969765757  0.3769099035937842  0.4184853862226632  1.0000
  O   O4        1.0  0.9435122225368887  0.384385640631102  0.5594652694950923  1.0000
  O   O5        1.0  0.9428615109891685  0.5317447919681371  0.4124217702466453  1.0000
  O   O6        1.0  0.8265001251423316  0.4969418999041793  0.5563055245589439  1.0000
  O   O7        1.0  0.10504754157118164  0.31216003850639856  0.4791883760285813  1.0000
  O   O8        1.0  0.1140786320657625  0.3860621480667774  0.5594503911965347  1.0000
  O   O9        1.0  0.9580348748024432  0.6566484812749566  0.5516807541655311  1.0000
  O   O10       1.0  0.11917989324966534  0.49981325396345255  0.55635275385103  1.0000
  O   O11       1.0  0.8368384403337787  0.6528957220447467  0.5509005164399312  1.0000
  O   O12       1.0  0.11294291303736508  0.5319178325339706  0.4123251954289913  1.0000
  O   O13       1.0  0.11878952075484513  0.584455863029163  0.47036246516176317  1.0000
  O   O14       1.0  0.49936204278365204  0.24967421319631464  0.7502822374242157  1.0000
  O   O15       1.0  0.6754989517536244  0.2505056540874406  0.6938561607700393  1.0000
  O   O16       1.0  0.3987173432775252  0.4337071459053305  0.7705405046241296  1.0000
  O   O17       1.0  0.5563621102887667  0.2185721282958752  0.8376544488254822  1.0000
  O   O18       1.0  0.5597168453064187  0.3636146462173571  0.690136916196053  1.0000
  O   O19       1.0  0.6734595846359569  0.1664439090634886  0.7798764662460869  1.0000
  O   O20       1.0  0.39503581009585537  0.3751577866358958  0.833317993894326  1.0000
  O   O21       1.0  0.3858510513672685  0.2177891601271256  0.8367135251174601  1.0000
  O   O22       1.0  0.5418037162761851  0.0939682963186783  0.6974540696348156  1.0000
  O   O23       1.0  0.3807544122477041  0.16552574368986234  0.7783033575279886  1.0000
  O   O24       1.0  0.6630865605457361  0.0964842863592352  0.6992457250217043  1.0000
  O   O25       1.0  0.3879183260395537  0.36546223475755113  0.6899273045817154  1.0000
  O   O26       1.0  0.3813222158606423  0.25246947048243135  0.692926865187509  1.0000
  O   O27       1.0  0.5006810037237417  0.7503072285978121  0.24970713964019348  1.0000
  O   O28       1.0  0.3874320062488793  0.7166148639703565  0.3368690597752034  1.0000
  O   O29       1.0  0.5415163327101954  0.5964648355776915  0.19889223921875035  1.0000
  O   O30       1.0  0.6751049729992787  0.6656631727794817  0.2783086052962389  1.0000
  O   O31       1.0  0.38072488881169875  0.6656311322462187  0.2785679734485029  1.0000
  O   O32       1.0  0.5593273251710825  0.7164492963371175  0.3367964276902455  1.0000
  O   O33       1.0  0.6669410931843416  0.5938580869520462  0.197525482389878  1.0000
  O   O34       1.0  0.6733681199428077  0.7525548177541665  0.19297436990962072  1.0000
  O   O35       1.0  0.3950320582563196  0.9373169825853577  0.2709921853770538  1.0000
  O   O36       1.0  0.5564732389252997  0.8657419603782799  0.1904177603822816  1.0000
  O   O37       1.0  0.39807393177169814  0.8721826035526944  0.3315905504816641  1.0000
  O   O38       1.0  0.38044926366816173  0.7506620069053652  0.19349357662614608  1.0000
  O   O39       1.0  0.3857964548123006  0.8642116157944103  0.19060749646548913  1.0000
  O   O40       1.0  0.9994606230829604  0.0002820323719988002  0.9996536744686679  1.0000
  O   O41       1.0  0.1120444801171132  0.8847686772231  0.05988320615714572  1.0000
  O   O42       1.0  0.9596791115013877  0.15284250933210333  0.050958886724082206  1.0000
  O   O43       1.0  0.8246786110253269  3.183048910700064e-06  0.0567838168028487  1.0000
  O   O44       1.0  0.12012854027710786  0.9970669760346881  0.05625197569059986  1.0000
  O   O45       1.0  0.9402450595114477  0.8861735138671705  0.059860790965885244  1.0000
  O   O46       1.0  0.8338107716715514  0.15645792364335154  0.05218789873736538  1.0000
  O   O47       1.0  0.824737557287044  0.08524216738562979  0.9715416770619995  1.0000
  O   O48       1.0  0.10349275041870236  0.8748218107320085  0.91669330792827  1.0000
  O   O49       1.0  0.9404891427679946  0.0321255588821288  0.913178867639722  1.0000
  O   O50       1.0  0.10142561098553655  0.8163254074034543  0.9795028399196823  1.0000
  O   O51       1.0  0.1203216494378054  0.0829346071609649  0.9702627276591897  1.0000
  O   O52       1.0  0.11253331149254114  0.03155730917613649  0.9124096214437714  1.0000
