data_image0
_chemical_formula_structural       Cu4H32C56I4N4
_chemical_formula_sum              "Cu4 H32 C56 I4 N4"
_cell_length_a       4.061100925379523
_cell_length_b       16.378914923411173
_cell_length_c       18.813954160107844
_cell_angle_alpha    113.24654896148557
_cell_angle_beta     89.92434946951114
_cell_angle_gamma    97.15385235927302

_space_group_name_H-M_alt    "P 1"
_space_group_IT_number       1

loop_
  _space_group_symop_operation_xyz
  'x, y, z'

loop_
  _atom_site_type_symbol
  _atom_site_label
  _atom_site_symmetry_multiplicity
  _atom_site_fract_x
  _atom_site_fract_y
  _atom_site_fract_z
  _atom_site_occupancy
  Cu  Cu1       1.0  0.47074201883445005  0.5042404792349657  0.20612432904955108  1.0000
  Cu  Cu2       1.0  0.9661579984386038  0.4961594008267624  0.2943048828225372  1.0000
  Cu  Cu3       1.0  0.5292422193120458  0.4957665440737741  0.7938775265265505  1.0000
  Cu  Cu4       1.0  0.033822996893015045  0.5038362427215262  0.7056978786190201  1.0000
  H   H1        1.0  0.7372716048973659  0.5216998828631672  0.06293618517529602  1.0000
  H   H2        1.0  0.2159455358151519  0.47838056424006936  0.4370321625118335  1.0000
  H   H3        1.0  0.2627505710931786  0.4783091755639503  0.9370716736473099  1.0000
  H   H4        1.0  0.7840176692712149  0.5216090298099585  0.5629653506798746  1.0000
  H   H5        1.0  0.23063144871476735  0.6775576112417735  0.24801212745332163  1.0000
  H   H6        1.0  0.5540398319685167  0.3225280178665883  0.25213371276677066  1.0000
  H   H7        1.0  0.7693454043507941  0.3224494004928856  0.7519870676455724  1.0000
  H   H8        1.0  0.4459345650475227  0.6774642540974792  0.7478636483896182  1.0000
  H   H9        1.0  0.7471637840982481  0.6314578506673099  0.0006645990279920184  1.0000
  H   H10       1.0  0.11563562432932882  0.3686245938544203  0.4992635040558042  1.0000
  H   H11       1.0  0.2529022644420635  0.3685552339954369  0.9993451570466547  1.0000
  H   H12       1.0  0.8843215346659151  0.6313676849463191  0.5007354565352173  1.0000
  H   H13       1.0  0.233853628874634  0.7962761709410484  0.19678736066944671  1.0000
  H   H14       1.0  0.4371317231161242  0.2040072166479519  0.3035558020881055  1.0000
  H   H15       1.0  0.766192055640765  0.20373554007917954  0.8032144889179449  1.0000
  H   H16       1.0  0.5628300273914207  0.7959843800199451  0.6964402677329105  1.0000
  H   H17       1.0  0.778164392406147  0.7888474195998679  0.9193640892514452  1.0000
  H   H18       1.0  0.9875866501989635  0.21138072806854774  0.5806484362518276  1.0000
  H   H19       1.0  0.22185052123860058  0.21115688908353988  0.08062939531644277  1.0000
  H   H20       1.0  0.012417176596123607  0.7886162614448791  0.4193558435980407  1.0000
  H   H21       1.0  0.7869141966332691  0.04729900865999779  0.8420828733363807  1.0000
  H   H22       1.0  0.7403238257999618  0.9526401920360782  0.6576966783082839  1.0000
  H   H23       1.0  0.21311257549353252  0.952709342252113  0.1579162393051376  1.0000
  H   H24       1.0  0.2596738515447541  0.04734940910780949  0.3423024268050554  1.0000
  H   H25       1.0  0.04014822950922801  0.9129681660705272  0.7597977019020875  1.0000
  H   H26       1.0  0.1271097444599292  0.08710564722153434  0.7398901063580894  1.0000
  H   H27       1.0  0.9598402702362563  0.08703747448827667  0.240194114368748  1.0000
  H   H28       1.0  0.8728808793986074  0.9128846337354868  0.2601113575729101  1.0000
  H   H29       1.0  0.030806271848902615  0.7833277666649747  0.7990864100801502  1.0000
  H   H30       1.0  0.2463106208160751  0.21686360364553534  0.7006997283331273  1.0000
  H   H31       1.0  0.9691752929419268  0.21667383861201725  0.20090137433182784  1.0000
  H   H32       1.0  0.7536933194662225  0.783128698462576  0.29930454856140176  1.0000
  C   C1        1.0  0.6236456493635386  0.5830476579108532  0.08977129826150325  1.0000
  C   C2        1.0  0.04081958369607721  0.4170575856529125  0.41026601434277404  1.0000
  C   C3        1.0  0.3763737309565656  0.4169607183466794  0.9102336708643931  1.0000
  C   C4        1.0  0.959139699793262  0.5829340363848984  0.5897359112470966  1.0000
  C   C5        1.0  0.34431898172155684  0.6703991908073802  0.19362058948784264  1.0000
  C   C6        1.0  0.6743617427412615  0.3297580701436684  0.3065274926203401  1.0000
  C   C7        1.0  0.6556920086447136  0.3296071550936758  0.8063794367186006  1.0000
  C   C8        1.0  0.3255957524727008  0.670234874662128  0.6934706318544598  1.0000
  C   C9        1.0  0.6306265844998293  0.6443527460897299  0.055625915590994134  1.0000
  C   C10       1.0  0.9860106883726588  0.3557798942268703  0.4444030293025278  1.0000
  C   C11       1.0  0.3694148430405519  0.3556603222982701  0.9443801178905815  1.0000
  C   C12       1.0  0.01394087423739171  0.6442110479243295  0.5555965396162463  1.0000
  C   C13       1.0  0.6407754681212979  0.9962153389971958  0.9290398017430165  1.0000
  C   C14       1.0  0.6447399444807901  0.0037887769720157008  0.5708888253181075  1.0000
  C   C15       1.0  0.35926148854012047  0.0037936848913701997  0.0709600702815365  1.0000
  C   C16       1.0  0.355261872988862  0.9962041726691663  0.4291103573371798  1.0000
  C   C17       1.0  0.6389474072765751  0.9219552013840299  0.9514926720925345  1.0000
  C   C18       1.0  0.7161355643053186  0.07814814836732609  0.5485302419677113  1.0000
  C   C19       1.0  0.36108395510144925  0.07805247431764428  0.0485051467092816  1.0000
  C   C20       1.0  0.2838613262740425  0.9218448127867019  0.45147160295358896  1.0000
  C   C21       1.0  0.492837374632046  0.7245300367498331  0.09398287949348118  1.0000
  C   C22       1.0  0.7670274155598164  0.27574234663308056  0.4063045254027742  1.0000
  C   C23       1.0  0.5072242034496597  0.27547900110601364  0.9060201828140464  1.0000
  C   C24       1.0  0.23292873772181363  0.7242479180002019  0.5936932173662015  1.0000
  C   C25       1.0  0.49976045198874897  0.8540000536698429  0.04443333135233016  1.0000
  C   C26       1.0  0.6435814670648838  0.14629661844372777  0.4558922350654128  1.0000
  C   C27       1.0  0.5003039230244752  0.1460096594331759  0.9555710237216246  1.0000
  C   C28       1.0  0.35639998091518515  0.8536949875520177  0.5441059611339012  1.0000
  C   C29       1.0  0.3454155787742863  0.7360562102468078  0.16473997631294407  1.0000
  C   C30       1.0  0.6090351385330591  0.26420773338048054  0.33554001189209964  1.0000
  C   C31       1.0  0.6546187965409871  0.2639575310319201  0.8352668190559882  1.0000
  C   C32       1.0  0.3909266111337643  0.7357838679023555  0.6644571225491092  1.0000
  C   C33       1.0  0.49900582427644485  0.9262917895628815  0.022208266692501765  1.0000
  C   C34       1.0  0.5714633967788174  0.07387452545063407  0.47795336078154793  1.0000
  C   C35       1.0  0.5010367283498097  0.07371857328269732  0.9777915293143878  1.0000
  C   C36       1.0  0.4285345007752426  0.9261204429484449  0.5220481050315016  1.0000
  C   C37       1.0  0.7791405439459851  0.8452681206004157  0.9023448383753491  1.0000
  C   C38       1.0  0.9324506126685391  0.15492618525284735  0.5976545468120946  1.0000
  C   C39       1.0  0.2208739199928402  0.15474020948324346  0.0976494852640855  1.0000
  C   C40       1.0  0.06755399921046745  0.8450674534803252  0.40234912247019844  1.0000
  C   C41       1.0  0.7842066324056844  0.9903575153036069  0.8584313223553863  1.0000
  C   C42       1.0  0.7939995423134504  0.0096343532558834  0.6413831374896048  1.0000
  C   C43       1.0  0.2158176802693959  0.009650819443976399  0.14156406447319372  1.0000
  C   C44       1.0  0.2060019385171188  0.9903579326877077  0.35861741359200033  1.0000
  C   C45       1.0  0.5001927643199479  0.7918561767649448  0.06503396376267988  1.0000
  C   C46       1.0  0.7055989538130945  0.20862578439079724  0.4354742003356833  1.0000
  C   C47       1.0  0.4998871608554154  0.20816494154192355  0.9349753390680959  1.0000
  C   C48       1.0  0.29436425421579326  0.791363793506953  0.5645195866853285  1.0000
  C   C49       1.0  0.9226251541937883  0.9155744972803955  0.8127561245845882  1.0000
  C   C50       1.0  0.006687914523936905  0.08452550732893369  0.6870454607264591  1.0000
  C   C51       1.0  0.0773820389920274  0.08442912920892807  0.1872344710021068  1.0000
  C   C52       1.0  0.993298456142817  0.9154661102286494  0.3129553963078279  1.0000
  C   C53       1.0  0.9190515938036371  0.8422226485974418  0.8349654883657393  1.0000
  C   C54       1.0  0.0758079626664241  0.15794705797388525  0.6649198472274165  1.0000
  C   C55       1.0  0.0809386958986593  0.15778165996349705  0.16502799977976676  1.0000
  C   C56       1.0  0.9241892620298414  0.8420465807225451  0.3350838231281655  1.0000
  I   I1        1.0  0.907783225945501  0.3941145162755931  0.14368848606462592  1.0000
  I   I2        1.0  0.5136078764661606  0.6065384610936063  0.35660123957062234  1.0000
  I   I3        1.0  0.09220257984667062  0.6058858193174429  0.8563153422369396  1.0000
  I   I4        1.0  0.48636964907614544  0.39345517750484754  0.6434024336470542  1.0000
  N   N1        1.0  0.48505890331283297  0.5949265428852326  0.15784883175682293  1.0000
  N   N2        1.0  0.8902800038709557  0.40528683275783095  0.3422707349750453  1.0000
  N   N3        1.0  0.514925669370939  0.4050811556584363  0.8421543169434571  1.0000
  N   N4        1.0  0.10967782588027566  0.5947067872829022  0.6577286826239329  1.0000
