data_image0
_chemical_formula_structural       CdH52C52N10O6
_chemical_formula_sum              "Cd1 H52 C52 N10 O6"
_cell_length_a       9.051249382470056
_cell_length_b       9.539825184060211
_cell_length_c       15.163
_cell_angle_alpha    95.8015550440751
_cell_angle_beta     100.80197191046074
_cell_angle_gamma    115.96385027391148

_space_group_name_H-M_alt    "P 1"
_space_group_IT_number       1

loop_
  _space_group_symop_operation_xyz
  'x, y, z'

loop_
  _atom_site_type_symbol
  _atom_site_label
  _atom_site_symmetry_multiplicity
  _atom_site_fract_x
  _atom_site_fract_y
  _atom_site_fract_z
  _atom_site_occupancy
  Cd  Cd1       1.0  0.9999918578866627  0.9999942382719667  0.9999979312845112  1.0000
  H   H1        1.0  0.5161680263886267  0.8858406570914565  0.13846192646419547  1.0000
  H   H2        1.0  0.4838148475123915  0.1141333202636261  0.8615343707208751  1.0000
  H   H3        1.0  0.1772791146279644  0.7725070471354272  0.4943967228622057  1.0000
  H   H4        1.0  0.8227345650935547  0.2275038765975026  0.5056139438537386  1.0000
  H   H5        1.0  0.4082393921141191  0.193875521844582  0.0400521453707654  1.0000
  H   H6        1.0  0.5917544572177746  0.8061091818782558  0.9599486998385911  1.0000
  H   H7        1.0  0.6427146282676899  0.4705359582586509  0.09089289711075565  1.0000
  H   H8        1.0  0.3572804103271636  0.5294511291014743  0.909112849238049  1.0000
  H   H9        1.0  0.2949561091886536  0.6060111749129999  0.18770052228290976  1.0000
  H   H10       1.0  0.7050289356874941  0.39398067972168593  0.8122833052113876  1.0000
  H   H11       1.0  0.07305055028264461  0.3188174453565225  0.1352436672143327  1.0000
  H   H12       1.0  0.9269363430013795  0.6811803683713648  0.8647361295462657  1.0000
  H   H13       1.0  0.7265973520075235  0.7480556959123277  0.22672292443559167  1.0000
  H   H14       1.0  0.2733999360863564  0.2519313914477976  0.7732705430711204  1.0000
  H   H15       1.0  0.682042803415058  0.763811538336256  0.11165294614533386  1.0000
  H   H16       1.0  0.31795270078438154  0.2361719735679486  0.8883394349031446  1.0000
  H   H17       1.0  0.4753810916255361  0.1636760293196247  0.39785754889629726  1.0000
  H   H18       1.0  0.5246244567956139  0.8363253598641833  0.6021364332726549  1.0000
  H   H19       1.0  0.5766483319450018  0.7913914134899755  0.4865438502764832  1.0000
  H   H20       1.0  0.42334008717967464  0.2086004411447107  0.5134489282087884  1.0000
  H   H21       1.0  0.604912838038878  0.7170290812510487  0.3368490259933026  1.0000
  H   H22       1.0  0.3950950243947418  0.2829746915700397  0.6631480046446967  1.0000
  H   H23       1.0  0.6150165060600159  0.15255993686214  0.1948436229994996  1.0000
  H   H24       1.0  0.38497318085152427  0.8474164241302231  0.8051423764721262  1.0000
  H   H25       1.0  0.521887963138326  0.236677304671403  0.2623373935030529  1.0000
  H   H26       1.0  0.4781270488835005  0.7633205090564843  0.7376541225062283  1.0000
  H   H27       1.0  0.3923321191260314  0.0632843779779293  0.17476523516513248  1.0000
  H   H28       1.0  0.6076603333921113  0.9367110521126776  0.82523151943856  1.0000
  H   H29       1.0  0.08044893051330598  0.07611549745871567  0.2206877456571092  1.0000
  H   H30       1.0  0.919555686698672  0.9238930426369336  0.7793184581103105  1.0000
  H   H31       1.0  0.11880242670178369  0.958938469753093  0.3583532345611431  1.0000
  H   H32       1.0  0.8812225650283024  0.0410748376171171  0.6416522542616292  1.0000
  H   H33       1.0  0.9910114325876478  0.5258530286265994  0.1716278005390279  1.0000
  H   H34       1.0  0.008998213740412122  0.4741543196504097  0.8283749330579013  1.0000
  H   H35       1.0  0.961519394483467  0.6600625338850106  0.04309729563053815  1.0000
  H   H36       1.0  0.038454066319864914  0.339937663480157  0.9569042324836302  1.0000
  H   H37       1.0  0.033985739261204614  0.5283689577761379  0.3326865772722981  1.0000
  H   H38       1.0  0.9660319738537736  0.47164554141271237  0.6673234490613708  1.0000
  H   H39       1.0  0.24001110519938598  0.6918316515591625  0.36933494037734244  1.0000
  H   H40       1.0  0.7600033626939577  0.3081876149042486  0.6306763450845665  1.0000
  H   H41       1.0  0.7293021010182983  0.6515291124209168  0.6314308286253264  1.0000
  H   H42       1.0  0.27071672283574344  0.3485056476848172  0.36858258899890467  1.0000
  H   H43       1.0  0.4960741665483397  0.4190422420885866  0.34646247480847586  1.0000
  H   H44       1.0  0.5039338249121739  0.5809662980070625  0.6535533394500206  1.0000
  H   H45       1.0  0.7746862433627015  0.5165699532377914  0.3173988804556203  1.0000
  H   H46       1.0  0.22532393308338067  0.4834362032205703  0.682616367153706  1.0000
  H   H47       1.0  0.022720118682265335  0.7902365412275854  0.6902360746272223  1.0000
  H   H48       1.0  0.9772950083560018  0.20978630069174634  0.3097728739625296  1.0000
  H   H49       1.0  0.12476443409360624  0.9043424496624863  0.6139237501105297  1.0000
  H   H50       1.0  0.8752481853918468  0.0956708577077237  0.3860856305841834  1.0000
  H   H51       1.0  0.14395570981449163  0.73230462076296  0.6304413221475115  1.0000
  H   H52       1.0  0.8560582279608155  0.26771583751909117  0.3695719583041708  1.0000
  C   C1        1.0  0.3878744590173183  0.2887216410532645  0.07293784438564188  1.0000
  C   C2        1.0  0.6121160805794901  0.7112654463068608  0.9270614631426851  1.0000
  C   C3        1.0  0.5186155384188567  0.4442980708938435  0.10206509159711888  1.0000
  C   C4        1.0  0.4813760614140177  0.5556866328290011  0.8979355019524389  1.0000
  C   C5        1.0  0.4872877725594477  0.5633965076126939  0.14297626178347397  1.0000
  C   C6        1.0  0.5127023014327747  0.4365941552033519  0.8570166260422099  1.0000
  C   C7        1.0  0.3251636819422501  0.5175424772482273  0.15619227688598158  1.0000
  C   C8        1.0  0.6748242715778402  0.48245295284237943  0.8437947413967349  1.0000
  C   C9        1.0  0.2015139892045283  0.3591342863184437  0.12668507152548605  1.0000
  C   C10       1.0  0.7984797816034684  0.6408682946839974  0.8733056903336942  1.0000
  C   C11       1.0  0.6238236233873805  0.7357227566231612  0.169269112353703  1.0000
  C   C12       1.0  0.3761726689838767  0.2642690980115248  0.8307258659410406  1.0000
  C   C13       1.0  0.552763378621357  0.8941083029987738  0.2778816209771691  1.0000
  C   C14       1.0  0.44723979127387276  0.10588831891047328  0.7221124514143682  1.0000
  C   C15       1.0  0.5197145833517  0.024701633137546294  0.2982650768845048  1.0000
  C   C16       1.0  0.48028236816448805  0.9752937969530606  0.7017295430383754  1.0000
  C   C17       1.0  0.5001130412866671  0.0624989694940155  0.38480452913901075  1.0000
  C   C18       1.0  0.4998940974885712  0.9374988442338716  0.6151907225616923  1.0000
  C   C19       1.0  0.5146351581904155  0.9800360433225634  0.45530120266889895  1.0000
  C   C20       1.0  0.4853662278103741  0.01995700313076299  0.5446924427645  1.0000
  C   C21       1.0  0.558131873132794  0.8580391036706558  0.4352155690916247  1.0000
  C   C22       1.0  0.44186832360503553  0.14195155914539004  0.564774494202524  1.0000
  C   C23       1.0  0.574889820342861  0.8148309106875116  0.3487366927409922  1.0000
  C   C24       1.0  0.425113944183849  0.18516690304037545  0.6512568624698218  1.0000
  C   C25       1.0  0.5115761293784686  0.12415651502801948  0.22919566055452376  1.0000
  C   C26       1.0  0.48842234797837136  0.8758329559693863  0.7707947940904488  1.0000
  C   C27       1.0  0.06426356136648079  0.9549577954946997  0.21309206294466776  1.0000
  C   C28       1.0  0.935734708439561  0.0450447855077485  0.7869071162352766  1.0000
  C   C29       1.0  0.08542066909360099  0.8893600975360697  0.2894603735676711  1.0000
  C   C30       1.0  0.9145969795079336  0.1106520180154931  0.7105435584562513  1.0000
  C   C31       1.0  0.06535968763591174  0.7340005786880184  0.2767223869895616  1.0000
  C   C32       1.0  0.9346527383092037  0.2660055777703505  0.7232832197780752  1.0000
  C   C33       1.0  0.01722242945032078  0.6499428018107662  0.18640875855766836  1.0000
  C   C34       1.0  0.9827860276147716  0.3500621628289622  0.8135969879009933  1.0000
  C   C35       1.0  0.9986270591549979  0.7240786885080437  0.11385961965442697  1.0000
  C   C36       1.0  0.0013649922720019782  0.27592270067575697  0.8861486805581507  1.0000
  C   C37       1.0  0.10386300423211024  0.659230644474128  0.3556027428509835  1.0000
  C   C38       1.0  0.8961490851353061  0.3407838547147222  0.6444066543332099  1.0000
  C   C39       1.0  0.9152823157025765  0.646690328741556  0.45696995294085946  1.0000
  C   C40       1.0  0.08472930806026108  0.3533277459032148  0.5430396195416733  1.0000
  C   C41       1.0  0.8981220646041661  0.6820158332381749  0.5468278535549301  1.0000
  C   C42       1.0  0.10189690228722267  0.31800343322523617  0.4531859137268555  1.0000
  C   C43       1.0  0.7362921718727192  0.6220351765309784  0.5613718719549964  1.0000
  C   C44       1.0  0.2637299617164075  0.3779971999374752  0.4386430833502644  1.0000
  C   C45       1.0  0.5850575165685753  0.5275656720126207  0.49136039034832624  1.0000
  C   C46       1.0  0.4149717020953147  0.4724583617253514  0.5086554865203466  1.0000
  C   C47       1.0  0.6066863994301102  0.4909935252183145  0.40411464860209617  1.0000
  C   C48       1.0  0.39333018893535865  0.5090209739705358  0.5959011874025676  1.0000
  C   C49       1.0  0.7665884496612776  0.5477526961409467  0.3868688685597447  1.0000
  C   C50       1.0  0.2334235751926954  0.4522594194106233  0.6131463053164765  1.0000
  C   C51       1.0  0.05404909912029852  0.7819951153303464  0.62404253026979  1.0000
  C   C52       1.0  0.9459721817835599  0.2180265347703383  0.37596834998014816  1.0000
  N   N1        1.0  0.2305261916809371  0.2461141246647998  0.08393412021872848  1.0000
  N   N2        1.0  0.769465730719169  0.7538824972444473  0.9160626508744443  1.0000
  N   N3        1.0  0.5697723144052348  0.8525686561119628  0.1920961937839749  1.0000
  N   N4        1.0  0.4302325748709847  0.1474291576159175  0.8078988062569363  1.0000
  N   N5        1.0  0.02317200065720471  0.8751071384174836  0.12628426466821446  1.0000
  N   N6        1.0  0.9768223002688217  0.1248942507663244  0.8737176922031578  1.0000
  N   N7        1.0  0.07402167518989701  0.7091809555050901  0.4404030372606442  1.0000
  N   N8        1.0  0.9259859796929248  0.2908359273210407  0.5596033774124365  1.0000
  N   N9        1.0  0.7513296444077682  0.1554572479765568  0.0378850720386055  1.0000
  N   N10       1.0  0.2486231333206702  0.8445060030107641  0.9620946455124724  1.0000
  O   O1        1.0  0.8339467629253291  0.08671314880770348  0.07690081443555387  1.0000
  O   O2        1.0  0.16604998104006094  0.9132953912879458  0.9230926375208169  1.0000
  O   O3        1.0  0.7772082639692499  0.2886620501212532  0.07891986848886029  1.0000
  O   O4        1.0  0.22274727936579095  0.7113202699643109  0.9210316936884408  1.0000
  O   O5        1.0  0.6475242518894077  0.0866797778857773  0.9606785412085868  1.0000
  O   O6        1.0  0.3523851682440124  0.9132191148949715  0.039317953300958684  1.0000
