data_image0
_chemical_formula_structural       Zn2H34C52N4Cl6O12
_chemical_formula_sum              "Zn2 H34 C52 N4 Cl6 O12"
_cell_length_a       12.668458844141622
_cell_length_b       13.880461758180605
_cell_length_c       23.51628886490336
_cell_angle_alpha    89.81128681387366
_cell_angle_beta     91.91409262944664
_cell_angle_gamma    94.24427780171084

_space_group_name_H-M_alt    "P 1"
_space_group_IT_number       1

loop_
  _space_group_symop_operation_xyz
  'x, y, z'

loop_
  _atom_site_type_symbol
  _atom_site_label
  _atom_site_symmetry_multiplicity
  _atom_site_fract_x
  _atom_site_fract_y
  _atom_site_fract_z
  _atom_site_occupancy
  Zn  Zn1       1.0  0.6096097093465148  0.4951082558526353  0.5055917487420557  1.0000
  Zn  Zn2       1.0  0.39038806293658723  0.5048997621522275  0.4944071941195957  1.0000
  H   H1        1.0  0.5572757621954452  0.3214405876991508  0.2189519529003262  1.0000
  H   H2        1.0  0.44274371449051136  0.6785623782574464  0.7810478431608414  1.0000
  H   H3        1.0  0.9931504207747398  0.5774187066854923  0.45203852379084697  1.0000
  H   H4        1.0  0.006850517066027412  0.4225785464604643  0.5479451777056638  1.0000
  H   H5        1.0  0.7267062749957632  0.75322999632904  0.9241220592800728  1.0000
  H   H6        1.0  0.8054055856861453  0.7406887763235377  0.9874975936821284  1.0000
  H   H7        1.0  0.8656934455669119  0.7463352758258923  0.9201449721516607  1.0000
  H   H8        1.0  0.8487578331782473  0.574775637023528  0.9530282163297839  1.0000
  H   H9        1.0  0.7691250110404796  0.5907073612602932  0.8912409911864785  1.0000
  H   H10       1.0  0.19459767314607754  0.2593286267515326  0.012503153135234897  1.0000
  H   H11       1.0  0.2732995678130693  0.2467801894072822  0.0758774659846679  1.0000
  H   H12       1.0  0.13431431147056122  0.25367923319844016  0.0798571399801844  1.0000
  H   H13       1.0  0.23088724420225762  0.4093042537133088  0.108762486259856  1.0000
  H   H14       1.0  0.15125634637713864  0.4252403090339527  0.0469761472150836  1.0000
  H   H15       1.0  0.8125796005071493  0.39952066564424643  0.07085408698834779  1.0000
  H   H16       1.0  0.8569051596579342  0.434156082206151  0.0024578981793936987  1.0000
  H   H17       1.0  0.9387344803326838  0.4628545491106451  0.06400111633123368  1.0000
  H   H18       1.0  0.8548614041027279  0.611516794680938  0.033313705950035896  1.0000
  H   H19       1.0  0.8033061696285204  0.5716050633356958  0.098702056088058  1.0000
  H   H20       1.0  0.1431092414146278  0.5658728378593098  0.9975528420040544  1.0000
  H   H21       1.0  0.18743226983296782  0.6005161902779008  0.9291587259231233  1.0000
  H   H22       1.0  0.061277895958419024  0.5371787008223097  0.9360104325319583  1.0000
  H   H23       1.0  0.1967029415733705  0.42843616508795196  0.901302195792283  1.0000
  H   H24       1.0  0.14514768847462992  0.38851432601061486  0.9666892747619258  1.0000
  H   H25       1.0  0.3972533189286979  0.28826444869002193  0.3719019226720519  1.0000
  H   H26       1.0  0.4018309824822098  0.2227869032106327  0.307392906968225  1.0000
  H   H27       1.0  0.4589185207177096  0.17729697741655312  0.371460462414113  1.0000
  H   H28       1.0  0.601082376779857  0.2505950102684551  0.30967560631466273  1.0000
  H   H29       1.0  0.5974681745327858  0.3151079996859707  0.3741448709645852  1.0000
  H   H30       1.0  0.5981827452354339  0.7772138587139497  0.6926144317918101  1.0000
  H   H31       1.0  0.6027698840938244  0.7117363142049483  0.6281060270852306  1.0000
  H   H32       1.0  0.5411079225552912  0.8227045264081242  0.6285437233400586  1.0000
  H   H33       1.0  0.4025547654643163  0.6848985890679629  0.6258528650265304  1.0000
  H   H34       1.0  0.398932490170516  0.7494094088050504  0.6903219724654973  1.0000
  C   C1        1.0  0.5375993876853826  0.6859827521071012  0.490496886516567  1.0000
  C   C2        1.0  0.46239585540875794  0.3140231096141053  0.5094994563675854  1.0000
  C   C3        1.0  0.5419327736271883  0.38772040085866183  0.24096700623415757  1.0000
  C   C4        1.0  0.4580800955983407  0.6122789530212815  0.7590322368091833  1.0000
  C   C5        1.0  0.5395957397336986  0.3890547059792981  0.300358973199117  1.0000
  C   C6        1.0  0.46041177561858154  0.6109468134453168  0.6996401638312832  1.0000
  C   C7        1.0  0.5191560910781592  0.4759012517888055  0.3271109943128038  1.0000
  C   C8        1.0  0.48083774908344173  0.524097362142733  0.6728904274820521  1.0000
  C   C9        1.0  0.5009367652831287  0.5586595985220343  0.2949599776958109  1.0000
  C   C10       1.0  0.4990424069763223  0.44133324339726704  0.7050386079095573  1.0000
  C   C11       1.0  0.50140294389184  0.5555918154331254  0.23534592199488458  1.0000
  C   C12       1.0  0.4985822359937374  0.44440681726099035  0.764650652365077  1.0000
  C   C13       1.0  0.5233936533307073  0.4692939963705457  0.20879286191020438  1.0000
  C   C14       1.0  0.4766105178037635  0.5307053470374471  0.7912079115803579  1.0000
  C   C15       1.0  0.4528754516702734  0.2099233679010837  0.5120420623386933  1.0000
  C   C16       1.0  0.5471016000778022  0.79008179114539  0.48794839613005075  1.0000
  C   C17       1.0  0.45721994770077157  0.0221806730447298  0.5097037188651541  1.0000
  C   C18       1.0  0.5426949581744652  0.9778172759996125  0.4902782956927749  1.0000
  C   C19       1.0  0.5474696129389756  0.8779609308067722  0.4885345491883796  1.0000
  C   C20       1.0  0.4524653247956749  0.12204063250101882  0.5114487068034136  1.0000
  C   C21       1.0  0.9708273324129096  0.47155886467341906  0.5178781051593901  1.0000
  C   C22       1.0  0.029175688495492107  0.528434781020934  0.48210478844849547  1.0000
  C   C23       1.0  0.5150233324729784  0.48153154516924  0.3909421747426336  1.0000
  C   C24       1.0  0.48496900146315636  0.5184678023854233  0.6090566657229886  1.0000
  C   C25       1.0  0.1404508170452843  0.5261343927893308  0.48252518625221796  1.0000
  C   C26       1.0  0.8595485285528284  0.47386285012522944  0.5174606102374781  1.0000
  C   C27       1.0  0.3881936380628234  0.4885532646599061  0.8785102616243846  1.0000
  C   C28       1.0  0.6118149890942632  0.5114525680645913  0.1214935727500688  1.0000
  C   C29       1.0  0.5661887550409332  0.5797758766435454  0.8804389401128743  1.0000
  C   C30       1.0  0.43382860550124763  0.4202299938384543  0.11955741112438288  1.0000
  C   C31       1.0  0.582270351772941  0.5521771573276979  0.9408715730118828  1.0000
  C   C32       1.0  0.41774675041454407  0.4478258040011128  0.05912902698229769  1.0000
  C   C33       1.0  0.49404887536140063  0.508827011666256  0.9702363262645474  1.0000
  C   C34       1.0  0.5059690141239059  0.49117594795686875  0.02976471440553039  1.0000
  C   C35       1.0  0.3937845474004433  0.48511035103388894  0.9419045757620523  1.0000
  C   C36       1.0  0.6062321679293917  0.5148976630648506  0.05809686467051019  1.0000
  C   C37       1.0  0.6826235367828845  0.5675594854729412  0.967801999918869  1.0000
  C   C38       1.0  0.3173909738649812  0.4324506873477106  0.03220109720435  1.0000
  C   C39       1.0  0.6952929871187125  0.5464652216745804  0.02713668447033509  1.0000
  C   C40       1.0  0.30472046594601926  0.4535514504534319  0.9728668139976192  1.0000
  C   C41       1.0  0.7782594857950969  0.6083844580149744  0.9364873950663933  1.0000
  C   C42       1.0  0.7950590388714787  0.7187956284825461  0.9426508929755001  1.0000
  C   C43       1.0  0.2217512556591643  0.3916278847348453  0.0635147766271231  1.0000
  C   C44       1.0  0.20494713348634966  0.2812188761572899  0.057352038573107195  1.0000
  C   C45       1.0  0.8059350005044198  0.5537308801793375  0.053660845525527606  1.0000
  C   C46       1.0  0.8565435963499226  0.4569571030771655  0.04720224278011639  1.0000
  C   C47       1.0  0.19407667702706277  0.44630311726279376  0.9463451611471853  1.0000
  C   C48       1.0  0.14347350120710442  0.5430761346726812  0.952812375330616  1.0000
  C   C49       1.0  0.5531002627208963  0.2977298884504976  0.3340572032029172  1.0000
  C   C50       1.0  0.446436834884409  0.24325361274865295  0.3469509099465781  1.0000
  C   C51       1.0  0.4469160572107711  0.7022730784819374  0.6659421057310765  1.0000
  C   C52       1.0  0.553584930282824  0.7567486139811878  0.6530527585040176  1.0000
  N   N1        1.0  0.47674978419638603  0.5334642125946801  0.8522351547833225  1.0000
  N   N2        1.0  0.5232647635921169  0.46653657296079143  0.14776709715477657  1.0000
  N   N3        1.0  0.7681722974039574  0.4762244638650517  0.5169148957747183  1.0000
  N   N4        1.0  0.23182844134579741  0.5237806966329118  0.483077302783208  1.0000
  Cl  Cl1       1.0  0.479256443954398  0.6649403477929497  0.32895025901607505  1.0000
  Cl  Cl2       1.0  0.5207076659822505  0.3350517690371221  0.6710476064146176  1.0000
  Cl  Cl3       1.0  0.47461895096054013  0.655219962163862  0.19526793091915096  1.0000
  Cl  Cl4       1.0  0.5253582311370835  0.3447678204087766  0.8047310433729817  1.0000
  Cl  Cl5       1.0  0.6508349137991376  0.048515126525408916  0.4665502396547294  1.0000
  Cl  Cl6       1.0  0.3490788494532922  0.9514986720610852  0.5334411000837349  1.0000
  O   O1        1.0  0.6226785787455427  0.6429938312595952  0.4950114509219289  1.0000
  O   O2        1.0  0.377319446850251  0.35701709200051823  0.5049840935670744  1.0000
  O   O3        1.0  0.44277755808368374  0.648161681174159  0.488730363277142  1.0000
  O   O4        1.0  0.5572196669348699  0.35183981754710913  0.5112723991936717  1.0000
  O   O5        1.0  0.6028537503967613  0.48295549361601803  0.4187293132521147  1.0000
  O   O6        1.0  0.397136826522221  0.5170416842554888  0.5812699190647592  1.0000
  O   O7        1.0  0.42363733336306825  0.4838609849976125  0.41129430924809895  1.0000
  O   O8        1.0  0.5763557100911001  0.5161470393434443  0.588702839942428  1.0000
  O   O9        1.0  0.31452175699513424  0.4538648249123441  0.8477625124866747  1.0000
  O   O10       1.0  0.6854905388867466  0.5461474988343513  0.15224394209577238  1.0000
  O   O11       1.0  0.6252345035884161  0.6365455209000005  0.8538440304240422  1.0000
  O   O12       1.0  0.374774530594337  0.36345527464632005  0.1461555619749006  1.0000
