data_image0
_chemical_formula_structural       U2H44C28N8O20
_chemical_formula_sum              "U2 H44 C28 N8 O20"
_cell_length_a       9.957012357712426
_cell_length_b       10.046276046903296
_cell_length_c       10.181687324785521
_cell_angle_alpha    90.93242151112554
_cell_angle_beta     106.76577826379341
_cell_angle_gamma    90.3914691201295

_space_group_name_H-M_alt    "P 1"
_space_group_IT_number       1

loop_
  _space_group_symop_operation_xyz
  'x, y, z'

loop_
  _atom_site_type_symbol
  _atom_site_label
  _atom_site_symmetry_multiplicity
  _atom_site_fract_x
  _atom_site_fract_y
  _atom_site_fract_z
  _atom_site_occupancy
  U   U1        1.0  0.7517638587789292  0.2942812245103498  0.33824196719479  1.0000
  U   U2        1.0  0.24823598698678495  0.7057211437863985  0.6617585573524352  1.0000
  H   H1        1.0  0.3095095644081454  0.0353920211918393  0.5088982764036845  1.0000
  H   H2        1.0  0.6904913046451069  0.9646083555295419  0.49110152309350513  1.0000
  H   H3        1.0  0.1668954552275892  0.1438826403230706  0.4396991709339845  1.0000
  H   H4        1.0  0.833105388351619  0.8561157452029989  0.5603005899536628  1.0000
  H   H5        1.0  0.34116989604642356  0.16701593927381006  0.712863150267019  1.0000
  H   H6        1.0  0.6588309858851387  0.8329854333232304  0.2871376507346924  1.0000
  H   H7        1.0  0.24442818691846915  0.3005520788540892  0.6208340286685826  1.0000
  H   H8        1.0  0.7555716332319091  0.6994482979693403  0.3791654750693426  1.0000
  H   H9        1.0  0.46292591109146014  0.405703053101462  0.6389226469418077  1.0000
  H   H10       1.0  0.5370739092002096  0.5942973239999817  0.3610778389958754  1.0000
  H   H11       1.0  0.5570775142515457  0.2568334981319468  0.6826719430412  1.0000
  H   H12       1.0  0.4429212569959587  0.743166878793538  0.3173272649374681  1.0000
  H   H13       1.0  0.4070215284869576  0.2189831606136821  0.22010073800311866  1.0000
  H   H14       1.0  0.5929782789263952  0.781016220612095  0.7798987464300425  1.0000
  H   H15       1.0  0.10782347373544351  0.12956855432680922  0.20428309783490312  1.0000
  H   H16       1.0  0.8921763465562264  0.8704318227746273  0.7957173881027799  1.0000
  H   H17       1.0  0.06038419978013819  0.18000299477904494  0.9575540493319111  1.0000
  H   H18       1.0  0.9396156205115317  0.8199973823223914  0.042446436605772096  1.0000
  H   H19       1.0  0.23931714592880837  0.2207448389200977  0.9820356532994554  1.0000
  H   H20       1.0  0.7606816127229621  0.7792545426857489  0.01796451757419972  1.0000
  H   H21       1.0  0.19098430547989403  0.9901786159371895  0.8904588166809903  1.0000
  H   H22       1.0  0.8090155148117829  0.0098217611642539  0.10954166925669279  1.0000
  H   H23       1.0  0.12334283801818201  0.946813000913679  0.026866775970397334  1.0000
  H   H24       1.0  0.8766559204923041  0.05318638041415372  0.9731324127034996  1.0000
  H   H25       1.0  0.4265413753005375  0.033302172371364215  0.05422374401997131  1.0000
  H   H26       1.0  0.5734584448498409  0.9666982044520656  0.9457757597179609  1.0000
  H   H27       1.0  0.36894309045712237  0.8709474576195009  0.07765247414238984  1.0000
  H   H28       1.0  0.6310567298345475  0.12905291948194283  0.9223480117952932  1.0000
  H   H29       1.0  0.47433330281675246  0.9933397467361261  0.30144324756910384  1.0000
  H   H30       1.0  0.5256654684307519  0.0066606301893586016  0.6985559604095642  1.0000
  H   H31       1.0  0.2958457441177771  0.9483660696496088  0.2787912665916466  1.0000
  H   H32       1.0  0.7041530272710191  0.051634307553889924  0.7212089235867796  1.0000
  H   H33       1.0  0.2483346262303741  0.4301339800210896  0.06162986990291593  1.0000
  H   H34       1.0  0.7516651939200045  0.5698663968023397  0.9383696338350094  1.0000
  H   H35       1.0  0.33268270998867416  0.44652393607872654  0.2391989401495564  1.0000
  H   H36       1.0  0.6673170974246857  0.5534754451470576  0.7608005442836048  1.0000
  H   H37       1.0  0.20283844880695054  0.6467342578956732  0.22570577868917505  1.0000
  H   H38       1.0  0.7971613713434279  0.35326611892775617  0.7742937250487572  1.0000
  H   H39       1.0  0.08486135387660448  0.5974720852556745  0.0669165516491503  1.0000
  H   H40       1.0  0.9151384535367483  0.4025272959701097  0.9330829327840109  1.0000
  H   H41       1.0  0.059560791967591294  0.5423635402475215  0.35213625955938715  1.0000
  H   H42       1.0  0.9404390409198053  0.45763783217356757  0.6478632634833161  1.0000
  H   H43       1.0  0.924540989898716  0.5460379628300559  0.19584121121298645  1.0000
  H   H44       1.0  0.07545881737334531  0.4539614181177144  0.8041572910204169  1.0000
  C   C1        1.0  0.4630244836312939  0.2783303072500517  0.4688402995339872  1.0000
  C   C2        1.0  0.5369753366603758  0.721670069851392  0.5311601864036959  1.0000
  C   C3        1.0  0.28002506126929205  0.14016120998964252  0.48973911956566246  1.0000
  C   C4        1.0  0.7199747460027692  0.8598381709581203  0.5102593826677407  1.0000
  C   C5        1.0  0.3256261674803723  0.22742333538334952  0.6211968032204496  1.0000
  C   C6        1.0  0.6743736400742789  0.7725760461204418  0.37880366341246235  1.0000
  C   C7        1.0  0.46074173290652715  0.2986741715865122  0.6147312043821814  1.0000
  C   C8        1.0  0.5392580871025529  0.7013262049589103  0.38526731715598583  1.0000
  C   C9        1.0  0.3339211674927539  0.15823350434900624  0.25709662710262654  1.0000
  C   C10       1.0  0.666078652798916  0.8417668727524376  0.7429038588350637  1.0000
  C   C11       1.0  0.18360547560949667  0.18993621354772472  0.17006449546237695  1.0000
  C   C12       1.0  0.8163943446821731  0.8100641635537188  0.8299359904753062  1.0000
  C   C13       1.0  0.16763031357098868  0.15683248760172572  0.018642292136924313  1.0000
  C   C14       1.0  0.8323695067206811  0.8431678894997107  0.9813581938007588  1.0000
  C   C15       1.0  0.20082551197973686  0.0108413532102816  0.999034021976492  1.0000
  C   C16       1.0  0.7991743081706344  0.9891590236131479  0.0009654817614332643  1.0000
  C   C17       1.0  0.3478775145964407  0.977084680479358  0.08868871963618127  1.0000
  C   C18       1.0  0.6521212566510641  0.022915696446126805  0.911310488342487  1.0000
  C   C19       1.0  0.3659564640686311  0.011303023947931503  0.23966539059355094  1.0000
  C   C20       1.0  0.6340433433447215  0.9886963572778457  0.7603340938396104  1.0000
  C   C21       1.0  0.04041083078760009  0.364241793088958  0.23483626198069635  1.0000
  C   C22       1.0  0.9595889893627783  0.6357585837344786  0.7651632417572288  1.0000
  C   C23       1.0  0.22958518118871035  0.4422373099283591  0.16204999681677631  1.0000
  C   C24       1.0  0.7704156877232435  0.5577630665150082  0.8379488204806551  1.0000
  C   C25       1.0  0.13856043776353028  0.5634913007092239  0.17032443381567225  1.0000
  C   C26       1.0  0.8614383334839671  0.43650907621626106  0.8296747741629958  1.0000
  C   C27       1.0  0.03252732760176261  0.5137080465560759  0.24273823323497373  1.0000
  C   C28       1.0  0.9674714310500149  0.4862913350497708  0.7572619376386812  1.0000
  N   N1        1.0  0.5937487504542103  0.35853842066311614  0.051343811666740215  1.0000
  N   N2        1.0  0.4062500207932942  0.6414619562623687  0.9486553963119281  1.0000
  N   N3        1.0  0.905342666856569  0.17386345151780355  0.6044617102020808  1.0000
  N   N4        1.0  0.0946571534351008  0.8261369255836329  0.39553877573560214  1.0000
  N   N5        1.0  0.3584394305313979  0.19692285373856327  0.40099201999749584  1.0000
  N   N6        1.0  0.6415614388044446  0.8030775235388393  0.5990097438992026  1.0000
  N   N7        1.0  0.1479819212580722  0.32848468397561004  0.18841319811456003  1.0000
  N   N8        1.0  0.8520178861552805  0.6715146972501673  0.8115862863185939  1.0000
  O   O1        1.0  0.8034849577045334  0.46327861692766004  0.3959765666324558  1.0000
  O   O2        1.0  0.19651589861169327  0.5367207641960622  0.6040232135599625  1.0000
  O   O3        1.0  0.7002843476096884  0.1247965314678297  0.2825684485071848  1.0000
  O   O4        1.0  0.2997154854190001  0.8752048412312665  0.7174320567352697  1.0000
  O   O5        1.0  0.5379932702565923  0.3574444755065117  0.15086005055245985  1.0000
  O   O6        1.0  0.4620075987966599  0.6425559012148627  0.8491397489447297  1.0000
  O   O7        1.0  0.7283498541537199  0.34865398622081056  0.08922891447454619  1.0000
  O   O8        1.0  0.27165101489953253  0.6513463905005638  0.9107708850226431  1.0000
  O   O9        1.0  0.5241792465879769  0.36599188663138454  0.9308618639442942  1.0000
  O   O10       1.0  0.4758205734211032  0.6340084899140379  0.0691366575938731  1.0000
  O   O11       1.0  0.9648956043182649  0.2021503808026424  0.511944516066592  1.0000
  O   O12       1.0  0.035104216255994906  0.797849996854822  0.4880579342706072  1.0000
  O   O13       1.0  0.7759528065754892  0.21082193876900138  0.57636790001677  1.0000
  O   O14       1.0  0.22404597755032538  0.7891794340321497  0.42363230946642727  1.0000
  O   O15       1.0  0.9650494525901789  0.11687718754106412  0.7106442723223483  1.0000
  O   O16       1.0  0.034948257017425995  0.8831221938888233  0.2893546205922988  1.0000
  O   O17       1.0  0.551428336414716  0.33141885262438114  0.4167589346444701  1.0000
  O   O18       1.0  0.448571483876961  0.6685815244770624  0.5832415512932131  1.0000
  O   O19       1.0  0.9610054429165017  0.2806793076874002  0.26831502118340483  1.0000
  O   O20       1.0  0.038995426278042096  0.7193210693119881  0.7316857605135355  1.0000
