data_image0
_chemical_formula_structural       MnH24C54Br4N10
_chemical_formula_sum              "Mn1 H24 C54 Br4 N10"
_cell_length_a       10.663322092920671
_cell_length_b       10.697204939917984
_cell_length_c       14.6764218473118
_cell_angle_alpha    79.48642644633844
_cell_angle_beta     77.89906685026429
_cell_angle_gamma    61.817423658387185

_space_group_name_H-M_alt    "P 1"
_space_group_IT_number       1

loop_
  _space_group_symop_operation_xyz
  'x, y, z'

loop_
  _atom_site_type_symbol
  _atom_site_label
  _atom_site_symmetry_multiplicity
  _atom_site_fract_x
  _atom_site_fract_y
  _atom_site_fract_z
  _atom_site_occupancy
  Mn  Mn1       1.0  3.410248524387284e-06  0.9999997409137652  0.9999993256534475  1.0000
  H   H1        1.0  0.08081743089226735  0.6124765329292927  0.2882838322528442  1.0000
  H   H2        1.0  0.9191868936587111  0.3875232097330611  0.7117166079104746  1.0000
  H   H3        1.0  0.9267429334892012  0.8649913040318754  0.3630962502262207  1.0000
  H   H4        1.0  0.0732585322723267  0.13500629595191072  0.6369055819415264  1.0000
  H   H5        1.0  0.7184536744983347  0.40634939914205864  0.22543068438111635  1.0000
  H   H6        1.0  0.2815502328165494  0.5936471175640179  0.7745682081450834  1.0000
  H   H7        1.0  0.719572255115878  0.5415213852013708  0.050557038125852174  1.0000
  H   H8        1.0  0.2804320503229718  0.4584783709192379  0.9494447658301721  1.0000
  H   H9        1.0  0.3936778092624492  0.459102628281059  0.15489059567469346  1.0000
  H   H10       1.0  0.6063192723046383  0.5408960659964919  0.8451165053787545  1.0000
  H   H11       1.0  0.4648408495534965  0.20709823884946846  0.22320743381629868  1.0000
  H   H12       1.0  0.5351548551772255  0.7928993470785812  0.7767966128094128  1.0000
  H   H13       1.0  0.06168367065439638  0.24459495407423762  0.17669852808450764  1.0000
  H   H14       1.0  0.9383140383822162  0.7554068181187292  0.8232951188862356  1.0000
  H   H15       1.0  0.9925153243179918  0.4941420897458644  0.10803409172955016  1.0000
  H   H16       1.0  0.007485745034159716  0.5058586306715824  0.8919592014075232  1.0000
  H   H17       1.0  0.025099565941040694  0.07335919512882332  0.3558330509743327  1.0000
  H   H18       1.0  0.9748996094495865  0.926633020618397  0.6441664380941174  1.0000
  H   H19       1.0  0.9386200767245896  0.15943620702535816  0.5137030533869902  1.0000
  H   H20       1.0  0.061382948337765725  0.8405538914138192  0.48629615334674964  1.0000
  H   H21       1.0  0.4998390015577313  0.3243667237639158  0.46606860525826466  1.0000
  H   H22       1.0  0.5001624138096548  0.6756330320579664  0.5339349878231019  1.0000
  H   H23       1.0  0.5868906271200415  0.2382506845254397  0.30836845014447783  1.0000
  H   H24       1.0  0.4131059911452226  0.7617511772896819  0.6916348851527798  1.0000
  C   C1        1.0  0.6710695554802512  0.0150974531833938  0.9863885696676031  1.0000
  C   C2        1.0  0.3289256303268501  0.984909700505206  0.013610174979213185  1.0000
  C   C3        1.0  0.5292304783485521  0.04671846280003681  0.9766840111632288  1.0000
  C   C4        1.0  0.4707713820238836  0.9532929808313642  0.02331180769718342  1.0000
  C   C5        1.0  0.4617722034068592  0.17159166785216942  0.9159439941224146  1.0000
  C   C6        1.0  0.5382241932704517  0.8284273128142206  0.08406047245300387  1.0000
  C   C7        1.0  0.327828910833837  0.2190100390195795  0.8859540303852708  1.0000
  C   C8        1.0  0.6721756145929304  0.7810058040654371  0.11405238582964469  1.0000
  C   C9        1.0  0.5320953465548468  0.2562479601749814  0.8755467740231848  1.0000
  C   C10       1.0  0.4679092909308693  0.7437699243529111  0.12444981086731119  1.0000
  C   C11       1.0  0.06746244662865318  0.7502720172505377  0.15285607396361905  1.0000
  C   C12       1.0  0.9325400169574037  0.2497234382099549  0.8471445374093346  1.0000
  C   C13       1.0  0.04384060072452905  0.7190725255595468  0.2524450471619275  1.0000
  C   C14       1.0  0.9561633065903479  0.2809239911465297  0.7475538453642726  1.0000
  C   C15       1.0  0.9667607627284696  0.8463861885639972  0.29009579805931185  1.0000
  C   C16       1.0  0.03324073431507911  0.15360926903995425  0.7099056369875354  1.0000
  C   C17       1.0  0.9430765013195167  0.9569200582823003  0.2138443588502524  1.0000
  C   C18       1.0  0.05692211259480468  0.043077514486228104  0.7861565348574114  1.0000
  C   C19       1.0  0.8650950908191815  0.10266202106099342  0.22465258924874118  1.0000
  C   C20       1.0  0.13490062779602846  0.8973397957936912  0.7753467964479339  1.0000
  C   C21       1.0  0.8376945829029055  0.20901165676072964  0.1494494793733096  1.0000
  C   C22       1.0  0.16230693063894816  0.790985909577401  0.8505489433126596  1.0000
  C   C23       1.0  0.7636866663899939  0.3593552930980835  0.1594731781733642  1.0000
  C   C24       1.0  0.2363148158698465  0.6406444156198816  0.8405256416335116  1.0000
  C   C25       1.0  0.7641506000205781  0.42819812476182056  0.07138454745878417  1.0000
  C   C26       1.0  0.23585468151684089  0.5718016224861986  0.9286157509269868  1.0000
  C   C27       1.0  0.1617174041993222  0.6782876442890001  0.9931919951097963  1.0000
  C   C28       1.0  0.8382840806743341  0.32170994223653093  0.0068084732652380145  1.0000
  C   C29       1.0  0.13922574409748736  0.6465632587898896  0.08990788399853498  1.0000
  C   C30       1.0  0.8607795808918438  0.35343221715672263  0.9100929839381418  1.0000
  C   C31       1.0  0.18793605854538953  0.49361571600772436  0.12747790769473968  1.0000
  C   C32       1.0  0.812063082949386  0.5063807643117714  0.872520329926459  1.0000
  C   C33       1.0  0.32174110273783174  0.41157204929193375  0.15906511713764349  1.0000
  C   C34       1.0  0.6782594129794929  0.5884276615694974  0.8409345263431259  1.0000
  C   C35       1.0  0.3613269980896021  0.2710379946064805  0.1980678635119942  1.0000
  C   C36       1.0  0.6386672602984828  0.7289606522684269  0.8019362533922985  1.0000
  C   C37       1.0  0.26588815854447734  0.21340750931996413  0.20594665362612108  1.0000
  C   C38       1.0  0.7341134436157831  0.7865878742635602  0.7940472805608106  1.0000
  C   C39       1.0  0.13462532520671291  0.29110817548114204  0.17173957528548556  1.0000
  C   C40       1.0  0.8653743534245917  0.7088872056601832  0.8282553243528878  1.0000
  C   C41       1.0  0.09652596022609576  0.4311636858666006  0.13260389348695867  1.0000
  C   C42       1.0  0.9034780209234725  0.5688348991988834  0.8673878953002325  1.0000
  C   C43       1.0  0.81210052084068  0.1490017252707078  0.3209516785528591  1.0000
  C   C44       1.0  0.1878947735961915  0.8509947501643825  0.679048489971208  1.0000
  C   C45       1.0  0.9098961209614204  0.12699829545464072  0.38009409943293787  1.0000
  C   C46       1.0  0.09010159591667141  0.872997110161002  0.6199044932422948  1.0000
  C   C47       1.0  0.8617756621029855  0.17598601471286202  0.4687471663627745  1.0000
  C   C48       1.0  0.13822779930760018  0.8240072962243304  0.5312522242153789  1.0000
  C   C49       1.0  0.7143709960919221  0.24686775507154124  0.4989459493470034  1.0000
  C   C50       1.0  0.28563337191096133  0.7531277162894059  0.5010550603672212  1.0000
  C   C51       1.0  0.6147285509723517  0.2689412822790588  0.44199211296060514  1.0000
  C   C52       1.0  0.38527095736438327  0.7310605798348037  0.5580094332113247  1.0000
  C   C53       1.0  0.6645068694259278  0.22011306952597923  0.35328014065164115  1.0000
  C   C54       1.0  0.3354897775075329  0.7798887721017564  0.6467211489565511  1.0000
  Br  Br1       1.0  0.31258696984564693  0.026795157160592005  0.26822779167209626  1.0000
  Br  Br2       1.0  0.6874092381257597  0.9732055941615697  0.7317716655235315  1.0000
  Br  Br3       1.0  0.6495117179888865  0.31337754360907877  0.6201866865302462  1.0000
  Br  Br4       1.0  0.3504945761567768  0.6866158080016335  0.3798150063006956  1.0000
  N   N1        1.0  0.7878306668031598  0.9947728788612125  0.9887651800566313  1.0000
  N   N2        1.0  0.2121679853354195  0.005224666990798702  0.0112329860656075  1.0000
  N   N3        1.0  0.218809147549365  0.26671312869319047  0.8562000808002563  1.0000
  N   N4        1.0  0.7811810804171059  0.733302605232069  0.1438043706996552  1.0000
  N   N5        1.0  0.5847790910628986  0.330843423975317  0.84005521555089  1.0000
  N   N6        1.0  0.41521555238003316  0.6691690732763362  0.15994356994242045  1.0000
  N   N7        1.0  0.005609991071409533  0.8964285961703526  0.12991818731538268  1.0000
  N   N8        1.0  0.9943905585417522  0.10356685011880272  0.8700827076126457  1.0000
  N   N9        1.0  0.8824985562624261  0.1874532677082428  0.055409184898231  1.0000
  N   N10       1.0  0.11750485214018612  0.8125443212594805  0.9445903180253691  1.0000
