data_image0
_chemical_formula_structural       Al4H60C64N8O24
_chemical_formula_sum              "Al4 H60 C64 N8 O24"
_cell_length_a       6.618727475928023
_cell_length_b       21.69847471812206
_cell_length_c       23.0975749382688
_cell_angle_alpha    78.02096679643967
_cell_angle_beta     90.23409968218394
_cell_angle_gamma    90.00110506013874

_space_group_name_H-M_alt    "P 1"
_space_group_IT_number       1

loop_
  _space_group_symop_operation_xyz
  'x, y, z'

loop_
  _atom_site_type_symbol
  _atom_site_label
  _atom_site_symmetry_multiplicity
  _atom_site_fract_x
  _atom_site_fract_y
  _atom_site_fract_z
  _atom_site_occupancy
  Al  Al1       1.0  0.740601170037131  0.746817801082784  0.24956866127964616  1.0000
  Al  Al2       1.0  0.2366368774442051  0.2511820470807109  0.7479842420749917  1.0000
  Al  Al3       1.0  0.24061587911247534  0.7531538331960871  0.25066290491025706  1.0000
  Al  Al4       1.0  0.7365964701872797  0.24892973925800277  0.7523109084426449  1.0000
  H   H1        1.0  0.29546204214859983  0.39754249065502034  0.9738882954316423  1.0000
  H   H2        1.0  0.7869027672351548  0.6234994337321352  0.0012674848833071999  1.0000
  H   H3        1.0  0.8009016975786808  0.10183020131339764  0.5283666899523708  1.0000
  H   H4        1.0  0.29076108524463967  0.8771400911446465  0.4983698787460327  1.0000
  H   H5        1.0  0.7060533995695265  0.5016706584982842  0.9503089285546763  1.0000
  H   H6        1.0  0.4244432457149685  0.5356391620600717  0.8984146788192218  1.0000
  H   H7        1.0  0.42706770810661954  0.47267696383004676  0.8603328808960883  1.0000
  H   H8        1.0  0.5940952030526816  0.5380072660250546  0.8380796921914283  1.0000
  H   H9        1.0  0.24987831050506057  0.47626574534601224  0.0843160916641565  1.0000
  H   H10       1.0  0.5746828492527456  0.46852984433250106  0.12623632619321506  1.0000
  H   H11       1.0  0.5353307680332264  0.5390095713692985  0.1528812994101258  1.0000
  H   H12       1.0  0.5648564053546962  0.5431062843833631  0.0759282796129455  1.0000
  H   H13       1.0  0.20138567741023652  0.004808647348312403  0.543137299398964  1.0000
  H   H14       1.0  0.12275680123127593  0.9533303088848296  0.651738624231605  1.0000
  H   H15       1.0  0.9261325198490765  0.9655407304382777  0.5972195200466642  1.0000
  H   H16       1.0  0.9536053339063671  0.0188376849188288  0.6453225099525496  1.0000
  H   H17       1.0  0.7495718529213207  0.024828374725380797  0.41476534140601723  1.0000
  H   H18       1.0  0.07496532216547538  0.032139532440218915  0.373343782416775  1.0000
  H   H19       1.0  0.036412311172703896  0.9605142452191658  0.34852202234283414  1.0000
  H   H20       1.0  0.06527644695491118  0.9585789608973913  0.4252321273860531  1.0000
  H   H21       1.0  0.819533139010204  0.41321187990778446  0.7507790292165027  1.0000
  H   H22       1.0  0.7757487596517052  0.48342368880345526  0.7777393015238657  1.0000
  H   H23       1.0  0.40015247945709825  0.4719471405830546  0.7609676706800528  1.0000
  H   H24       1.0  0.5410340870611989  0.477166949938379  0.694562096152353  1.0000
  H   H25       1.0  0.448615293804643  0.4031696405262649  0.7320739945420343  1.0000
  H   H26       1.0  0.21564388630564219  0.5005217013732589  0.21754611145830444  1.0000
  H   H27       1.0  0.07681248301588539  0.5539144410312247  0.2519493525471929  1.0000
  H   H28       1.0  0.39972726248979745  0.5852450082172994  0.29666901188080885  1.0000
  H   H29       1.0  0.35737032033119226  0.5027108400888451  0.31845794738134  1.0000
  H   H30       1.0  0.5378509730054617  0.5318306899692615  0.26264325108520126  1.0000
  H   H31       1.0  0.31826886030074064  0.08577848574437047  0.7473786172061379  1.0000
  H   H32       1.0  0.2685141437960326  0.01622596073808315  0.719785641555852  1.0000
  H   H33       1.0  0.8929186628187225  0.03152129756785633  0.7353264773408126  1.0000
  H   H34       1.0  0.0354315615482719  0.022374519857613955  0.8021411775150896  1.0000
  H   H35       1.0  0.9504545000084618  0.09815826250245865  0.7665799878378791  1.0000
  H   H36       1.0  0.715163510346656  0.9995613019244445  0.28229148240239965  1.0000
  H   H37       1.0  0.5768858437749387  0.9459304547217613  0.2477663192842314  1.0000
  H   H38       1.0  0.8998484635343047  0.9148077354131132  0.20365721098222878  1.0000
  H   H39       1.0  0.8566699746233654  0.9973173723853112  0.18176683987197612  1.0000
  H   H40       1.0  0.03762761815095669  0.9682984193541486  0.23794546234894648  1.0000
  H   H41       1.0  0.4443670222283984  0.3274354547826092  0.931842715781329  1.0000
  H   H42       1.0  0.44459317473534554  0.2209285026389978  0.9302428238687598  1.0000
  H   H43       1.0  0.1971776841700077  0.22542101564945236  0.900603059865979  1.0000
  H   H44       1.0  0.23508540924002122  0.2318118416425321  0.9757790085023075  1.0000
  H   H45       1.0  0.6710003974068998  0.7122003274020371  0.022605772389567798  1.0000
  H   H46       1.0  0.7134096401716903  0.8119010281156778  0.0324080483723748  1.0000
  H   H47       1.0  0.9726212797399612  0.7885254916644158  0.04011144542810291  1.0000
  H   H48       1.0  0.8201688848675062  0.7892621233478037  0.10366139394211868  1.0000
  H   H49       1.0  0.9476083810190304  0.1713284213528468  0.5710419779273649  1.0000
  H   H50       1.0  0.9505102748642572  0.2779017555807784  0.5717840468281635  1.0000
  H   H51       1.0  0.7022773721350504  0.27460317556804636  0.6002291812988573  1.0000
  H   H52       1.0  0.7416739859051943  0.26757213912163264  0.5253754629914836  1.0000
  H   H53       1.0  0.1760121776782242  0.7879506535317091  0.47738600254525915  1.0000
  H   H54       1.0  0.21875787581431888  0.688243640335415  0.46772253250069434  1.0000
  H   H55       1.0  0.4777556870955664  0.7115991056693788  0.459974806404702  1.0000
  H   H56       1.0  0.3233584812482703  0.7108490211770261  0.3964578150680325  1.0000
  H   H57       1.0  0.4744544100477412  0.6830844938642997  0.2200001660025706  1.0000
  H   H58       1.0  0.4847964163617462  0.3104321117844506  0.7867399352956354  1.0000
  H   H59       1.0  0.9753543252933027  0.8168402804771373  0.28028977188306203  1.0000
  H   H60       1.0  0.9836341727629047  0.1903083942721153  0.7130439428192117  1.0000
  C   C1        1.0  0.4921710591616772  0.8433544248426871  0.170363259229056  1.0000
  C   C2        1.0  0.4842785107647459  0.15785202198764384  0.831650320832807  1.0000
  C   C3        1.0  0.9942142332616014  0.65666333897434  0.3299227872215909  1.0000
  C   C4        1.0  0.9835361112413422  0.342308051235932  0.6686501880725331  1.0000
  C   C5        1.0  0.5007620667308856  0.8047936485886993  0.3308490851711881  1.0000
  C   C6        1.0  0.4849689936380416  0.1893168078793082  0.6731983327784619  1.0000
  C   C7        1.0  0.9986511033841198  0.6952093483859797  0.1693828304531664  1.0000
  C   C8        1.0  0.9857910094006712  0.31080235503009135  0.8269727132287696  1.0000
  C   C9        1.0  0.8301188265469222  0.4382339832697113  0.9106050016241127  1.0000
  C   C10       1.0  0.15353775055031346  0.5577671632833727  0.10087300772961072  1.0000
  C   C11       1.0  0.33030532962090575  0.06331874062428261  0.587437527315295  1.0000
  C   C12       1.0  0.6548748755009015  0.9428082811739669  0.3988596360551782  1.0000
  C   C13       1.0  0.8315055128873111  0.3969891353741416  0.8705175983851065  1.0000
  C   C14       1.0  0.1476093664531462  0.6029358552108093  0.13689775746975388  1.0000
  C   C15       1.0  0.3312468287512118  0.10376336401842678  0.6281838710118421  1.0000
  C   C16       1.0  0.6492817020463164  0.8973727293506144  0.3631087129276623  1.0000
  C   C17       1.0  0.9920550791288748  0.3536611149969246  0.8697052015207589  1.0000
  C   C18       1.0  0.0123613294194556  0.6546046626588335  0.1249652420058993  1.0000
  C   C19       1.0  0.4922549630498025  0.14665423606271588  0.6303288139676438  1.0000
  C   C20       1.0  0.5151292974832344  0.8455213368255982  0.37518688733793226  1.0000
  C   C21       1.0  0.16168451828541208  0.3529703111919389  0.9082223081491704  1.0000
  C   C22       1.0  0.8815593870980508  0.6633416704001435  0.0749776184486848  1.0000
  C   C23       1.0  0.6636123961917163  0.1469412755169017  0.5928113126940389  1.0000
  C   C24       1.0  0.38512725249089647  0.8369031524049789  0.42504289086318175  1.0000
  C   C25       1.0  0.16494684681468638  0.3963878542376663  0.9451188025803815  1.0000
  C   C26       1.0  0.8839900689512278  0.6176218627427374  0.040338529939191396  1.0000
  C   C27       1.0  0.6682227939742875  0.10356351578388265  0.5558528031786379  1.0000
  C   C28       1.0  0.3872606271400302  0.8828943089394273  0.45941589207421885  1.0000
  C   C29       1.0  0.006070303137285299  0.438626496981378  0.9466619040221855  1.0000
  C   C30       1.0  0.0147472627945433  0.5655517127810726  0.0526342932507191  1.0000
  C   C31       1.0  0.5080043678339407  0.06223926694906372  0.5527675933736304  1.0000
  C   C32       1.0  0.5170168613295019  0.9351166654632267  0.44695497711667537  1.0000
  C   C33       1.0  0.015885656182433597  0.4818484568335463  0.9845563764886051  1.0000
  C   C34       1.0  0.012866848823421198  0.5210746156795665  0.015836322481057197  1.0000
  C   C35       1.0  0.5180254314660145  0.0191795327775921  0.5146801121773521  1.0000
  C   C36       1.0  0.5152390957949607  0.9798865799910601  0.4834738352556086  1.0000
  C   C37       1.0  0.9772811211031821  0.3931925664840393  0.6173066850475378  1.0000
  C   C38       1.0  0.9966388620406266  0.6069330596067529  0.38222516132596945  1.0000
  C   C39       1.0  0.4789970247909991  0.10707067395515676  0.8830799114695438  1.0000
  C   C40       1.0  0.4936571964451346  0.8932174587820113  0.11816791492253026  1.0000
  C   C41       1.0  0.9794878140506852  0.4349852619057444  0.5724858306139068  1.0000
  C   C42       1.0  0.9934519583508319  0.5659169098529587  0.427613880672908  1.0000
  C   C43       1.0  0.4799030498875325  0.0653297096160372  0.927955057801327  1.0000
  C   C44       1.0  0.4906198020559883  0.9343832793864947  0.0728621858506742  1.0000
  C   C45       1.0  0.9836043009903362  0.48015507810958263  0.5231133000884752  1.0000
  C   C46       1.0  0.988965834505521  0.5212296368463923  0.4773308130195487  1.0000
  C   C47       1.0  0.4826008636379484  0.020207371397226812  0.9773746194875343  1.0000
  C   C48       1.0  0.4867872824981063  0.9791409366954866  0.023179949605186302  1.0000
  C   C49       1.0  0.522331444444454  0.5067903394357245  0.8763929276458738  1.0000
  C   C50       1.0  0.5004516130144054  0.5147769150311348  0.11692285410649819  1.0000
  C   C51       1.0  0.036717070404854696  0.9894996770482932  0.6204197060096986  1.0000
  C   C52       1.0  0.0010449153875384995  0.985896325419034  0.38355608882872616  1.0000
  C   C53       1.0  0.7087244273148059  0.43805880548040926  0.7731338069577021  1.0000
  C   C54       1.0  0.5123372775604267  0.4478741929205014  0.7386039041719668  1.0000
  C   C55       1.0  0.22574563053151306  0.544404358626238  0.23429188056129388  1.0000
  C   C56       1.0  0.3900860167587368  0.5411625854328292  0.2805737198610743  1.0000
  C   C57       1.0  0.20511388846896492  0.06197270192828339  0.724587538340046  1.0000
  C   C58       1.0  0.0087765011537613  0.0533525864887352  0.758708572846274  1.0000
  C   C59       1.0  0.7257494258626663  0.9556302850888229  0.26567639139879157  1.0000
  C   C60       1.0  0.8898875259003205  0.9588904855229287  0.2197247932987025  1.0000
  C   C61       1.0  0.29754162891218533  0.2442825891200613  0.9304756590348617  1.0000
  C   C62       1.0  0.8201740680900188  0.7790623365234026  0.0591821262512653  1.0000
  C   C63       1.0  0.802706042324175  0.2551515685929573  0.5709919346996699  1.0000
  C   C64       1.0  0.32474623052804924  0.7210769324764073  0.4409247308582848  1.0000
  N   N1        1.0  0.6681266557647589  0.4754301063374484  0.9201402695254827  1.0000
  N   N2        1.0  0.2820139082949992  0.5054397188917504  0.11250816596743357  1.0000
  N   N3        1.0  0.16484643669182472  0.027991353526580588  0.5757807906721978  1.0000
  N   N4        1.0  0.7824623682610367  0.9953003811425063  0.38702210975891665  1.0000
  N   N5        1.0  0.32693094300854136  0.3120562808863809  0.9100732012125192  1.0000
  N   N6        1.0  0.7527581587701704  0.7148697284079191  0.05923809366750989  1.0000
  N   N7        1.0  0.8295375801519711  0.18732777376775533  0.5918541950794348  1.0000
  N   N8        1.0  0.2573685848828191  0.7852637684953835  0.44088088036947687  1.0000
  O   O1        1.0  0.32530712744273416  0.7950748083343342  0.31126871018280866  1.0000
  O   O2        1.0  0.6519056283575323  0.20333315222836024  0.6948928166199125  1.0000
  O   O3        1.0  0.8236599210273922  0.7048607790577534  0.18892852517731742  1.0000
  O   O4        1.0  0.152278967976244  0.2979295344551005  0.8046407054035711  1.0000
  O   O5        1.0  0.6635956039649571  0.8211045267732188  0.18931917761062064  1.0000
  O   O6        1.0  0.31386275363061594  0.17786411976379668  0.8096618073745601  1.0000
  O   O7        1.0  0.16515401182098802  0.6788208200576095  0.31096315079854253  1.0000
  O   O8        1.0  0.8139678121928214  0.32290241007289205  0.6912401898931789  1.0000
  O   O9        1.0  0.6638206329535095  0.7837157066600042  0.3138214506242178  1.0000
  O   O10       1.0  0.3147349918756532  0.20977679925267978  0.686590965297249  1.0000
  O   O11       1.0  0.1620749621984459  0.7163130848119011  0.1864677979446085  1.0000
  O   O12       1.0  0.815947497523837  0.2891993900181192  0.8143611341269265  1.0000
  O   O13       1.0  0.820800245658397  0.672866736498449  0.3083416029623293  1.0000
  O   O14       1.0  0.15931925285237006  0.32261785108643437  0.685563086559732  1.0000
  O   O15       1.0  0.31928297484554247  0.8271187078640593  0.1918704824533961  1.0000
  O   O16       1.0  0.659542926028749  0.17684812910842854  0.8140346409725507  1.0000
  O   O17       1.0  0.4865978037026649  0.7131670018175243  0.24580963358750552  1.0000
  O   O18       1.0  0.48730134184556556  0.28669050248519296  0.7551740258967216  1.0000
  O   O19       1.0  0.9867259769277082  0.7867797111904693  0.2544641558980558  1.0000
  O   O20       1.0  0.9870953620061372  0.21352262848611758  0.7450082817587285  1.0000
  O   O21       1.0  0.6695982197032037  0.4008480071947745  0.8319396109677513  1.0000
  O   O22       1.0  0.273802482650126  0.5964333744313423  0.18547915928865413  1.0000
  O   O23       1.0  0.1678338982493202  0.09982837134742789  0.6658039746981572  1.0000
  O   O24       1.0  0.7746960194628586  0.9037431734559364  0.3146787355201184  1.0000
