data_image0
_chemical_formula_structural       Zn8H40C48N40O8
_chemical_formula_sum              "Zn8 H40 C48 N40 O8"
_cell_length_a       6.540098520000855
_cell_length_b       14.558397024002904
_cell_length_c       16.339153770003463
_cell_angle_alpha    90.0000608633381
_cell_angle_beta     90.0000432574102
_cell_angle_gamma    89.99996071944909

_space_group_name_H-M_alt    "P 1"
_space_group_IT_number       1

loop_
  _space_group_symop_operation_xyz
  'x, y, z'

loop_
  _atom_site_type_symbol
  _atom_site_label
  _atom_site_symmetry_multiplicity
  _atom_site_fract_x
  _atom_site_fract_y
  _atom_site_fract_z
  _atom_site_occupancy
  Zn  Zn1       1.0  0.2296266595983951  0.7779102542044068  0.7885865304395024  1.0000
  Zn  Zn2       1.0  0.2296269676802822  0.2779101059778739  0.7114133865453878  1.0000
  Zn  Zn3       1.0  0.2703732820215237  0.7779106366607562  0.2885875700215975  1.0000
  Zn  Zn4       1.0  0.7296252862136683  0.7220901579289173  0.7885865797999114  1.0000
  Zn  Zn5       1.0  0.7703722167180016  0.22208901838001788  0.21141263940683064  1.0000
  Zn  Zn6       1.0  0.7703734376667909  0.7220891666074106  0.28858761938158023  1.0000
  Zn  Zn7       1.0  0.7296255942960741  0.22208932281357355  0.7114134359054629  1.0000
  Zn  Zn8       1.0  0.2703735901016842  0.27791048843312877  0.21141259004707533  1.0000
  H   H1        1.0  0.12082608293112432  0.21604628408734067  0.9043658060391164  1.0000
  H   H2        1.0  0.12082694099163399  0.7160468890923181  0.5956346314629213  1.0000
  H   H3        1.0  0.37917187387293433  0.21604800673512156  0.4043650425159483  1.0000
  H   H4        1.0  0.6208276734092947  0.283954095288138  0.9043653019084414  1.0000
  H   H5        1.0  0.8791712643585115  0.7839516147204362  0.09563458785993356  1.0000
  H   H6        1.0  0.8791688772680002  0.28395238349330737  0.40436576243654787  1.0000
  H   H7        1.0  0.6208285314719503  0.7839526396270526  0.5956347393580683  1.0000
  H   H8        1.0  0.37917120290500606  0.71604792485153  0.09563386793919187  1.0000
  H   H9        1.0  0.16149277292215908  0.3105671524119557  0.03113703486127409  1.0000
  H   H10       1.0  0.1614928038870787  0.810567515631895  0.4688631231079369  1.0000
  H   H11       1.0  0.33850586706024893  0.31056879701289825  0.5311372523325842  1.0000
  H   H12       1.0  0.6614929782897077  0.18943285990719258  0.031136441295188885  1.0000
  H   H13       1.0  0.8385061033947564  0.6894314332836654  0.968862134984732  1.0000
  H   H14       1.0  0.8385030143731311  0.18943175695410014  0.5311378828183277  1.0000
  H   H15       1.0  0.661494538285204  0.6894318493496454  0.4688631415682351  1.0000
  H   H16       1.0  0.33850436899558645  0.8105684733435364  0.9688621165250875  1.0000
  H   H17       1.0  0.32915415828441036  0.08262521753793808  0.16826645323129694  1.0000
  H   H18       1.0  0.32915393135033366  0.5826247303320783  0.3317341519012017  1.0000
  H   H19       1.0  0.1708481447223491  0.08262554011533038  0.6682660078616462  1.0000
  H   H20       1.0  0.8291540165860809  0.4173749065636655  0.16826607534236615  1.0000
  H   H21       1.0  0.6708477760899996  0.9173754288243642  0.8317339406697498  1.0000
  H   H22       1.0  0.6708495320541276  0.4173752291415481  0.668266854026548  1.0000
  H   H23       1.0  0.8291537896520039  0.9173744193577987  0.33173377401227805  1.0000
  H   H24       1.0  0.1708463887598413  0.5826243660208945  0.8317337065309969  1.0000
  H   H25       1.0  0.3008586815918833  0.9797616948416061  0.04820190381769149  1.0000
  H   H26       1.0  0.3008579127388344  0.47976114640407985  0.45179906850695045  1.0000
  H   H27       1.0  0.199142029621413  0.9797626955732281  0.5482008549969917  1.0000
  H   H28       1.0  0.8008591445759947  0.5202391861152904  0.04820176218808569  1.0000
  H   H29       1.0  0.699143252783621  0.020238264632254796  0.9517991021098309  1.0000
  H   H30       1.0  0.6991455506656266  0.5202388130695467  0.5482019374207991  1.0000
  H   H31       1.0  0.8008583757234644  0.020237950788953196  0.451798926877025  1.0000
  H   H32       1.0  0.19914126076945854  0.4797614602472534  0.9517986317127265  1.0000
  H   H33       1.0  0.5269523404282168  0.8368211823118086  0.7135411011779522  1.0000
  H   H34       1.0  0.5269527896485329  0.33682112358274446  0.7864589616603153  1.0000
  H   H35       1.0  0.9730460676231091  0.8368208153165211  0.2135422021851098  1.0000
  H   H36       1.0  0.0269523594746985  0.663178515998062  0.7135409432592679  1.0000
  H   H37       1.0  0.4730465358876543  0.16317877716142698  0.2864580686687005  1.0000
  H   H38       1.0  0.4730460866684894  0.663178835891223  0.21354143223994262  1.0000
  H   H39       1.0  0.026952808695014596  0.16317845726899796  0.7864588037416238  1.0000
  H   H40       1.0  0.973046516842274  0.3368207565867251  0.2864588386138677  1.0000
  C   C1        1.0  0.20714298005478324  0.0890941439662285  0.9659974698667494  1.0000
  C   C2        1.0  0.20714372220476923  0.5890939885819009  0.5340028736741828  1.0000
  C   C3        1.0  0.2928568149874167  0.08909589325868687  0.4659966801833163  1.0000
  C   C4        1.0  0.7071428482064306  0.4109062822654365  0.9659976978839138  1.0000
  C   C5        1.0  0.7928574252922402  0.9109044417298832  0.03400292403308918  1.0000
  C   C6        1.0  0.7928597412001609  0.41090459711374183  0.4659975202261179  1.0000
  C   C7        1.0  0.7071435903569353  0.910905439992298  0.5340031016910202  1.0000
  C   C8        1.0  0.2928560281084458  0.5890957378745937  0.03400208399052219  1.0000
  C   C9        1.0  0.18292619904102742  0.02885052262430319  0.895490114231286  1.0000
  C   C10       1.0  0.18292401573656042  0.5288504513257948  0.6045101649676068  1.0000
  C   C11       1.0  0.31707355512659063  0.02885089066409559  0.3954899439135103  1.0000
  C   C12       1.0  0.682925975465423  0.47114982699743263  0.895490399250519  1.0000
  C   C13       1.0  0.8170742063059963  0.9711480630718085  0.10451027966855968  1.0000
  C   C14       1.0  0.8170733315520309  0.47114882125960356  0.39549022893208974  1.0000
  C   C15       1.0  0.682925321189856  0.9711490688095095  0.6045098379599521  1.0000
  C   C16       1.0  0.31707442987893597  0.5288515062535594  0.10450938262382438  1.0000
  C   C17       1.0  0.16765267306971052  0.1837522336172341  0.9616129486681966  1.0000
  C   C18       1.0  0.16765342346627682  0.6837513965730153  0.5383874724687272  1.0000
  C   C19       1.0  0.33234696960111887  0.18375328383146433  0.46161339500656584  1.0000
  C   C20       1.0  0.6676542143772936  0.3162481995754191  0.9616130871207529  1.0000
  C   C21       1.0  0.8323477322761617  0.8162463520781527  0.0383862211780439  1.0000
  C   C22       1.0  0.8323454528529411  0.3162471891240628  0.4616141454844821  1.0000
  C   C23       1.0  0.6676549647732841  0.8162473625308378  0.5383869988944878  1.0000
  C   C24       1.0  0.33234619096649  0.6837531336751963  0.03838608272678808  1.0000
  C   C25       1.0  0.18749855432037776  0.23661738646739378  0.031826145993775895  1.0000
  C   C26       1.0  0.1874985839898002  0.7366177488658392  0.468174561913173  1.0000
  C   C27       1.0  0.31250172858337066  0.23661835220656968  0.5318257435564958  1.0000
  C   C28       1.0  0.6875001761205153  0.2633826186457284  0.031825622398684986  1.0000
  C   C29       1.0  0.8125003219971204  0.7633811992285969  0.9681736358790329  1.0000
  C   C30       1.0  0.8125002923283233  0.26338152371967977  0.5318264440135605  1.0000
  C   C31       1.0  0.6875002057915578  0.7633816072669288  0.46817465034423106  1.0000
  C   C32       1.0  0.31250022922326787  0.7366187146048941  0.968173547448856  1.0000
  C   C33       1.0  0.2838734182011962  0.11007532667691317  0.10899349983612437  1.0000
  C   C34       1.0  0.2838748317699071  0.6100755970467728  0.3910065055198044  1.0000
  C   C35       1.0  0.21612720250535486  0.11007563527659407  0.6089924561629019  1.0000
  C   C36       1.0  0.7838748473275672  0.38992474071451966  0.10899309597429148  1.0000
  C   C37       1.0  0.7161269871447828  0.8899246327968198  0.8910068940643681  1.0000
  C   C38       1.0  0.7161271026045026  0.3899250493155362  0.608993888381242  1.0000
  C   C39       1.0  0.7838762608973796  0.8899243241959379  0.39100671368445455  1.0000
  C   C40       1.0  0.21612555801726066  0.6100752187584815  0.8910060738725957  1.0000
  C   C41       1.0  0.26791339442139167  0.05264932387640899  0.04170479572717769  1.0000
  C   C42       1.0  0.26791187648341713  0.5526489876051596  0.4582957624816116  1.0000
  C   C43       1.0  0.23208718717169316  0.05265100132741909  0.5417043689184949  1.0000
  C   C44       1.0  0.7679132070816835  0.4473506681950566  0.04170444620118019  1.0000
  C   C45       1.0  0.7320885399540629  0.9473499487082787  0.9582955981732152  1.0000
  C   C46       1.0  0.732088528863656  0.447350284980132  0.5417052434453493  1.0000
  C   C47       1.0  0.7679132181726657  0.9473503319235658  0.45829541295584136  1.0000
  C   C48       1.0  0.23208719826319424  0.5526499781671175  0.9582953356728365  1.0000
  N   N1        1.0  0.2296251094738793  0.9389781886335695  0.8965524183847078  1.0000
  N   N2        1.0  0.22962674353296816  0.4389785985385328  0.6034482630283973  1.0000
  N   N3        1.0  0.27037478995376313  0.9389785710887179  0.3965522339136596  1.0000
  N   N4        1.0  0.7296255103610321  0.5610223522574385  0.8965523153440242  1.0000
  N   N5        1.0  0.7703737668430861  0.06102108395121769  0.10344736348842075  1.0000
  N   N6        1.0  0.7703736618135864  0.5610213609355625  0.3965527428988905  1.0000
  N   N7        1.0  0.7296256153922088  0.06102138838501497  0.6034481599868255  1.0000
  N   N8        1.0  0.27037336595379463  0.4389789809934257  0.10344685450328225  1.0000
  N   N9        1.0  0.17852491399425222  0.9096445654191708  0.8219377614425978  1.0000
  N   N10       1.0  0.17852515935242513  0.40964437741882154  0.6780622647007062  1.0000
  N   N11       1.0  0.3214733607409386  0.9096442452121207  0.3219382044849936  1.0000
  N   N12       1.0  0.678523741188954  0.5903559022624305  0.8219376861569214  1.0000
  N   N13       1.0  0.8214739623221945  0.09035539405443418  0.1780620204308646  1.0000
  N   N14       1.0  0.8214752459940725  0.5903548951661007  0.3219381291994593  1.0000
  N   N15       1.0  0.6785239865476527  0.09035502737327049  0.678062189414703  1.0000
  N   N16       1.0  0.32147513512639847  0.4096447440996157  0.17806148369006533  1.0000
  N   N17       1.0  0.10301831148571947  0.9776705831140046  0.7763093481472862  1.0000
  N   N18       1.0  0.10301864265807839  0.4776704495293982  0.7236913315044189  1.0000
  N   N19       1.0  0.3969797738584333  0.9776702395986661  0.2763092020470593  1.0000
  N   N20       1.0  0.6030187712861804  0.5223291665707348  0.7763085964689436  1.0000
  N   N21       1.0  0.896979035802346  0.022329376360197294  0.22369104575274423  1.0000
  N   N22       1.0  0.8969802336594627  0.5223288230557585  0.27630906239551917  1.0000
  N   N23       1.0  0.6030191024591147  0.022329032986490905  0.7236911918528788  1.0000
  N   N24       1.0  0.39698010502969794  0.4776707929025078  0.22369057337771633  1.0000
  N   N25       1.0  0.10475756392538929  0.053300297932295786  0.8218161638239533  1.0000
  N   N26       1.0  0.10475704820881761  0.5533003144953382  0.6781841148184424  1.0000
  N   N27       1.0  0.39524201445581036  0.053299954953246194  0.321815405170021  1.0000
  N   N28       1.0  0.6047589066061647  0.4466999879570749  0.8218164257091726  1.0000
  N   N29       1.0  0.8952413123916401  0.9466996615416716  0.17818423007631165  1.0000
  N   N30       1.0  0.8952418281082044  0.44669964497862924  0.32181627908181537  1.0000
  N   N31       1.0  0.6047583908895363  0.9466993176309441  0.6781837646765393  1.0000
  N   N32       1.0  0.39524149873981435  0.5532999715166581  0.17818396819131974  1.0000
  N   N33       1.0  0.24339994869737316  0.20088683925450102  0.10479013660164326  1.0000
  N   N34       1.0  0.24339984114358507  0.7008864277490261  0.3952105544392665  1.0000
  N   N35       1.0  0.25660205486319404  0.20088713536067357  0.6047897172219476  1.0000
  N   N36       1.0  0.7433999870649542  0.2991132356179377  0.10478964681435338  1.0000
  N   N37       1.0  0.7566019856764044  0.7991131202182655  0.8952090332454785  1.0000
  N   N38       1.0  0.7566020932325018  0.2991135317252044  0.6047910635150584  1.0000
  N   N39       1.0  0.7433998795111664  0.7991128241124553  0.3952100646519766  1.0000
  N   N40       1.0  0.2566004182798737  0.7008867238550704  0.895209523032541  1.0000
  O   O1        1.0  0.4930217249324116  0.7733032167611212  0.7323309007793026  1.0000
  O   O2        1.0  0.49302366784355195  0.2733031356235144  0.7676690916753512  1.0000
  O   O3        1.0  0.006976588872788599  0.7733029936353473  0.23233124850542444  1.0000
  O   O4        1.0  0.9930234025909498  0.7266963600865778  0.7323303424721244  1.0000
  O   O5        1.0  0.5069771513835093  0.22669742960129466  0.26766888109447956  1.0000
  O   O6        1.0  0.5069767375024199  0.7266968238502186  0.23233130222513404  1.0000
  O   O7        1.0  0.9930222874447593  0.22669627894980943  0.7676691453945136  1.0000
  O   O8        1.0  0.006977002754396698  0.2733029124976127  0.2676688273744431  1.0000
