data_image0
_chemical_formula_structural       Dy2H24C40S4N8O18
_chemical_formula_sum              "Dy2 H24 C40 S4 N8 O18"
_cell_length_a       9.684576777491808
_cell_length_b       10.538758298761664
_cell_length_c       12.115931825542017
_cell_angle_alpha    96.51693131858349
_cell_angle_beta     91.79855540294065
_cell_angle_gamma    116.48603351078856

_space_group_name_H-M_alt    "P 1"
_space_group_IT_number       1

loop_
  _space_group_symop_operation_xyz
  'x, y, z'

loop_
  _atom_site_type_symbol
  _atom_site_label
  _atom_site_symmetry_multiplicity
  _atom_site_fract_x
  _atom_site_fract_y
  _atom_site_fract_z
  _atom_site_occupancy
  Dy  Dy1       1.0  0.9506925217578088  0.750190114185678  0.6064181718433161  1.0000
  Dy  Dy2       1.0  0.04931016113433629  0.249806484903047  0.39357816935093126  1.0000
  H   H1        1.0  0.7330418529421651  0.16157731074937234  0.0807084009156114  1.0000
  H   H2        1.0  0.2669555890624267  0.8384255947103656  0.9192893843237185  1.0000
  H   H3        1.0  0.6535189622742267  0.4606835309178479  0.6668449297027409  1.0000
  H   H4        1.0  0.3464650207524471  0.5393106778214902  0.3331523782693607  1.0000
  H   H5        1.0  0.44295316275511  0.3702409997164652  0.7926253248593439  1.0000
  H   H6        1.0  0.5570380407477912  0.6297552912499641  0.2073773352250399  1.0000
  H   H7        1.0  0.42358973596399346  0.5475983979663255  0.9441351448856139  1.0000
  H   H8        1.0  0.576405116793822  0.45239689236350983  0.05586665279608381  1.0000
  H   H9        1.0  0.9652245936373092  0.2506730133463364  0.9746829008994808  1.0000
  H   H10       1.0  0.034772342450544655  0.749326669856167  0.025315324615846232  1.0000
  H   H11       1.0  0.18130279860456971  0.30253511032989894  0.8510905371887887  1.0000
  H   H12       1.0  0.8186962419147579  0.6974603379267138  0.14890724220694554  1.0000
  H   H13       1.0  0.1873835673751216  0.10044196634106584  0.7261580821205698  1.0000
  H   H14       1.0  0.8126076755997359  0.8995501094627942  0.2738424381553344  1.0000
  H   H15       1.0  0.34394786206031824  0.7727160827543075  0.2043479545125564  1.0000
  H   H16       1.0  0.6560583534914954  0.22728346753582693  0.7956595383058059  1.0000
  H   H17       1.0  0.20956448170105088  0.8078184251006136  0.3685434773622092  1.0000
  H   H18       1.0  0.79045155733796  0.19218651960908775  0.6314665067236902  1.0000
  H   H19       1.0  0.5316824732004547  0.25750496822644225  0.4181232400471089  1.0000
  H   H20       1.0  0.4683216953072034  0.7425011879154297  0.5818758945767755  1.0000
  H   H21       1.0  0.673872685979802  0.6607143097050855  0.44665310365742533  1.0000
  H   H22       1.0  0.32614402607640613  0.3392944277984143  0.5533350460127835  1.0000
  H   H23       1.0  0.7220891781317037  0.5334298907990062  0.4269350233539839  1.0000
  H   H24       1.0  0.2779243983787367  0.46657657130476343  0.5730569215423955  1.0000
  C   C1        1.0  0.6439652154119102  0.5332683369476072  0.7341533665902205  1.0000
  C   C2        1.0  0.35602191692472474  0.46672384425403396  0.2658412977533331  1.0000
  C   C3        1.0  0.5250450627648461  0.48344638591578376  0.8050347637827145  1.0000
  C   C4        1.0  0.4749487763388771  0.5165511535492726  0.1949623198496298  1.0000
  C   C5        1.0  0.5162905081320445  0.5792385709852966  0.8890630317016246  1.0000
  C   C6        1.0  0.4837027598752286  0.420759873610237  0.11093992342130583  1.0000
  C   C7        1.0  0.628639782680587  0.7235506817841257  0.9027707216186016  1.0000
  C   C8        1.0  0.37135560215688207  0.27644574516537557  0.09722874303133722  1.0000
  C   C9        1.0  0.6282720025599958  0.8323202702016987  0.9851997371466013  1.0000
  C   C10       1.0  0.37172181083596467  0.16767718148850722  0.014800637891845301  1.0000
  C   C11       1.0  0.7320585725428685  0.9765338375295088  0.983164024024603  1.0000
  C   C12       1.0  0.26793371531046967  0.023460445682545107  0.0168342987423458  1.0000
  C   C13       1.0  0.8549978588475041  0.0228867993408741  0.9128722835917458  1.0000
  C   C14       1.0  0.14499440926986296  0.9771095914524608  0.0871271090794465  1.0000
  C   C15       1.0  0.9701079713144481  0.16539187498331392  0.917429265134068  1.0000
  C   C16       1.0  0.029884297258071568  0.8346023423976023  0.08257152618746492  1.0000
  C   C17       1.0  0.08968983493465289  0.1940254409893498  0.8498117314415409  1.0000
  C   C18       1.0  0.9103066351635575  0.8059646313809242  0.15018619319164372  1.0000
  C   C19       1.0  0.09252119834339821  0.0806895486477401  0.7784461440092726  1.0000
  C   C20       1.0  0.907476810606468  0.9193015626756846  0.2215535858426989  1.0000
  C   C21       1.0  0.8642233110185413  0.91431323603787  0.8362232487408647  1.0000
  C   C22       1.0  0.13577260589858753  0.08568432753128973  0.1637738828773081  1.0000
  C   C23       1.0  0.7461802782830844  0.7659437572786134  0.8274788386976725  1.0000
  C   C24       1.0  0.253810445010842  0.2340493992054392  0.17252097025659913  1.0000
  C   C25       1.0  0.5791555722764985  0.9556707355448142  0.11881188103784983  1.0000
  C   C26       1.0  0.4208433833271386  0.04433094768079122  0.8811923994767099  1.0000
  C   C27       1.0  0.5114697439532918  0.9931212997156182  0.21596973728940583  1.0000
  C   C28       1.0  0.4885312706380773  0.0068781683705268  0.7840384584158997  1.0000
  C   C29       1.0  0.38314615916857536  0.879152361036802  0.2513612981178994  1.0000
  C   C30       1.0  0.6168569460900812  0.12084717504087915  0.7486452998701907  1.0000
  C   C31       1.0  0.30758052788193185  0.8984400472791098  0.34250262416522753  1.0000
  C   C32       1.0  0.6924256665684538  0.10156813082957683  0.6575017426063496  1.0000
  C   C33       1.0  0.3608291919500886  0.0360548623800341  0.4010407012160115  1.0000
  C   C34       1.0  0.6391744509048537  0.9639501790858775  0.5989599435881061  1.0000
  C   C35       1.0  0.4886063337015756  0.15146113679169562  0.3701547979470803  1.0000
  C   C36       1.0  0.511398827813899  0.8485492246210811  0.6298473233297202  1.0000
  C   C37       1.0  0.5643663182425486  0.1313685180838888  0.2787648771891185  1.0000
  C   C38       1.0  0.43563577933380776  0.8686354624851591  0.7212347852477379  1.0000
  C   C39       1.0  0.9535987601262123  0.45400660839523266  0.5435847979659485  1.0000
  C   C40       1.0  0.046411252955309054  0.5459902725512863  0.4564043055149654  1.0000
  S   S1        1.0  0.7352148184732953  0.2883480852714158  0.2565948212500686  1.0000
  S   S2        1.0  0.2647986487791485  0.711658003789225  0.743411112122267  1.0000
  S   S3        1.0  0.2595200106931729  0.07230955275339572  0.5099402266841011  1.0000
  S   S4        1.0  0.7404908976265857  0.9276977245456024  0.4900600102716126  1.0000
  N   N1        1.0  0.7515617198159461  0.6700602942833315  0.7444909994462847  1.0000
  N   N2        1.0  0.24842634723087537  0.32993806810821985  0.255512658563589  1.0000
  N   N3        1.0  0.9825742794495441  0.945341464157444  0.7701868072680113  1.0000
  N   N4        1.0  0.017421086107106007  0.05465489696091911  0.2298151259365042  1.0000
  N   N5        1.0  0.5355234565741611  0.8204428526863625  0.07053412345303663  1.0000
  N   N6        1.0  0.46447136313864956  0.17955667474974754  0.9294689911856223  1.0000
  N   N7        1.0  0.6962681846306397  0.052267907823811306  0.066358901273432  1.0000
  N   N8        1.0  0.3037292380931333  0.9477349318047886  0.9336413525204748  1.0000
  O   O1        1.0  0.7456796392845249  0.4040274383595632  0.33990099489746234  1.0000
  O   O2        1.0  0.25433754285769805  0.595971349264339  0.6601000435079527  1.0000
  O   O3        1.0  0.8616906541740833  0.2476066679461937  0.2735651372874059  1.0000
  O   O4        1.0  0.13831253463479948  0.7523931533997654  0.7264307636308374  1.0000
  O   O5        1.0  0.7227496507868025  0.3138575192674793  0.1412319347857292  1.0000
  O   O6        1.0  0.27724985572216104  0.6861475398213629  0.8587661454921404  1.0000
  O   O7        1.0  0.18829126822155492  0.944933403015725  0.5661942176295938  1.0000
  O   O8        1.0  0.8117055824954561  0.05507468856819741  0.4338091103542254  1.0000
  O   O9        1.0  0.1393099659430348  0.0976113838203858  0.4515466171758717  1.0000
  O   O10       1.0  0.8606910280020584  0.9023945386718992  0.5484598511329963  1.0000
  O   O11       1.0  0.370422945352324  0.20023462250935614  0.5839959928467451  1.0000
  O   O12       1.0  0.6295822877698001  0.7997716334594218  0.4159998743639406  1.0000
  O   O13       1.0  0.8897412704444321  0.5072172225389338  0.6105115448596407  1.0000
  O   O14       1.0  0.11025108395407573  0.4927664130481376  0.3894855426437474  1.0000
  O   O15       1.0  0.9488085967921196  0.3314178792879973  0.5401325953249767  1.0000
  O   O16       1.0  0.05119343514937224  0.6685924020811884  0.45987109967612844  1.0000
  O   O17       1.0  0.7220428112629733  0.6089260818965843  0.4830698306578611  1.0000
  O   O18       1.0  0.27797025842041734  0.3910815047748031  0.5169197572138415  1.0000
