data_image0
_chemical_formula_structural       Ni2H34C34Br2N8O10
_chemical_formula_sum              "Ni2 H34 C34 Br2 N8 O10"
_cell_length_a       9.590387096111874
_cell_length_b       10.15279102208108
_cell_length_c       11.15474435829941
_cell_angle_alpha    107.94611021471185
_cell_angle_beta     106.5356734703157
_cell_angle_gamma    102.62573932560981

_space_group_name_H-M_alt    "P 1"
_space_group_IT_number       1

loop_
  _space_group_symop_operation_xyz
  'x, y, z'

loop_
  _atom_site_type_symbol
  _atom_site_label
  _atom_site_symmetry_multiplicity
  _atom_site_fract_x
  _atom_site_fract_y
  _atom_site_fract_z
  _atom_site_occupancy
  Ni  Ni1       1.0  0.5043345210037913  0.9382955554629576  0.7004028778360691  1.0000
  Ni  Ni2       1.0  0.49566327203667976  0.06170276887680608  0.2995961224956361  1.0000
  H   H1        1.0  0.5853183779242174  0.8495888465630869  0.49754575483996877  1.0000
  H   H2        1.0  0.414682366881337  0.15041167550762677  0.5024554799513794  1.0000
  H   H3        1.0  0.6264961773723029  0.769421960805296  0.6049228605036275  1.0000
  H   H4        1.0  0.37350712918625106  0.23057966272467914  0.3950784117349074  1.0000
  H   H5        1.0  0.5240122201594984  0.3872344650055268  0.675600325683746  1.0000
  H   H6        1.0  0.475992488645268  0.6127649596246484  0.32440156412367566  1.0000
  H   H7        1.0  0.2675403191792043  0.2504114162886921  0.9016316542474742  1.0000
  H   H8        1.0  0.7324567694476938  0.7495880111084715  0.09836479631258742  1.0000
  H   H9        1.0  0.3561171340787368  0.6900362208932973  0.908599714918047  1.0000
  H   H10       1.0  0.6438912986181721  0.30996760266919665  0.0914034250046285  1.0000
  H   H11       1.0  0.8663693024378034  0.10538323429469897  0.7752065580252178  1.0000
  H   H12       1.0  0.13362849191884857  0.8946150886020658  0.22479333870137433  1.0000
  H   H13       1.0  0.08233553082920508  0.2016098000305675  0.04000528887790718  1.0000
  H   H14       1.0  0.9176638117301364  0.7983929209399462  0.9599953283445543  1.0000
  H   H15       1.0  0.6328084774666536  0.044150461109858  0.032712916641664036  1.0000
  H   H16       1.0  0.367191954253606  0.9558522588469458  0.9672888617853699  1.0000
  H   H17       1.0  0.04659297232220179  0.14659674502595976  0.24738991988152745  1.0000
  H   H18       1.0  0.9534055967938855  0.8534037761861766  0.752610785290443  1.0000
  H   H19       1.0  0.8563325294349368  0.10127860924585258  0.2476000174545305  1.0000
  H   H20       1.0  0.14366712752588742  0.8987219123955728  0.7524009525271255  1.0000
  H   H21       1.0  0.8621243743715398  0.3565814565827238  0.3001303615335402  1.0000
  H   H22       1.0  0.1378767591299166  0.6434201632026769  0.6998721738753771  1.0000
  H   H23       1.0  0.026150660329974984  0.3512207147026132  0.4191673783144055  1.0000
  H   H24       1.0  0.973849697095865  0.6487787082104075  0.5808334522542538  1.0000
  H   H25       1.0  0.18041975556040057  0.40617486023117516  0.2762073573710211  1.0000
  H   H26       1.0  0.8195788148718746  0.5938256595379626  0.7237942441958224  1.0000
  H   H27       1.0  0.01790736999936367  0.43284756035733096  0.17441974501552684  1.0000
  H   H28       1.0  0.9820918995817395  0.5671518621264083  0.8255808207434397  1.0000
  H   H29       1.0  0.9480300638280994  0.6702883077141095  0.3040855676919492  1.0000
  H   H30       1.0  0.05196811790827379  0.3297111143403413  0.6959147332573252  1.0000
  H   H31       1.0  0.15944142767676084  0.9346633421476157  0.5097792833015191  1.0000
  H   H32       1.0  0.8405571453878835  0.0653371747355251  0.49022411105509195  1.0000
  H   H33       1.0  0.3621545593873917  0.6027693229497473  0.4872401393666053  1.0000
  H   H34       1.0  0.6378443944760406  0.39723230030607226  0.5127591772382871  1.0000
  C   C1        1.0  0.44407461233205225  0.5491178582506321  0.7846003291873842  1.0000
  C   C2        1.0  0.5559279194670664  0.45088156696397136  0.21540013460577254  1.0000
  C   C3        1.0  0.4584583320652841  0.4103394448479633  0.7398198393923252  1.0000
  C   C4        1.0  0.5415438136703016  0.5896588797659559  0.2601811165730225  1.0000
  C   C5        1.0  0.39480231462675147  0.30330935144744586  0.781740941420523  1.0000
  C   C6        1.0  0.6051998297926459  0.696688974609465  0.21825911814994464  1.0000
  C   C7        1.0  0.3145163740745573  0.33413696902596957  0.8682872022267175  1.0000
  C   C8        1.0  0.6854821910929729  0.6658635565151627  0.13171081376060556  1.0000
  C   C9        1.0  0.3005020922781085  0.47302073240997794  0.911326195152597  1.0000
  C   C10       1.0  0.6994993490439043  0.5269786952613343  0.08867221104110708  1.0000
  C   C11       1.0  0.3647499677374952  0.5808953938966396  0.8716492651733886  1.0000
  C   C12       1.0  0.6352533388210517  0.41910622963333566  0.1283520070651463  1.0000
  C   C13       1.0  0.5113006044045606  0.6654477514465  0.740207045287505  1.0000
  C   C14       1.0  0.48870301260691923  0.3345516770833896  0.2597918905255767  1.0000
  C   C15       1.0  0.42236302564316464  0.15995795099377824  0.7428062828914435  1.0000
  C   C16       1.0  0.5776365557070519  0.8400392750468695  0.2571928428369572  1.0000
  C   C17       1.0  0.8501710321818975  0.10791697073988618  0.8680118077278891  1.0000
  C   C18       1.0  0.1498275382503707  0.8920835490292517  0.1319897938389615  1.0000
  C   C19       1.0  0.9574467153160878  0.15585278673891165  0.9977549715057137  1.0000
  C   C20       1.0  0.0425522411797202  0.8441488336309104  0.002246137888945828  1.0000
  C   C21       1.0  0.7225540871193274  0.07543924420868107  0.9957836790697101  1.0000
  C   C22       1.0  0.27744556852530877  0.9245612788757427  0.0042163945170656005  1.0000
  C   C23       1.0  0.9393624112885137  0.17321203737918006  0.22500345435057065  1.0000
  C   C24       1.0  0.06063685829258955  0.8267873851045592  0.7749971114083962  1.0000
  C   C25       1.0  0.9715769679691775  0.3347493954225768  0.31214315721501146  1.0000
  C   C26       1.0  0.02842269030782764  0.6652511247758495  0.6878587091615245  1.0000
  C   C27       1.0  0.07821117456390429  0.43846899403572337  0.2764244869010496  1.0000
  C   C28       1.0  0.92178848239692  0.5615315276057015  0.7235764830806062  1.0000
  C   C29       1.0  0.06478087216130031  0.6970424226335579  0.373761628591282  1.0000
  C   C30       1.0  0.9352154469709077  0.30295480067623254  0.6262375991029288  1.0000
  C   C31       1.0  0.17056028134440024  0.8266854233854274  0.47631842968225147  1.0000
  C   C32       1.0  0.829438290404056  0.17331509494071173  0.5236840682794792  1.0000
  C   C33       1.0  0.2805921045333689  0.6604733502332606  0.46933733626867274  1.0000
  C   C34       1.0  0.7194075524274481  0.3395271714081645  0.5306636337129831  1.0000
  Br  Br1       1.0  0.1901440172928872  0.5195840062791958  0.0265625025736468  1.0000
  Br  Br2       1.0  0.809849970980089  0.48040662929947325  0.9734298178100218  1.0000
  N   N1        1.0  0.7043820327239985  0.05740090551606159  0.8680714726827149  1.0000
  N   N2        1.0  0.2956161503285627  0.9425985150953904  0.1319297246614395  1.0000
  N   N3        1.0  0.8749877298742349  0.13525208417178183  0.07795271089381119  1.0000
  N   N4        1.0  0.12501013877684383  0.8647495357687516  0.9220481336911488  1.0000
  N   N5        1.0  0.13682692058505802  0.5927148979025175  0.3707144428860046  1.0000
  N   N6        1.0  0.863172348996045  0.40728452458122166  0.629286122872962  1.0000
  N   N7        1.0  0.3045799483145046  0.802452622637375  0.5354624626059915  1.0000
  N   N8        1.0  0.6954193212665982  0.19754679984636428  0.4645381031529752  1.0000
  O   O1        1.0  0.47500243193931624  0.7812713554221701  0.7759369527078376  1.0000
  O   O2        1.0  0.5249982319908922  0.21872587681977504  0.22405885225072805  1.0000
  O   O3        1.0  0.5923367613416916  0.6398549967198478  0.6689658208846723  1.0000
  O   O4        1.0  0.40766825528363165  0.36014223579624627  0.3310319397075432  1.0000
  O   O5        1.0  0.486969299835657  0.128969148696271  0.6565179100426022  1.0000
  O   O6        1.0  0.5130313706754775  0.8710280763306739  0.3434823768903711  1.0000
  O   O7        1.0  0.38686395009945335  0.07194630443162002  0.7982774298599297  1.0000
  O   O8        1.0  0.6131312798718297  0.9280509198918804  0.20172063662970854  1.0000
  O   O9        1.0  0.6388187868486384  0.865477771854323  0.593980039681803  1.0000
  O   O10       1.0  0.36117978358363706  0.13452274791481497  0.4060215618850478  1.0000
