data_image0
_chemical_formula_structural       Cd4H44C52Br4N16O20
_chemical_formula_sum              "Cd4 H44 C52 Br4 N16 O20"
_cell_length_a       8.767591787146445
_cell_length_b       14.963276042586058
_cell_length_c       14.980580008397675
_cell_angle_alpha    103.97541086285774
_cell_angle_beta     107.02853703113692
_cell_angle_gamma    107.02687727468653

_space_group_name_H-M_alt    "P 1"
_space_group_IT_number       1

loop_
  _space_group_symop_operation_xyz
  'x, y, z'

loop_
  _atom_site_type_symbol
  _atom_site_label
  _atom_site_symmetry_multiplicity
  _atom_site_fract_x
  _atom_site_fract_y
  _atom_site_fract_z
  _atom_site_occupancy
  Cd  Cd1       1.0  0.9080181836359813  0.05422867294978321  0.6781094415809291  1.0000
  Cd  Cd2       1.0  0.6758066397424899  0.4457242734711357  0.8218999821053997  1.0000
  Cd  Cd3       1.0  0.09198176681356056  0.9457714101050881  0.3218899116559084  1.0000
  Cd  Cd4       1.0  0.3241931497990506  0.5542765566985963  0.1780989691797643  1.0000
  H   H1        1.0  0.5733248377119866  0.7802087701258814  0.9963368464840627  1.0000
  H   H2        1.0  0.29705995695464793  0.7198698736283831  0.5036776716967423  1.0000
  H   H3        1.0  0.42667644923574244  0.21979131577085556  0.0036638431330545357  1.0000
  H   H4        1.0  0.7029409819381558  0.280130208959946  0.49632147742408955  1.0000
  H   H5        1.0  0.6657837722138426  0.623698544736662  0.38318427361325286  1.0000
  H   H6        1.0  0.159017923781107  0.8762236360729715  0.11670526484639503  1.0000
  H   H7        1.0  0.33421834226913916  0.37630228780838587  0.6168158099361633  1.0000
  H   H8        1.0  0.8409805587448673  0.1237757041085601  0.8832964390704275  1.0000
  H   H9        1.0  0.8501522814667695  0.832861328642771  0.6846292975924299  1.0000
  H   H10       1.0  0.8326689434973887  0.6669788655382548  0.8153144934147036  1.0000
  H   H11       1.0  0.14984416845115334  0.16713800208005844  0.3153679889515573  1.0000
  H   H12       1.0  0.1673293502598057  0.3330212165622299  0.18468439574800746  1.0000
  H   H13       1.0  0.8348214126736834  0.9437789405582249  0.4549834560087759  1.0000
  H   H14       1.0  0.9360696718482371  0.5561656099700727  0.04503250847487555  1.0000
  H   H15       1.0  0.1651837196169056  0.05622488566344691  0.5450174883784626  1.0000
  H   H16       1.0  0.0639264316366026  0.4438322251021134  0.9549649137823336  1.0000
  H   H17       1.0  0.4765608151802996  0.9932574504301713  0.6552965308680712  1.0000
  H   H18       1.0  0.3283535276056639  0.5068185555719822  0.844748900719935  1.0000
  H   H19       1.0  0.5234388150750888  0.006742634512185899  0.3447036946749193  1.0000
  H   H20       1.0  0.6716475984340562  0.4931822774396153  0.15525138694549406  1.0000
  H   H21       1.0  0.24308374123466342  0.9617243156275207  0.6853566225249564  1.0000
  H   H22       1.0  0.09622722833425731  0.5382730257564107  0.8146445452129996  1.0000
  H   H23       1.0  0.7569157281127233  0.038276516429689905  0.314643201066353  1.0000
  H   H24       1.0  0.9037724019211311  0.4617270591859466  0.18535568032998384  1.0000
  H   H25       1.0  0.2536071214818706  0.9529816625841505  0.8041184045682782  1.0000
  H   H26       1.0  0.9967250166625589  0.5470289930598042  0.6958758959225052  1.0000
  H   H27       1.0  0.7463918405244172  0.04701842093727751  0.19588115278457244  1.0000
  H   H28       1.0  0.0032757891830073466  0.452971841839279  0.30412526404906964  1.0000
  H   H29       1.0  0.19034861028050928  0.8431192400026006  0.6992817123190278  1.0000
  H   H30       1.0  0.1481335668392561  0.6568608991646343  0.8007095463642314  1.0000
  H   H31       1.0  0.8096515273159639  0.15688159347554628  0.30071877946240727  1.0000
  H   H32       1.0  0.8518650749728778  0.34313918624427237  0.19929088329476488  1.0000
  H   H33       1.0  0.6603841178266663  0.9085945981776363  0.851325168972849  1.0000
  H   H34       1.0  0.40061541626931774  0.5913703542445958  0.6486697925020904  1.0000
  H   H35       1.0  0.3396145239854675  0.09140548723127041  0.14867526068614717  1.0000
  H   H36       1.0  0.5993812486563073  0.4086297320974097  0.35133104538893173  1.0000
  H   H37       1.0  0.44800259217149857  0.8217137503016616  0.8244806824209122  1.0000
  H   H38       1.0  0.3019269067517245  0.6782431230471602  0.6754689339970312  1.0000
  H   H39       1.0  0.5519963698347965  0.1782863332197593  0.17551887493193866  1.0000
  H   H40       1.0  0.6980738990938421  0.32175771185192303  0.32453222597454356  1.0000
  H   H41       1.0  0.5311708723325809  0.944772224493967  0.9140600756158364  1.0000
  H   H42       1.0  0.17241828541913432  0.555166576737193  0.5859419486575065  1.0000
  H   H43       1.0  0.46882926526389207  0.05522860898418  0.0859404161656059  1.0000
  H   H44       1.0  0.8275818800381175  0.4448342619368475  0.41406095592636655  1.0000
  C   C1        1.0  0.7839728384181939  0.87369657430105  0.11713201102616465  1.0000
  C   C2        1.0  0.29310348432466066  0.6262249612218865  0.38287048449497957  1.0000
  C   C3        1.0  0.2160290364400055  0.12630051274446433  0.8828654607928141  1.0000
  C   C4        1.0  0.7068976417150667  0.37377587178971083  0.6171298031704567  1.0000
  C   C5        1.0  0.7152796743978271  0.8137654254261975  0.17168735577018168  1.0000
  C   C6        1.0  0.22984619954350205  0.6862038351682145  0.32831510537785397  1.0000
  C   C7        1.0  0.2847209443008084  0.18623465904961023  0.8283126656567958  1.0000
  C   C8        1.0  0.7701534307118792  0.31379624977413567  0.6716851201651294  1.0000
  C   C9        1.0  0.570777420223415  0.7242068725193748  0.1394733940778892  1.0000
  C   C10       1.0  0.20730021537635676  0.7758215768107205  0.36054568952429367  1.0000
  C   C11       1.0  0.4292207404865565  0.2757939618918712  0.8605275059355718  1.0000
  C   C12       1.0  0.7927032339829553  0.22418075091843556  0.6394540541958946  1.0000
  C   C13       1.0  0.4322361045598272  0.6633629260045882  0.03882705767561136  1.0000
  C   C14       1.0  0.2303757807892526  0.8366978906396414  0.46121559520229743  1.0000
  C   C15       1.0  0.5677603994577965  0.3366379074522712  0.961173378263723  1.0000
  C   C16       1.0  0.7696228610228816  0.16330219476926544  0.538784834456699  1.0000
  C   C17       1.0  0.7087345575520274  0.7722269168646322  0.299914788286074  1.0000
  C   C18       1.0  0.1365760766039231  0.7277360366610993  0.20006423137579074  1.0000
  C   C19       1.0  0.29126822518004064  0.22777391710135222  0.700085963453482  1.0000
  C   C20       1.0  0.8634220316281968  0.2722618026738814  0.7999351954518232  1.0000
  C   C21       1.0  0.7495373733877316  0.7819649056919362  0.40465657142392797  1.0000
  C   C22       1.0  0.06288306487715542  0.7179899407141691  0.09530973151391456  1.0000
  C   C23       1.0  0.25046757337777603  0.21803667776421787  0.5953449106282135  1.0000
  C   C24       1.0  0.9371106084797917  0.28200864948934873  0.9046909821322088  1.0000
  C   C25       1.0  0.7198046741192958  0.7000619432250591  0.4364306150204129  1.0000
  C   C26       1.0  0.08337825111079415  0.7998631259716832  0.0634847046590892  1.0000
  C   C27       1.0  0.28019909705602697  0.2999388902743759  0.5635699326031371  1.0000
  C   C28       1.0  0.916627283565184  0.2001354586332482  0.9365135595949211  1.0000
  C   C29       1.0  0.7588727896596199  0.7185184011588746  0.5380521074057043  1.0000
  C   C30       1.0  0.0023960782836526494  0.7813722388486681  0.961849903007966  1.0000
  C   C31       1.0  0.2411278028000937  0.2814801857787971  0.4619471774283497  1.0000
  C   C32       1.0  0.9976012007913653  0.218626346180237  0.03814845367784163  1.0000
  C   C33       1.0  0.8227002915346945  0.8163724453669658  0.6052181176282971  1.0000
  C   C34       1.0  0.9011633623429989  0.683501057179754  0.8947347388305573  1.0000
  C   C35       1.0  0.1772982961777388  0.18362613730790406  0.3947791626353521  1.0000
  C   C36       1.0  0.09883458498111959  0.31649752927008723  0.10526428604538296  1.0000
  C   C37       1.0  0.815612286245589  0.8782241702526862  0.47666916075348814  1.0000
  C   C38       1.0  0.9607501524150238  0.6217142280457963  0.023337809573647034  1.0000
  C   C39       1.0  0.184385739795296  0.12177890881154953  0.5233320739012157  1.0000
  C   C40       1.0  0.039247474714926726  0.3782843602915236  0.9766620876084389  1.0000
  C   C41       1.0  0.5458294897635696  0.9688761566182861  0.7126584879169682  1.0000
  C   C42       1.0  0.36460349814560544  0.5311513093830769  0.7873688595553572  1.0000
  C   C43       1.0  0.45417064783290334  0.031124676859860808  0.2873420038644737  1.0000
  C   C44       1.0  0.635397307699961  0.4688495255159992  0.21263230041621736  1.0000
  C   C45       1.0  0.2757662673679565  0.9229673781488689  0.7369122691334554  1.0000
  C   C46       1.0  0.11611793440487608  0.5770203005791004  0.7630876285758388  1.0000
  C   C47       1.0  0.7242332019794233  0.07703345390834221  0.2630875544578545  1.0000
  C   C48       1.0  0.8838807074072506  0.42297978482980614  0.23691280108315743  1.0000
  C   C49       1.0  0.5283861257071579  0.9007031060413552  0.8428978145344955  1.0000
  C   C50       1.0  0.28493089247720615  0.5992580887773615  0.657081722266895  1.0000
  C   C51       1.0  0.4716133436402218  0.09929772601585538  0.15710200905681396  1.0000
  C   C52       1.0  0.7150680973898602  0.4007419999399602  0.34292024788837944  1.0000
  Br  Br1       1.0  0.7229102386881437  0.6108845590405424  0.5854909324329896  1.0000
  Br  Br2       1.0  0.026465211788768234  0.888965046035722  0.9143088220333198  1.0000
  Br  Br3       1.0  0.2770888842261529  0.3891147773660181  0.41450902687153507  1.0000
  Br  Br4       1.0  0.9735372507491461  0.11103578981774123  0.08569280201238173  1.0000
  N   N1        1.0  0.8006292692418315  0.8430264433411807  0.27287275063341804  1.0000
  N   N2        1.0  0.18465979197797117  0.656917022745354  0.22712173321892948  1.0000
  N   N3        1.0  0.19937089459357096  0.15697588767510237  0.7271284777409477  1.0000
  N   N4        1.0  0.8153413078228342  0.3430823127281144  0.7728778178535833  1.0000
  N   N5        1.0  0.5696199467279754  0.6984402871626401  0.22093067535818983  1.0000
  N   N6        1.0  0.1504480697854474  0.801588203277518  0.27906834296442873  1.0000
  N   N7        1.0  0.4303815273666843  0.30156054915737934  0.7790711528035245  1.0000
  N   N8        1.0  0.8495522008582626  0.19841187788987466  0.7209301379662633  1.0000
  N   N9        1.0  0.849726766492914  0.8944442759933793  0.5737581586297223  1.0000
  N   N10       1.0  0.8816717263496515  0.605453767283464  0.9262238452979615  1.0000
  N   N11       1.0  0.15027601623916104  0.105556557972605  0.4262425931098335  1.0000
  N   N12       1.0  0.11832838500789937  0.3945455686565539  0.073775909890557  1.0000
  N   N13       1.0  0.4557687144801722  0.9354960316255615  0.7642177507891432  1.0000
  N   N14       1.0  0.25633127940562156  0.5645398420223058  0.7358155491714626  1.0000
  N   N15       1.0  0.5442319042184708  0.06450405285024632  0.2357822706378343  1.0000
  N   N16       1.0  0.7436657073360137  0.4354587500899783  0.2641860926229143  1.0000
  O   O1        1.0  0.927704322793069  0.9470151114770857  0.16220588703195196  1.0000
  O   O2        1.0  0.31821859430004207  0.5528537592245683  0.33770621767695264  1.0000
  O   O3        1.0  0.07229397096413251  0.052984970623398894  0.8377930021307591  1.0000
  O   O4        1.0  0.6817841868101839  0.4471485670836445  0.662292857853103  1.0000
  O   O5        1.0  0.6921513430986793  0.849444931405813  0.022546025689010193  1.0000
  O   O6        1.0  0.32028962545538064  0.6505180416428544  0.4774722619279784  1.0000
  O   O7        1.0  0.30784692441960004  0.15055365315654257  0.9774521268807773  1.0000
  O   O8        1.0  0.679712489027594  0.34948279090219353  0.5225278216214448  1.0000
  O   O9        1.0  0.4356899442305747  0.6962799019622993  0.9675284187237949  1.0000
  O   O10       1.0  0.27238684008781183  0.8037912694431524  0.5325203320040544  1.0000
  O   O11       1.0  0.564310167126969  0.3037194339777187  0.032471336464723825  1.0000
  O   O12       1.0  0.7276164237464257  0.1962088155204853  0.4674799493810369  1.0000
  O   O13       1.0  0.3159144365360405  0.5822046216573681  0.026985728558550203  1.0000
  O   O14       1.0  0.20694699603788552  0.917825658649683  0.47308642234837345  1.0000
  O   O15       1.0  0.6840865302175344  0.4177954661268544  0.9730158333647053  1.0000
  O   O16       1.0  0.7930551184450962  0.0821751738953651  0.5269136612010497  1.0000
  O   O17       1.0  0.6973058539977333  0.9734271295516665  0.728598478349312  1.0000
  O   O18       1.0  0.4954955643419723  0.5265080239292317  0.7713828923618847  1.0000
  O   O19       1.0  0.30269310800855465  0.0265729539697546  0.2714010790035388  1.0000
  O   O20       1.0  0.5045043861075698  0.4734920591256397  0.22861646087495296  1.0000
