data_image0
_chemical_formula_structural       Cu12H84C108N24
_chemical_formula_sum              "Cu12 H84 C108 N24"
_cell_length_a       31.86165346223484
_cell_length_b       35.03217592281084
_cell_length_c       35.107154071274394
_cell_angle_alpha    94.78132588081043
_cell_angle_beta     90.4988083190087
_cell_angle_gamma    90.73551392214901

_space_group_name_H-M_alt    "P 1"
_space_group_IT_number       1

loop_
  _space_group_symop_operation_xyz
  'x, y, z'

loop_
  _atom_site_type_symbol
  _atom_site_label
  _atom_site_symmetry_multiplicity
  _atom_site_fract_x
  _atom_site_fract_y
  _atom_site_fract_z
  _atom_site_occupancy
  Cu  Cu1       1.0  0.8708906581812457  0.10049500813816079  0.13907447612291426  1.0000
  Cu  Cu2       1.0  0.8403664148247431  0.1258218322388984  0.0593735953297028  1.0000
  Cu  Cu3       1.0  0.9187207252781706  0.16816995744687094  0.10271127590979749  1.0000
  Cu  Cu4       1.0  0.1290424767994622  0.41094869229406333  0.6597802551733096  1.0000
  Cu  Cu5       1.0  0.1595225911572626  0.37823054529784617  0.5779465035447799  1.0000
  Cu  Cu6       1.0  0.09171804427825953  0.3320576345136317  0.6232207992474699  1.0000
  Cu  Cu7       1.0  0.371390694211506  0.9061299130432872  0.36059122370433977  1.0000
  Cu  Cu8       1.0  0.33614904770454507  0.8721028083868135  0.43464433719817913  1.0000
  Cu  Cu9       1.0  0.4136780980221388  0.8326195694250914  0.3906954477017379  1.0000
  Cu  Cu10      1.0  0.6253876400865152  0.5863980520767313  0.8448418931474108  1.0000
  Cu  Cu11      1.0  0.6638961649870865  0.622945679384813  0.9234518847271997  1.0000
  Cu  Cu12      1.0  0.5899908319409167  0.6645228689399972  0.8818254149575677  1.0000
  H   H1        1.0  0.37597160050350453  0.5859555751860911  0.6732483360064803  1.0000
  H   H2        1.0  0.4330339959651753  0.6858405335309287  0.6306612571248278  1.0000
  H   H3        1.0  0.3234016475768229  0.6336712130394703  0.5746029877472907  1.0000
  H   H4        1.0  0.6208717848147388  0.9246831213380202  0.19292862461664126  1.0000
  H   H5        1.0  0.5680659589851089  0.8217453845773407  0.13495204829602864  1.0000
  H   H6        1.0  0.6744351987253412  0.877342754147584  0.0874482455039356  1.0000
  H   H7        1.0  0.8231375002974702  0.37129001377343945  0.9248886604303407  1.0000
  H   H8        1.0  0.9318005894710099  0.3200065689184726  0.8706161625292521  1.0000
  H   H9        1.0  0.8761745773736109  0.4187190572784942  0.8263982772601606  1.0000
  H   H10       1.0  0.12341549392713351  0.07872578958386363  0.30553232363394045  1.0000
  H   H11       1.0  0.07863850647789412  0.18462436054248602  0.3607640327472835  1.0000
  H   H12       1.0  0.1739203289514322  0.121627921925473  0.4152836086459287  1.0000
  H   H13       1.0  0.8066798420732867  0.0328971089591761  0.1506166469451102  1.0000
  H   H14       1.0  0.7743211116182351  0.0582611518589431  0.03535789881423309  1.0000
  H   H15       1.0  0.9967085708164876  0.1808154982997152  0.1608860474653895  1.0000
  H   H16       1.0  0.9280523543077807  0.09017647760745008  0.21098459241292739  1.0000
  H   H17       1.0  0.8275938871389246  0.1789892534908617  0.991450833984686  1.0000
  H   H18       1.0  0.9355514189428007  0.23482645005278607  0.04893239544615819  1.0000
  H   H19       1.0  0.18809063029961243  0.4836878910466639  0.6744414321121609  1.0000
  H   H20       1.0  0.23027928072840356  0.44030824621512477  0.5622237605212205  1.0000
  H   H21       1.0  0.026294401984714003  0.31255494508824455  0.6867370542247214  1.0000
  H   H22       1.0  0.0751354419119679  0.42207159933136046  0.7355340421087674  1.0000
  H   H23       1.0  0.16441937912363613  0.3247347224789223  0.5009736997274101  1.0000
  H   H24       1.0  0.07686719358950711  0.259316972128019  0.564316832194109  1.0000
  H   H25       1.0  0.3094773321402258  0.9752453956581206  0.35299891284943635  1.0000
  H   H26       1.0  0.26734793881286123  0.9345918338995889  0.4596262764046557  1.0000
  H   H27       1.0  0.4876809691442788  0.8194412467289781  0.3304846529836922  1.0000
  H   H28       1.0  0.43016672957762137  0.9207889867862492  0.29137353243998376  1.0000
  H   H29       1.0  0.321563397264825  0.8150083947390386  0.49843989587974846  1.0000
  H   H30       1.0  0.428971789259684  0.7627382256183851  0.4411385570972185  1.0000
  H   H31       1.0  0.6826358132645326  0.5142381861958256  0.8294460575153266  1.0000
  H   H32       1.0  0.7385767208102579  0.5649061273018604  0.9350726089422138  1.0000
  H   H33       1.0  0.5278266631191215  0.6862466188248533  0.8157316215927464  1.0000
  H   H34       1.0  0.5694934912331533  0.5748047485031192  0.7692053631738602  1.0000
  H   H35       1.0  0.6742104342169527  0.678516899658028  0.999309638374093  1.0000
  H   H36       1.0  0.5711478045632961  0.7325097748643189  0.9441171495908305  1.0000
  H   H37       1.0  0.6965050062964266  0.9380027775224704  0.08415382049415848  1.0000
  H   H38       1.0  0.7376527530260476  0.994893795841904  0.1467664014976009  1.0000
  H   H39       1.0  0.6849293088497747  0.9522578234258676  0.1711865114900704  1.0000
  H   H40       1.0  0.739339879581877  0.9888070448916155  0.05870573142482981  1.0000
  H   H41       1.0  0.31058739515271583  0.567705879788292  0.6796827792000713  1.0000
  H   H42       1.0  0.2504412374589863  0.524880647421405  0.6771030329739955  1.0000
  H   H43       1.0  0.2957270749712252  0.5727756244081307  0.5937023434642936  1.0000
  H   H44       1.0  0.27212415481893976  0.507267683990044  0.5923888314942898  1.0000
  H   H45       1.0  0.1937501892759244  0.06007516146931382  0.41726636164854364  1.0000
  H   H46       1.0  0.2361693507501031  0.006865967928433701  0.35387159885825525  1.0000
  H   H47       1.0  0.18456902241536  0.04934088610678341  0.3296157430642167  1.0000
  H   H48       1.0  0.23499321922460584  0.0074790750793312  0.44166473435853243  1.0000
  H   H49       1.0  0.8090210741621676  0.43542313354184614  0.8187435234555733  1.0000
  H   H50       1.0  0.7472834484462184  0.4760504206502035  0.8224508548164733  1.0000
  H   H51       1.0  0.7964058869674702  0.4315889774464667  0.9049559330414139  1.0000
  H   H52       1.0  0.7769452408304433  0.49747473629089  0.905113346792575  1.0000
  H   H53       1.0  0.05529661917834261  0.0750274478477451  0.2873098227084796  1.0000
  H   H54       1.0  0.9944146564115358  0.0796142451397444  0.2458249399399151  1.0000
  H   H55       1.0  0.0533418635744383  0.16294111713559542  0.29599374732279665  1.0000
  H   H56       1.0  0.032416503011425804  0.15746502156265763  0.22901925259277786  1.0000
  H   H57       1.0  0.46100252399683944  0.6934648292886936  0.6880377734018026  1.0000
  H   H58       1.0  0.5011224665821105  0.6930652344828232  0.7476437813229708  1.0000
  H   H59       1.0  0.4372036998968839  0.6109653434271111  0.7035713873317134  1.0000
  H   H60       1.0  0.505268210926282  0.6061732970385022  0.7271624823953644  1.0000
  H   H61       1.0  0.9506455950699788  0.3089586862500795  0.8094789450384425  1.0000
  H   H62       1.0  0.9907006335301036  0.30832867698793365  0.7503205457251524  1.0000
  H   H63       1.0  0.9399579667542072  0.39441637077788994  0.7988945454782266  1.0000
  H   H64       1.0  0.009817203905122102  0.3927260035083862  0.7764214591101676  1.0000
  H   H65       1.0  0.5549924717853827  0.9310252887508739  0.212378366563108  1.0000
  H   H66       1.0  0.4948916708065669  0.9279363884142169  0.254457488346695  1.0000
  H   H67       1.0  0.5426736265106984  0.84388313706377  0.19828946858635277  1.0000
  H   H68       1.0  0.524508442367619  0.8462751073711275  0.26488132139413517  1.0000
  H   H69       1.0  0.944053684584304  0.3061357739150239  0.931933924013606  1.0000
  H   H70       1.0  0.9435940979355949  0.2688130897787885  0.9881082402631164  1.0000
  H   H71       1.0  0.8491855448316344  0.3112529267822595  0.9455561223099807  1.0000
  H   H72       1.0  0.8546712605813058  0.245324390958146  0.9598624908490478  1.0000
  H   H73       1.0  0.3128521666408517  0.6954697711093659  0.5635395198734656  1.0000
  H   H74       1.0  0.3138730754856809  0.7525154491655074  0.5280655048415142  1.0000
  H   H75       1.0  0.40802844789139686  0.7091776474767427  0.5710644210541742  1.0000
  H   H76       1.0  0.40314452796746997  0.7274418910597619  0.506155689987196  1.0000
  H   H77       1.0  0.556091208489356  0.8055699495977678  0.0714602063716754  1.0000
  H   H78       1.0  0.5584505582403807  0.7656757105059812  0.010355295958007105  1.0000
  H   H79       1.0  0.6508265105857872  0.8147939025383053  0.059051126130533815  1.0000
  H   H80       1.0  0.6470661798017262  0.7471086964467235  0.03801996666749832  1.0000
  H   H81       1.0  0.11871566139583932  0.2337094952468917  0.3908891344811706  1.0000
  H   H82       1.0  0.13639914053987923  0.2829457603914492  0.44309683086928686  1.0000
  H   H83       1.0  0.14149768235999013  0.17778285780588732  0.4504242652437113  1.0000
  H   H84       1.0  0.10198912744778002  0.22256139362995242  0.493729766057747  1.0000
  C   C1        1.0  0.3449083543569956  0.6069571254026939  0.6242359729117837  1.0000
  C   C2        1.0  0.37592869099588466  0.6080677943333016  0.6531078445719345  1.0000
  C   C3        1.0  0.40747809357239373  0.6365528210588921  0.6564170988591014  1.0000
  C   C4        1.0  0.4082276268841343  0.6639761288146249  0.6292923672217225  1.0000
  C   C5        1.0  0.37751396900338824  0.664056392511874  0.6003789414299162  1.0000
  C   C6        1.0  0.3465596354891148  0.634851756366409  0.5977760833239145  1.0000
  C   C7        1.0  0.6504676881047333  0.9055374970835076  0.1399126699417721  1.0000
  C   C8        1.0  0.6202270578600563  0.9032362240095965  0.1685253252941479  1.0000
  C   C9        1.0  0.5896976007106505  0.8737256171937134  0.16675362331538676  1.0000
  C   C10       1.0  0.5906769213999682  0.8454816239950845  0.13595275627016432  1.0000
  C   C11       1.0  0.6204860233277999  0.8469276436304441  0.10673071135446581  1.0000
  C   C12       1.0  0.6504585664674494  0.8767870589891091  0.1094206049426703  1.0000
  C   C13       1.0  0.8450559469067118  0.39802185763355885  0.8753723224417056  1.0000
  C   C14       1.0  0.8466363808603249  0.3706200689224772  0.9023712969982256  1.0000
  C   C15       1.0  0.8779568846653802  0.34261605854700855  0.9014223470131526  1.0000
  C   C16       1.0  0.9075950148554028  0.3417805173821263  0.8719747748770246  1.0000
  C   C17       1.0  0.9068653493883546  0.36866101652316274  0.8443626089761763  1.0000
  C   C18       1.0  0.8760466124499261  0.39708194929531976  0.8470431756648934  1.0000
  C   C19       1.0  0.151472150169397  0.09576165496825692  0.3605289670534261  1.0000
  C   C20       1.0  0.12379763051991693  0.10022240995326831  0.3299032998528872  1.0000
  C   C21       1.0  0.09660971392887771  0.1315638391292566  0.3299287490190891  1.0000
  C   C22       1.0  0.0994692586868169  0.16010890089862784  0.36042374822438455  1.0000
  C   C23       1.0  0.12705661950932526  0.15671823174413652  0.3914579204173521  1.0000
  C   C24       1.0  0.15195188716922564  0.12394648628835367  0.3915849992630598  1.0000
  C   C25       1.0  0.8029485306251943  0.04457070611302069  0.12313326834828325  1.0000
  C   C26       1.0  0.7774185378900711  0.031616997553491906  0.09161154054087457  1.0000
  C   C27       1.0  0.787123579301337  0.05715823470925591  0.06398760556287189  1.0000
  C   C28       1.0  0.974848004689811  0.1586648924508509  0.16831385920374228  1.0000
  C   C29       1.0  0.9768756955869765  0.1348103110080388  0.19861149567103809  1.0000
  C   C30       1.0  0.9400698634871817  0.11215055696283831  0.19379949071137753  1.0000
  C   C31       1.0  0.8538807633142725  0.18814305815499924  0.010042518195007198  1.0000
  C   C32       1.0  0.8821733390715921  0.21899117985398683  0.007488317263913297  1.0000
  C   C33       1.0  0.9092684697384359  0.21649461759685812  0.039097535726988  1.0000
  C   C34       1.0  0.19377173481449722  0.4680728883287698  0.6470175006614554  1.0000
  C   C35       1.0  0.22304275968291884  0.47547174253371344  0.6185909026005234  1.0000
  C   C36       1.0  0.21502604562336103  0.4459767730225224  0.589602898910229  1.0000
  C   C37       1.0  0.04302104344878901  0.3394042263424027  0.6938592117845914  1.0000
  C   C38       1.0  0.038590363587133  0.3664827284812731  0.725527553281587  1.0000
  C   C39       1.0  0.06778542286794932  0.39549871997326147  0.7184965217988761  1.0000
  C   C40       1.0  0.14288384189141823  0.3136715349700978  0.5212834454491926  1.0000
  C   C41       1.0  0.11912944436671322  0.27934924411582074  0.5185324219498924  1.0000
  C   C42       1.0  0.09862091774064653  0.28007370402483633  0.5539027255033202  1.0000
  C   C43       1.0  0.3033791580828407  0.9599446671101787  0.3780486658094374  1.0000
  C   C44       1.0  0.27487328700276953  0.9681810719286973  0.40795867501499566  1.0000
  C   C45       1.0  0.2825621238142233  0.9396115226079615  0.43292217824802737  1.0000
  C   C46       1.0  0.4686416448361683  0.8441069782894175  0.32571391371021  1.0000
  C   C47       1.0  0.4729123144583697  0.8706597455352708  0.2979859853718594  1.0000
  C   C48       1.0  0.43956919442353387  0.8960494746176976  0.30586195336623934  1.0000
  C   C49       1.0  0.34756571301569045  0.8066417207358185  0.4799494097399091  1.0000
  C   C50       1.0  0.37499447300896804  0.7755329975269447  0.481205991485531  1.0000
  C   C51       1.0  0.4026705070915711  0.780251062016248  0.4508721911060433  1.0000
  C   C52       1.0  0.6916087911726266  0.5315065265475597  0.8553982114430949  1.0000
  C   C53       1.0  0.7247115476547423  0.5266783619790304  0.8813447650612432  1.0000
  C   C54       1.0  0.7199240302071104  0.5573456574784075  0.909461832132507  1.0000
  C   C55       1.0  0.5428838661239795  0.6588955373310841  0.8092852857430088  1.0000
  C   C56       1.0  0.5373045922284947  0.6318584765071121  0.7775603217209051  1.0000
  C   C57       1.0  0.5637656977756933  0.6017193170512839  0.7858577508992324  1.0000
  C   C58       1.0  0.6492591716580592  0.6870338469614551  0.980671590399197  1.0000
  C   C59       1.0  0.621457535421321  0.7178563644894779  0.9861007248239271  1.0000
  C   C60       1.0  0.5963056744458157  0.714411136442358  0.9527690620253251  1.0000
  C   C61       1.0  0.6806012044298626  0.9373283601176756  0.14271301995834312  1.0000
  C   C62       1.0  0.7018688238199575  0.951015656575429  0.113275219602869  1.0000
  C   C63       1.0  0.7305551812732746  0.9829839001161388  0.11753022516553098  1.0000
  C   C64       1.0  0.7481176505779246  0.9997192678784262  0.08786440765776152  1.0000
  C   C65       1.0  0.3114083215332855  0.5780155361353679  0.6215569580659945  1.0000
  C   C66       1.0  0.29749260194005706  0.5590888185542013  0.6513049666906952  1.0000
  C   C67       1.0  0.26578516159434434  0.5291470895258429  0.649976842763813  1.0000
  C   C68       1.0  0.25489822089085123  0.5051770646838563  0.6189750038475594  1.0000
  C   C69       1.0  0.17959685614918192  0.0631620764019303  0.358356620407953  1.0000
  C   C70       1.0  0.1995168903930846  0.0482440940471918  0.3879466631580327  1.0000
  C   C71       1.0  0.2280265788883895  0.016855289372898603  0.38326549316239766  1.0000
  C   C72       1.0  0.24482900527453927  0.9987733698393556  0.4124445596394536  1.0000
  C   C73       1.0  0.8115913741101438  0.42614141213284995  0.8772182147405586  1.0000
  C   C74       1.0  0.7968976885165021  0.4441585597844194  0.8471760242998554  1.0000
  C   C75       1.0  0.7651011631414167  0.47329623676445454  0.8488569861113858  1.0000
  C   C76       1.0  0.7569451605916273  0.4980304344085268  0.8796775927978543  1.0000
  C   C77       1.0  0.0648117348491581  0.1342423367092636  0.3001163264792907  1.0000
  C   C78       1.0  0.0467374261254463  0.10362735114588871  0.2797842455991173  1.0000
  C   C79       1.0  0.015067237400593604  0.1048484756773433  0.2501910393491613  1.0000
  C   C80       1.0  0.0097357814407744  0.13364784060320292  0.22708522728847663  1.0000
  C   C81       1.0  0.43749614331645864  0.6367731062947257  0.6879990162080103  1.0000
  C   C82       1.0  0.4632707138268374  0.6662349525178114  0.7010226939335167  1.0000
  C   C83       1.0  0.4926549866007124  0.6653864545851248  0.732563735379756  1.0000
  C   C84       1.0  0.5106740060934527  0.6333925331767603  0.7442666818197023  1.0000
  C   C85       1.0  0.9364820621340543  0.3677423104739006  0.8128084003406926  1.0000
  C   C86       1.0  0.9575078152498906  0.3365161601612954  0.7981604777611792  1.0000
  C   C87       1.0  0.9871096190264483  0.3358523261517874  0.76708211816333  1.0000
  C   C88       1.0  0.010878187673597502  0.3660982727549396  0.75781408132179  1.0000
  C   C89       1.0  0.5574103440070887  0.8719573923130711  0.19581892071493456  1.0000
  C   C90       1.0  0.5432575385342346  0.9025658089658253  0.21803220811040797  1.0000
  C   C91       1.0  0.5124372127665283  0.9015734235844591  0.24790177175022168  1.0000
  C   C92       1.0  0.5047168686766312  0.8715480939822556  0.26902776406034684  1.0000
  C   C93       1.0  0.8789491866621192  0.3158087985190862  0.9311458181590238  1.0000
  C   C94       1.0  0.9136181195113267  0.2981648123249627  0.9433804255189883  1.0000
  C   C95       1.0  0.9143315756001442  0.2704931663788416  0.9717909326978426  1.0000
  C   C96       1.0  0.8824435497305531  0.2459235486225282  0.9784841721196499  1.0000
  C   C97       1.0  0.377890371407446  0.6945409270248889  0.5744248505124502  1.0000
  C   C98       1.0  0.34352699787898905  0.7073223920594174  0.5565580696540806  1.0000
  C   C99       1.0  0.3431518804439336  0.7367464396810066  0.5300044869020936  1.0000
  C   C100      1.0  0.3751576565731439  0.7452656356955388  0.5067434550504544  1.0000
  C   C101      1.0  0.6208569244815936  0.8185317867399391  0.07383470099881607  1.0000
  C   C102      1.0  0.5868186603166522  0.7985286168369331  0.05928307281471489  1.0000
  C   C103      1.0  0.5872501111176335  0.7693761947757453  0.0275765941197577  1.0000
  C   C104      1.0  0.6198509461002005  0.7458142031785187  0.01868813310407091  1.0000
  C   C105      1.0  0.1308941551069438  0.18674137261314172  0.42282873840022  1.0000
  C   C106      1.0  0.12455330003672321  0.2245223213808956  0.41948955429931084  1.0000
  C   C107      1.0  0.1265439527630221  0.25445372844001923  0.45047517187275327  1.0000
  C   C108      1.0  0.11564039519024762  0.2500461183280862  0.48714326381185197  1.0000
  N   N1        1.0  0.8158317589793928  0.08333573957636992  0.0780816132336  1.0000
  N   N2        1.0  0.8258362317890828  0.07529799816497733  0.11474092197386199  1.0000
  N   N3        1.0  0.918339372069717  0.12166715575348519  0.16301474847092118  1.0000
  N   N4        1.0  0.9399526821014349  0.1504990104172634  0.1470054631077176  1.0000
  N   N5        1.0  0.8979814412935243  0.18649201439728813  0.0585634831969131  1.0000
  N   N6        1.0  0.8635986155347484  0.1687576143037077  0.0404434933182998  1.0000
  N   N7        1.0  0.18381426611355783  0.42282999112249803  0.6001103502651475  1.0000
  N   N8        1.0  0.17064754203666876  0.43666039702692677  0.6357961377182375  1.0000
  N   N9        1.0  0.0879789611401165  0.3863205292033173  0.6855047618465591  1.0000
  N   N10       1.0  0.0725197128105748  0.351460040757047  0.670204386355941  1.0000
  N   N11       1.0  0.1090346082769997  0.31235745158993933  0.5757136095688435  1.0000
  N   N12       1.0  0.13666729915156142  0.33316373625466167  0.555435883837788  1.0000
  N   N13       1.0  0.3128612886000753  0.9160894992964829  0.41877615642755467  1.0000
  N   N14       1.0  0.3259936995314591  0.9289547589111959  0.3848298636549642  1.0000
  N   N15       1.0  0.4176399786215301  0.8854557001781487  0.33592454574087327  1.0000
  N   N16       1.0  0.43570915955196204  0.8532206561251386  0.3483998382228036  1.0000
  N   N17       1.0  0.3922790605972821  0.811376732255262  0.4328907017888496  1.0000
  N   N18       1.0  0.35808707893171043  0.8278193408416499  0.4511004649197545  1.0000
  N   N19       1.0  0.6869367228753447  0.5788015558213575  0.9007113457748017  1.0000
  N   N20       1.0  0.6693477887860555  0.5626188689124306  0.8671426514129761  1.0000
  N   N21       1.0  0.5836499734040999  0.6103065805775928  0.8195681148084332  1.0000
  N   N22       1.0  0.5705457363493593  0.6458002241368065  0.8341653944536132  1.0000
  N   N23       1.0  0.6081940364229297  0.6839122585284515  0.9296623764268829  1.0000
  N   N24       1.0  0.6410435888702894  0.6667685609830016  0.9470410754153277  1.0000
