data_image0
_chemical_formula_structural       Cu2H26C38N6O8
_chemical_formula_sum              "Cu2 H26 C38 N6 O8"
_cell_length_a       7.744505334572031
_cell_length_b       10.134314528885705
_cell_length_c       12.891822388735694
_cell_angle_alpha    74.93425713457431
_cell_angle_beta     95.77430774167487
_cell_angle_gamma    87.13574123184867

_space_group_name_H-M_alt    "P 1"
_space_group_IT_number       1

loop_
  _space_group_symop_operation_xyz
  'x, y, z'

loop_
  _atom_site_type_symbol
  _atom_site_label
  _atom_site_symmetry_multiplicity
  _atom_site_fract_x
  _atom_site_fract_y
  _atom_site_fract_z
  _atom_site_occupancy
  Cu  Cu1       1.0  0.7273366000530569  0.6538837583371946  0.7174925780837853  1.0000
  Cu  Cu2       1.0  0.2726673042129234  0.3461077104512782  0.2825084370171638  1.0000
  H   H1        1.0  0.5478393646136935  0.8210175538699928  0.4943421901822307  1.0000
  H   H2        1.0  0.45213231045031665  0.1789779361565778  0.5056617188377572  1.0000
  H   H3        1.0  0.5086645765585799  0.7821120813421133  0.30889851655104666  1.0000
  H   H4        1.0  0.4912861164854405  0.21788482964470296  0.69110296527618  1.0000
  H   H5        1.0  0.6398967601127122  0.5590981837014583  0.2848599350701947  1.0000
  H   H6        1.0  0.3600904777051994  0.4409132017379279  0.7151383138975975  1.0000
  H   H7        1.0  0.8064512331160568  0.3914636195849043  0.4416156918094887  1.0000
  H   H8        1.0  0.19354527054913  0.6085564953701735  0.5583753058165187  1.0000
  H   H9        1.0  0.9289722081932151  0.247762672480306  0.5954001733809664  1.0000
  H   H10       1.0  0.07103579364878944  0.7522461237704833  0.4045976612204428  1.0000
  H   H11       1.0  0.017452816909880726  0.09890366668211212  0.7832008710257272  1.0000
  H   H12       1.0  0.9825842719160814  0.9011104193588936  0.21679258299847257  1.0000
  H   H13       1.0  0.9636263507175041  0.18657836148832982  0.943114848170069  1.0000
  H   H14       1.0  0.03640665872025287  0.8134247576099302  0.05688496015418553  1.0000
  H   H15       1.0  0.8927426418503966  0.2927381450048048  0.07223300273955148  1.0000
  H   H16       1.0  0.1072233956062405  0.7072519455591362  0.9277634753700995  1.0000
  H   H17       1.0  0.7849786962354341  0.4230450181601739  0.19071951318242242  1.0000
  H   H18       1.0  0.21500593588233838  0.5769416980389935  0.809280566332987  1.0000
  H   H19       1.0  0.6414603635061551  0.6640143176584773  0.108145444856774  1.0000
  H   H20       1.0  0.3585480770135374  0.3359763275282433  0.8918620997234543  1.0000
  H   H21       1.0  0.6142788540240854  0.7579292279666917  0.9049667911749424  1.0000
  H   H22       1.0  0.3857138000286041  0.24206378101303028  0.09503901607105551  1.0000
  H   H23       1.0  0.36304465786498236  0.02685106481248311  0.656135876264223  1.0000
  H   H24       1.0  0.636977366759815  0.9731463180598469  0.343868104894348  1.0000
  H   H25       1.0  0.0525144255662084  0.030450110298986022  0.6081194642885921  1.0000
  H   H26       1.0  0.9475160501716641  0.9695499232136631  0.39187944755364873  1.0000
  C   C1        1.0  0.6016508688858904  0.7275101171999127  0.47878891865070744  1.0000
  C   C2        1.0  0.39832095555044583  0.2724875650943446  0.5212175900310569  1.0000
  C   C3        1.0  0.5826477232202973  0.7052700537726793  0.375969220045093  1.0000
  C   C4        1.0  0.417311537715818  0.29472389759331463  0.6240393957250066  1.0000
  C   C5        1.0  0.6565847024694659  0.5836827651474793  0.3623093077786665  1.0000
  C   C6        1.0  0.34339563564090264  0.41631442357455484  0.6376913155506403  1.0000
  C   C7        1.0  0.7481501110725332  0.48751046304057183  0.4508735286711244  1.0000
  C   C8        1.0  0.2518393526066871  0.5124964431892565  0.549118830554882  1.0000
  C   C9        1.0  0.7583118820494119  0.5154829907174021  0.5515123033679146  1.0000
  C   C10       1.0  0.24168319195544535  0.4845197741956826  0.4484827260676597  1.0000
  C   C11       1.0  0.8341796306539347  0.4173854289040266  0.6534934239106536  1.0000
  C   C12       1.0  0.16582411245989442  0.5826211548777139  0.3464993777677492  1.0000
  C   C13       1.0  0.9099058480034542  0.2849057063931042  0.6661918440399506  1.0000
  C   C14       1.0  0.09010063468093676  0.7151008908562133  0.3338025798126126  1.0000
  C   C15       1.0  0.9588304920630433  0.20269739037225082  0.7714106194943611  1.0000
  C   C16       1.0  0.04118961909958328  0.7973064398305426  0.22857625109988797  1.0000
  C   C17       1.0  0.9296311258098694  0.25107407352241756  0.8608733502731882  1.0000
  C   C18       1.0  0.07038327077894015  0.7489260594210378  0.13911968284478604  1.0000
  C   C19       1.0  0.8551465514227841  0.3848804265038482  0.8426376645590496  1.0000
  C   C20       1.0  0.14484583419827146  0.6151187988064565  0.15736823303093675  1.0000
  C   C21       1.0  0.8057624571323313  0.4534890213194558  0.9244343415210425  1.0000
  C   C22       1.0  0.19422811968035344  0.5465068007137862  0.07556453289680577  1.0000
  C   C23       1.0  0.8283878361199725  0.39487720859614234  0.03599640483953691  1.0000
  C   C24       1.0  0.17158699859884752  0.6051114724979672  0.9639967424074387  1.0000
  C   C25       1.0  0.7698986619955829  0.47028440892063383  0.10378652875687784  1.0000
  C   C26       1.0  0.2300868413547334  0.5297031217681794  0.8962094947634399  1.0000
  C   C27       1.0  0.6900919023257327  0.6020989197191399  0.05803044151578261  1.0000
  C   C28       1.0  0.3099012677164906  0.3978957836005749  0.9419679843812079  1.0000
  C   C29       1.0  0.6737178640698288  0.6553300857686679  0.9460916422037968  1.0000
  C   C30       1.0  0.32627539581507375  0.3446710141178785  0.05391072835784174  1.0000
  C   C31       1.0  0.4224609141384617  0.8053224108768051  0.688747031511305  1.0000
  C   C32       1.0  0.5775571148782034  0.19466828144641823  0.3112661906784667  1.0000
  C   C33       1.0  0.30278356247862337  0.9308996998875404  0.6617162988438354  1.0000
  C   C34       1.0  0.6972589668325424  0.06910449038657873  0.3382889451925948  1.0000
  C   C35       1.0  0.12989130820119493  0.9318669632313715  0.6370970506199571  1.0000
  C   C36       1.0  0.8701296840389072  0.06814472014458772  0.36290277311115926  1.0000
  C   C37       1.0  0.02772473320636951  0.8098432292133709  0.637524755119202  1.0000
  C   C38       1.0  0.9722849754761068  0.1901583334012713  0.36247404212267054  1.0000
  N   N1        1.0  0.6856759823935761  0.6344834597751117  0.564098684797763  1.0000
  N   N2        1.0  0.31431358290814854  0.36551253576058684  0.43590323285367566  1.0000
  N   N3        1.0  0.8148726458392087  0.463610974351589  0.7407735334245944  1.0000
  N   N4        1.0  0.18512428134715003  0.5363856891064388  0.25922452934646867  1.0000
  N   N5        1.0  0.7300255226744593  0.5828017371880706  0.8813769161372208  1.0000
  N   N6        1.0  0.2699696711407212  0.41719647755046213  0.11863084552429372  1.0000
  O   O1        1.0  0.588014319795256  0.8267602480527216  0.6982831032999783  1.0000
  O   O2        1.0  0.4120049326656598  0.1732293188231893  0.30172885928185184  1.0000
  O   O3        1.0  0.3685383449055448  0.688661500624221  0.6981333000510476  1.0000
  O   O4        1.0  0.6314728685290516  0.311340818982643  0.30188168533761944  1.0000
  O   O5        1.0  0.96294063334912  0.7585718191599186  0.7254770318821289  1.0000
  O   O6        1.0  0.0370647301391998  0.2414437421127928  0.27450981884508263  1.0000
  O   O7        1.0  0.00467194218508381  0.7747567757826134  0.5507357094066451  1.0000
  O   O8        1.0  0.9953509509863491  0.2252619091001193  0.4492601888963038  1.0000
