data_image0
_chemical_formula_structural       La4H16C8S4O32
_chemical_formula_sum              "La4 H16 C8 S4 O32"
_cell_length_a       6.545627630623184
_cell_length_b       9.726014185225127
_cell_length_c       10.937915206147702
_cell_angle_alpha    89.99983057971947
_cell_angle_beta     89.99945749405234
_cell_angle_gamma    97.41757978959798

_space_group_name_H-M_alt    "P 1"
_space_group_IT_number       1

loop_
  _space_group_symop_operation_xyz
  'x, y, z'

loop_
  _atom_site_type_symbol
  _atom_site_label
  _atom_site_symmetry_multiplicity
  _atom_site_fract_x
  _atom_site_fract_y
  _atom_site_fract_z
  _atom_site_occupancy
  La  La1       1.0  0.3304220924761054  0.8909493513300859  0.8429245223084081  1.0000
  La  La2       1.0  0.1695742429744271  0.6090534782804369  0.34292238610950676  1.0000
  La  La3       1.0  0.6695635976507932  0.10904873271047678  0.15707817450071096  1.0000
  La  La4       1.0  0.8304288261224573  0.39094782151533275  0.6570757393912742  1.0000
  H   H1        1.0  0.20902861437633655  0.1877987088826529  0.8035005457845443  1.0000
  H   H2        1.0  0.29096828479301007  0.3122030837262741  0.30349627431586157  1.0000
  H   H3        1.0  0.7909652776042508  0.8122025334399439  0.19650489375028  1.0000
  H   H4        1.0  0.7090347842501289  0.6877982160542188  0.6965082509419744  1.0000
  H   H5        1.0  0.3791806296243295  0.19649957704237409  0.905539608963373  1.0000
  H   H6        1.0  0.12081590049569262  0.3035007010685149  0.4055372353457328  1.0000
  H   H7        1.0  0.6208127080559792  0.8034985548801216  0.0944621735730848  1.0000
  H   H8        1.0  0.8791860085999732  0.696502662744095  0.5944663756616464  1.0000
  H   H9        1.0  0.9925965267523439  0.6318793094960924  0.8924443146663562  1.0000
  H   H10       1.0  0.5074077070365989  0.8681195154082317  0.39244698223059515  1.0000
  H   H11       1.0  0.007400054715574788  0.3681198783790761  0.107558382110561  1.0000
  H   H12       1.0  0.4925959675923225  0.1318766099225783  0.607562114287397  1.0000
  H   H13       1.0  0.11064449834890411  0.6564151121168181  0.017550613120370397  1.0000
  H   H14       1.0  0.38935753784689814  0.8435820231931856  0.5175534557306846  1.0000
  H   H15       1.0  0.889360890627579  0.3435820596103554  0.9824511693833387  1.0000
  H   H16       1.0  0.6106381196899805  0.1564119806541626  0.4824547265617198  1.0000
  C   C1        1.0  0.5234783462166349  0.6047918246807669  0.9773841645432312  1.0000
  C   C2        1.0  0.9765299733881893  0.8952118073489713  0.4773886833448343  1.0000
  C   C3        1.0  0.47652680685089893  0.39521259513689694  0.022598418680424  1.0000
  C   C4        1.0  0.023471566245611093  0.10478948288395167  0.5226039566542369  1.0000
  C   C5        1.0  0.6218757177719144  0.482754311263932  0.9438794909804213  1.0000
  C   C6        1.0  0.8781382602949322  0.0172431097889856  0.44388099063119313  1.0000
  C   C7        1.0  0.37813536852449664  0.51724911004586  0.0561067492318301  1.0000
  C   C8        1.0  0.12186559925685714  0.9827540523862411  0.5561107351157517  1.0000
  S   S1        1.0  0.8065115697473076  0.0332294891365166  0.8223372049217375  1.0000
  S   S2        1.0  0.6934858594743647  0.46677564545229433  0.3223376475252167  1.0000
  S   S3        1.0  0.19348329743446868  0.9667686523597466  0.17766549186139705  1.0000
  S   S4        1.0  0.3065183182768082  0.5332318751589611  0.6776613922152421  1.0000
  O   O1        1.0  0.6663121309802378  0.9626179435159726  0.7281154950772403  1.0000
  O   O2        1.0  0.8336872152050037  0.537381618229304  0.22811719255496138  1.0000
  O   O3        1.0  0.3336747191018149  0.037378076494647396  0.2718872017313245  1.0000
  O   O4        1.0  0.16631566911488702  0.4626186447635234  0.7718809329477094  1.0000
  O   O5        1.0  0.6779942660741869  0.0321625814829289  0.9371153833926157  1.0000
  O   O6        1.0  0.8219976220752375  0.4678388754451817  0.4371160118630397  1.0000
  O   O7        1.0  0.3219975420892994  0.9678355408614436  0.06288731339918029  1.0000
  O   O8        1.0  0.17800465660512546  0.5321665619820521  0.5628839421365299  1.0000
  O   O9        1.0  0.9826864703148744  0.9562966937870597  0.8425550659540875  1.0000
  O   O10       1.0  0.517311877759795  0.5437075055014162  0.3425521332112353  1.0000
  O   O11       1.0  0.0173087664055345  0.04370352131072509  0.1574494593272888  1.0000
  O   O12       1.0  0.4826907704822363  0.4563000055338904  0.6574469065335504  1.0000
  O   O13       1.0  0.8811490788693989  0.17877327160537956  0.7878869101236033  1.0000
  O   O14       1.0  0.618848005098201  0.32122684348798447  0.2878835866282614  1.0000
  O   O15       1.0  0.11884462835722333  0.8212269339208264  0.21211578666008526  1.0000
  O   O16       1.0  0.38115102976384213  0.6787775379778508  0.7121191101348855  1.0000
  O   O17       1.0  0.5526982008758383  0.7325011742152014  0.9529532982622654  1.0000
  O   O18       1.0  0.9473094204299316  0.76749635367333  0.45295283327044433  1.0000
  O   O19       1.0  0.44730463217389643  0.2675073736317728  0.0470420844766011  1.0000
  O   O20       1.0  0.0526898505483544  0.2325007797609473  0.5470443779955403  1.0000
  O   O21       1.0  0.7730850192509282  0.45986886773122376  0.8783190687814865  1.0000
  O   O22       1.0  0.7269159247804211  0.04012670660281969  0.3783204475858426  1.0000
  O   O23       1.0  0.22693236980531856  0.5401356286700434  0.12167357116860698  1.0000
  O   O24       1.0  0.2730824222898534  0.9598652428101956  0.6216795064426179  1.0000
  O   O25       1.0  0.3420517022176882  0.1571116039630027  0.8236740734631237  1.0000
  O   O26       1.0  0.1579479171537486  0.3428901114638875  0.32366955785364837  1.0000
  O   O27       1.0  0.6579431649564146  0.8428865375310864  0.1763295375710214  1.0000
  O   O28       1.0  0.8420541767265849  0.6571142891538527  0.6763331389008299  1.0000
  O   O29       1.0  0.07888032424662578  0.7021335995076042  0.9406589140498907  1.0000
  O   O30       1.0  0.4211180343640067  0.7978636081014656  0.4406585168352066  1.0000
  O   O31       1.0  0.9211126438643334  0.29786245880463713  0.0593446969923619  1.0000
  O   O32       1.0  0.5788770175947705  0.2021355701977541  0.5593441799460379  1.0000
