data_image0
_chemical_formula_structural       Zn2H32C52N6O12F18
_chemical_formula_sum              "Zn2 H32 C52 N6 O12 F18"
_cell_length_a       16.203142641959445
_cell_length_b       17.089862673558187
_cell_length_c       17.06187165998002
_cell_angle_alpha    91.19110199973699
_cell_angle_beta     90.5775675468626
_cell_angle_gamma    94.91220362247702

_space_group_name_H-M_alt    "P 1"
_space_group_IT_number       1

loop_
  _space_group_symop_operation_xyz
  'x, y, z'

loop_
  _atom_site_type_symbol
  _atom_site_label
  _atom_site_symmetry_multiplicity
  _atom_site_fract_x
  _atom_site_fract_y
  _atom_site_fract_z
  _atom_site_occupancy
  Zn  Zn1       1.0  0.4148819438938531  0.4959901891956664  0.4989417317622084  1.0000
  Zn  Zn2       1.0  0.5927786764924647  0.4888957214421127  0.49600208310581434  1.0000
  H   H1        1.0  0.4210247617792362  0.6473040520493857  0.8742306578004457  1.0000
  H   H2        1.0  0.5931911650788351  0.5055407134742256  0.09206161067412205  1.0000
  H   H3        1.0  0.4694974818990758  0.8947715536997835  0.4050924340917773  1.0000
  H   H4        1.0  0.5564703767465106  0.09979481989243061  0.6049139938362555  1.0000
  H   H5        1.0  0.7018755083213364  0.5176307710195546  0.29852704460989793  1.0000
  H   H6        1.0  0.6972904969321906  0.5453730560592904  0.19831932162895063  1.0000
  H   H7        1.0  0.7577293052075336  0.39086298959094296  0.25524038902231877  1.0000
  H   H8        1.0  0.7525711632995923  0.41946763402698667  0.15641188262565459  1.0000
  H   H9        1.0  0.8551547943017398  0.5367691165339893  0.18658149256905424  1.0000
  H   H10       1.0  0.8976118413011633  0.447999482328001  0.21127818280752556  1.0000
  H   H11       1.0  0.8601254527746462  0.5088813365313103  0.28595199466906956  1.0000
  H   H12       1.0  0.27224248268657913  0.6223923388619498  0.7161623368195789  1.0000
  H   H13       1.0  0.30720017427486823  0.6104896701847553  0.8139416380927356  1.0000
  H   H14       1.0  0.3076695655118088  0.48658405528929194  0.6810639539694632  1.0000
  H   H15       1.0  0.347080312172082  0.47543433209567354  0.7762939904852428  1.0000
  H   H16       1.0  0.20579790385483682  0.48953379611864295  0.8337764440318549  1.0000
  H   H17       1.0  0.20282266667738472  0.4101122689269802  0.7649319638375045  1.0000
  H   H18       1.0  0.16423223581519864  0.5001520213744686  0.7382702063609086  1.0000
  H   H19       1.0  0.6759842419865265  0.2817802557058329  0.4690400249589856  1.0000
  H   H20       1.0  0.7564722912130366  0.27644720041472953  0.3975250660597708  1.0000
  H   H21       1.0  0.5723741753820378  0.2889047037644873  0.36174367292746007  1.0000
  H   H22       1.0  0.6501170685945113  0.2838560202249597  0.2905635341037821  1.0000
  H   H23       1.0  0.6788826822933062  0.14838911453119863  0.3370509097453079  1.0000
  H   H24       1.0  0.5736486924091369  0.15063166986809057  0.30818585504882623  1.0000
  H   H25       1.0  0.6011619343281468  0.15366851700300543  0.40916770083416043  1.0000
  H   H26       1.0  0.35632450363149804  0.7298874599563308  0.5839972484071294  1.0000
  H   H27       1.0  0.24827848027397445  0.7144450888865421  0.6034442195334007  1.0000
  H   H28       1.0  0.3266563465127632  0.7221497040905832  0.4400875909771073  1.0000
  H   H29       1.0  0.21902427710326583  0.7067924535867791  0.457417912682807  1.0000
  H   H30       1.0  0.220529606725087  0.8393045805667542  0.5255874029167983  1.0000
  H   H31       1.0  0.25829442311680856  0.8483439893703493  0.4286628726132092  1.0000
  H   H32       1.0  0.3286798598883394  0.8560616272773915  0.5089682753405781  1.0000
  C   C1        1.0  0.4786202498776079  0.3426689673670893  0.5177818972718098  1.0000
  C   C2        1.0  0.5283705790497849  0.6432014634140658  0.48369084032216836  1.0000
  C   C3        1.0  0.4693139364136983  0.2540418593172191  0.5194892997243412  1.0000
  C   C4        1.0  0.529525563405258  0.7308452797311419  0.49549921616451076  1.0000
  C   C5        1.0  0.5178377954622704  0.21159489876134785  0.5693358915072222  1.0000
  C   C6        1.0  0.5000898857251813  0.7795911124572826  0.4381467556943689  1.0000
  C   C7        1.0  0.5173247935927635  0.13097807050004923  0.5662444819339709  1.0000
  C   C8        1.0  0.4928614909703485  0.8585347517282005  0.4506174708859304  1.0000
  C   C9        1.0  0.46651143227812514  0.08811732121119321  0.5099659081959087  1.0000
  C   C10       1.0  0.5159646152355037  0.892927060414877  0.52429478976714  1.0000
  C   C11       1.0  0.4156109017579583  0.1286687990549353  0.46070103781407556  1.0000
  C   C12       1.0  0.5478752287622373  0.8461814218271828  0.582186500070655  1.0000
  C   C13       1.0  0.417270816822068  0.210421704132891  0.46609821271307067  1.0000
  C   C14       1.0  0.5540175712563883  0.7662566825948076  0.5674565953062041  1.0000
  C   C15       1.0  0.7733674006634105  0.5301509791384263  0.5399732204394636  1.0000
  C   C16       1.0  0.23417792634624135  0.44275767784498044  0.46773229765541646  1.0000
  C   C17       1.0  0.8593052048343566  0.5299146575680995  0.5393405234362161  1.0000
  C   C18       1.0  0.1481715530270975  0.44055762751573735  0.46989290657673866  1.0000
  C   C19       1.0  0.894965882041767  0.4758253352056983  0.48919003081977036  1.0000
  C   C20       1.0  0.11256695009056022  0.5035143438747272  0.5072022826891497  1.0000
  C   C21       1.0  0.8400211679426876  0.4238303419849104  0.4447468701169867  1.0000
  C   C22       1.0  0.1665487344242962  0.5657142240522292  0.5374006069653843  1.0000
  C   C23       1.0  0.49637370779013434  0.48720528910095606  0.3494355083463673  1.0000
  C   C24       1.0  0.515274588471641  0.527481118471556  0.6441376102362566  1.0000
  C   C25       1.0  0.7539454885987168  0.4263236115382654  0.4496025289474871  1.0000
  C   C26       1.0  0.2527447785901202  0.5657948861483035  0.5298006681681782  1.0000
  C   C27       1.0  0.489266748427788  0.5089978359763522  0.2649788333739379  1.0000
  C   C28       1.0  0.5239635737509758  0.5567302840226774  0.7278956470270967  1.0000
  C   C29       1.0  0.5512649586086557  0.494661795683605  0.21013420250325507  1.0000
  C   C30       1.0  0.4624758508769915  0.5972708385409576  0.7667513224843956  1.0000
  C   C31       1.0  0.5460310379707068  0.5202298417564819  0.13355300594625413  1.0000
  C   C32       1.0  0.4692672543634446  0.6163069734766183  0.8465949671344999  1.0000
  C   C33       1.0  0.47987766652614994  0.5616267605478101  0.10809265241528718  1.0000
  C   C34       1.0  0.5363808474469283  0.5962573597522226  0.8921245115373819  1.0000
  C   C35       1.0  0.4184440735389643  0.5761900700643992  0.16223789314599904  1.0000
  C   C36       1.0  0.599737600719486  0.560761965247167  0.8534114560639734  1.0000
  C   C37       1.0  0.4228482774173727  0.5495275100398944  0.2388026757004126  1.0000
  C   C38       1.0  0.593619385314554  0.5418819577190774  0.773633763810949  1.0000
  C   C39       1.0  0.4737121120868936  0.5807779106477826  0.0254151480607874  1.0000
  C   C40       1.0  0.537222260140375  0.6028187471920108  0.977508152947706  1.0000
  C   C41       1.0  0.6952364723611595  0.4947857346370983  0.23762388847690363  1.0000
  C   C42       1.0  0.7627654237222856  0.4420024935434769  0.21696825151210664  1.0000
  C   C43       1.0  0.8485711286173157  0.486248755440812  0.2256221549603054  1.0000
  C   C44       1.0  0.3155122258622286  0.5920753007436163  0.7522898445452241  1.0000
  C   C45       1.0  0.2994253294286013  0.5032769297428532  0.7428408577356007  1.0000
  C   C46       1.0  0.2133832798892712  0.4742679888625149  0.7714575954425411  1.0000
  C   C47       1.0  0.6950707733659485  0.29676846588829875  0.4090871004814146  1.0000
  C   C48       1.0  0.6312029815717467  0.2639184498352806  0.34910640534612  1.0000
  C   C49       1.0  0.620778355227003  0.17424381476791245  0.3510588778565803  1.0000
  C   C50       1.0  0.2965785784520636  0.7039518181724634  0.5607038177778276  1.0000
  C   C51       1.0  0.27759329241084174  0.7361211192065867  0.48083595007097557  1.0000
  C   C52       1.0  0.27086935554199704  0.8248071242382057  0.4865292118896745  1.0000
  N   N1        1.0  0.46643529060813904  0.0071374411598839  0.49569519439314985  1.0000
  N   N2        1.0  0.5107555917326962  0.972420775895714  0.5435450446334755  1.0000
  N   N3        1.0  0.722873356419754  0.48038556351235684  0.4972959179347141  1.0000
  N   N4        1.0  0.28422137025132344  0.5024717401918295  0.49609209441566526  1.0000
  N   N5        1.0  0.9794647760965279  0.4740948112437452  0.47221510616257223  1.0000
  N   N6        1.0  0.0281972869204026  0.5052886481816047  0.5246232739188199  1.0000
  O   O1        1.0  0.4152625027527749  0.37864642671395643  0.5315600563266186  1.0000
  O   O2        1.0  0.5954349805745809  0.6126540597292021  0.49592922572452364  1.0000
  O   O3        1.0  0.550724251874705  0.37116649478004166  0.5002004065697745  1.0000
  O   O4        1.0  0.45805850623253264  0.6092705500034373  0.4650257986644632  1.0000
  O   O5        1.0  0.4300964566270409  0.46397367793045435  0.38439685105851135  1.0000
  O   O6        1.0  0.5784696798183905  0.5006464076671906  0.6132679740853175  1.0000
  O   O7        1.0  0.5686046190064715  0.4965708517597136  0.37962562784407067  1.0000
  O   O8        1.0  0.4454129191589402  0.5307357145986061  0.6103118934147955  1.0000
  O   O9        1.0  0.6150190592088194  0.45076782709346475  0.23015161153200833  1.0000
  O   O10       1.0  0.3965006152831877  0.6208388345313411  0.7252294669635688  1.0000
  O   O11       1.0  0.6995567616675943  0.3826843463308764  0.40430347597928307  1.0000
  O   O12       1.0  0.309470290326999  0.6203588247170374  0.557343994039158  1.0000
  F   F1        1.0  0.2688823348471132  0.38245760609127905  0.43484019709024563  1.0000
  F   F2        1.0  0.7397587744472107  0.5826735111567062  0.5855698135431665  1.0000
  F   F3        1.0  0.10219132919138468  0.37711303280270414  0.4412097627869115  1.0000
  F   F4        1.0  0.9049847237646348  0.5837082920424522  0.583129827102347  1.0000
  F   F5        1.0  0.8709041745550298  0.37223744542463794  0.39463038463968286  1.0000
  F   F6        1.0  0.1338557988821023  0.6261506150141546  0.5747870214977693  1.0000
  F   F7        1.0  0.6570361389191958  0.504628657719529  0.7443266959972659  1.0000
  F   F8        1.0  0.3617492316170967  0.5673559239707447  0.2877046797113962  1.0000
  F   F9        1.0  0.6125741350025679  0.6239946319185851  0.012073195413869104  1.0000
  F   F10       1.0  0.3968666621594679  0.5637633413320987  0.9920589861289668  1.0000
  F   F11       1.0  0.3538960192946875  0.6172116353784675  0.14169421860866993  1.0000
  F   F12       1.0  0.6663636513919188  0.5387771530434408  0.8935463314831222  1.0000
  F   F13       1.0  0.4780530157479604  0.7468766027601533  0.3667493963323593  1.0000
  F   F14       1.0  0.5682817568393973  0.2528541277731621  0.6226337273268923  1.0000
  F   F15       1.0  0.36601498779312186  0.0899490219816101  0.40617398742379857  1.0000
  F   F16       1.0  0.570755470401302  0.8768179222347926  0.653361911761685  1.0000
  F   F17       1.0  0.36976199191264675  0.24707079200639728  0.4154943157594672  1.0000
  F   F18       1.0  0.5818514701627464  0.7230200750987735  0.6259134218826217  1.0000
