data_image0
_chemical_formula_structural       U2H40C30N2O12
_chemical_formula_sum              "U2 H40 C30 N2 O12"
_cell_length_a       8.091537924151174
_cell_length_b       9.187801932393112
_cell_length_c       12.76817454193978
_cell_angle_alpha    108.30861702529505
_cell_angle_beta     98.07042196690517
_cell_angle_gamma    105.26767678343663

_space_group_name_H-M_alt    "P 1"
_space_group_IT_number       1

loop_
  _space_group_symop_operation_xyz
  'x, y, z'

loop_
  _atom_site_type_symbol
  _atom_site_label
  _atom_site_symmetry_multiplicity
  _atom_site_fract_x
  _atom_site_fract_y
  _atom_site_fract_z
  _atom_site_occupancy
  U   U1        1.0  0.3375800702708532  0.48750996089698634  0.17659909343171887  1.0000
  U   U2        1.0  0.6624207239293725  0.5124914586665811  0.8234027810200718  1.0000
  H   H1        1.0  0.206182218674158  0.10053088697338812  0.175694932591739  1.0000
  H   H2        1.0  0.793815292281046  0.8994644305167655  0.8243045238283884  1.0000
  H   H3        1.0  0.598793048340724  0.5093956920027127  0.4105283085589875  1.0000
  H   H4        1.0  0.4012040202908763  0.49060203384215845  0.5894724260147086  1.0000
  H   H5        1.0  0.7004994247664769  0.35059540931401056  0.515306171592762  1.0000
  H   H6        1.0  0.2995018420301038  0.6493999703100644  0.48469205688676453  1.0000
  H   H7        1.0  0.2950522016616263  0.921589427086545  0.2676551455522117  1.0000
  H   H8        1.0  0.7049544820786622  0.07840725513401033  0.7323422732402564  1.0000
  H   H9        1.0  0.5593545923416912  0.9040782653549115  0.39904076056829035  1.0000
  H   H10       1.0  0.44065036975075594  0.09592443957264152  0.6009609756080252  1.0000
  H   H11       1.0  0.6974453097911419  0.08282980994838603  0.5134107902334506  1.0000
  H   H12       1.0  0.30256298740492577  0.9171717234465646  0.48658784204301503  1.0000
  H   H13       1.0  0.9551797411029455  0.6468691913317886  0.4128812033026747  1.0000
  H   H14       1.0  0.04482302227043529  0.3531419029116236  0.5871229832345648  1.0000
  H   H15       1.0  0.8132486102734402  0.5628986657312823  0.27616562259958505  1.0000
  H   H16       1.0  0.1867563389200626  0.4371076916539851  0.7238400539836719  1.0000
  H   H17       1.0  0.8390976538542674  0.8503958269349996  0.3836069026544493  1.0000
  H   H18       1.0  0.1609013839504954  0.14961157358971633  0.616396144004689  1.0000
  H   H19       1.0  0.06339220205102691  0.9162873011340198  0.3822057414919657  1.0000
  H   H20       1.0  0.9366068183799213  0.08372007851776428  0.6177957325789336  1.0000
  H   H21       1.0  0.7628922497737847  0.7347334360292734  0.16558900244289992  1.0000
  H   H22       1.0  0.2371103095088074  0.26526201300961827  0.8344124860956655  1.0000
  H   H23       1.0  0.9843123464585587  0.8299629627098571  0.17227790361003775  1.0000
  H   H24       1.0  0.015688465115474098  0.1700384777266422  0.8277255434299988  1.0000
  H   H25       1.0  0.9509446060252954  0.10016622274230258  0.2947040780556307  1.0000
  H   H26       1.0  0.04904654253066807  0.8998325358055439  0.705293240299831  1.0000
  H   H27       1.0  0.7247761298743427  0.9935670316491643  0.2687274210776496  1.0000
  H   H28       1.0  0.2752167577032694  0.006425725064616499  0.7312671524822179  1.0000
  H   H29       1.0  0.9251166023987166  0.0433842079640741  0.0888940161267655  1.0000
  H   H30       1.0  0.07488214892107695  0.9566111163221012  0.9111039825876546  1.0000
  H   H31       1.0  0.7060455568668473  0.9162634821707487  0.05528013364223484  1.0000
  H   H32       1.0  0.2939498159148001  0.08373296146570651  0.9447170375014194  1.0000
  H   H33       1.0  0.6159220987877206  0.14902305022294376  0.16143581614137056  1.0000
  H   H34       1.0  0.3840778713108079  0.8509759228804938  0.8385638789801746  1.0000
  H   H35       1.0  0.836689106450322  0.27813412338120713  0.2050781130739381  1.0000
  H   H36       1.0  0.16331130597180277  0.7218624413675131  0.7949203038940311  1.0000
  H   H37       1.0  0.843824281420616  0.25197708158643206  0.006356650547410019  1.0000
  H   H38       1.0  0.1561744222526116  0.7480218534115936  0.9936421433974659  1.0000
  H   H39       1.0  0.6385214314051169  0.09752540330795512  0.952899346078368  1.0000
  H   H40       1.0  0.3614764655402212  0.9024711061028656  0.047098841124508864  1.0000
  C   C1        1.0  0.31493726148336515  0.15087768945815583  0.2514487450457352  1.0000
  C   C2        1.0  0.6850594124711976  0.8491188340295752  0.7485524724510882  1.0000
  C   C3        1.0  0.5339786319496868  0.37899732739785463  0.3825769855228316  1.0000
  C   C4        1.0  0.466021329461931  0.6210016352691242  0.6174219233045903  1.0000
  C   C5        1.0  0.5906698063012995  0.2885656905902962  0.43996289257928833  1.0000
  C   C6        1.0  0.40933180752575987  0.7114345021027617  0.5600356482075597  1.0000
  C   C7        1.0  0.36507700611652893  0.051920347204344415  0.3035360002267283  1.0000
  C   C8        1.0  0.6349246640439927  0.9480762452133361  0.6964625316237942  1.0000
  C   C9        1.0  0.5057956316603196  0.1208478064374319  0.4008378865403159  1.0000
  C   C10       1.0  0.49420767354182965  0.8791499951334033  0.5991587046813791  1.0000
  C   C11       1.0  0.5613872003277223  0.0189884742838586  0.4613070105350375  1.0000
  C   C12       1.0  0.4386189934424038  0.9810142270032571  0.5386924816414549  1.0000
  C   C13       1.0  0.08058224850271498  0.5997337574228467  0.2776441902264893  1.0000
  C   C14       1.0  0.9194222496802807  0.40027499788067195  0.7223619782162132  1.0000
  C   C15       1.0  0.9406400887731792  0.6555657022990147  0.3282473621009458  1.0000
  C   C16       1.0  0.05936353766155385  0.3444442172562179  0.6717574222419671  1.0000
  C   C17       1.0  0.9348844526660115  0.8231178965463997  0.3336765009668241  1.0000
  C   C18       1.0  0.0651158341902374  0.1768895212107964  0.6663258742807443  1.0000
  C   C19       1.0  0.880832145373148  0.8384222321504141  0.21888855976279595  1.0000
  C   C20       1.0  0.11916617230994579  0.16157551092693723  0.7811115033993232  1.0000
  C   C21       1.0  0.8406408057838914  0.9958083156956336  0.23225634732678202  1.0000
  C   C22       1.0  0.15935955030476381  0.004191849328478306  0.7677420785775199  1.0000
  C   C23       1.0  0.8049275877601971  0.025582344340314502  0.12127844832511411  1.0000
  C   C24       1.0  0.19506863070899527  0.974412903735029  0.8787177480359672  1.0000
  C   C25       1.0  0.7412890286607733  0.17144864085776124  0.13530358630566747  1.0000
  C   C26       1.0  0.25871010864914706  0.8285478753490807  0.8646931431915093  1.0000
  C   C27       1.0  0.7165759010348083  0.20858948126841884  0.02694148575946542  1.0000
  C   C28       1.0  0.28342154490002264  0.7914094260606533  0.9730571933028643  1.0000
  C   C29       1.0  0.6219587369218048  0.3299337597112526  0.027298964992283542  1.0000
  C   C30       1.0  0.37803747733534726  0.6700651512582639  0.9727019580698624  1.0000
  N   N1        1.0  0.3974258915557484  0.31262824461195754  0.28978342833946164  1.0000
  N   N2        1.0  0.6025703227014034  0.687370666357559  0.7102174947226843  1.0000
  O   O1        1.0  0.5118659129071048  0.6506735286401693  0.2905814903741515  1.0000
  O   O2        1.0  0.48813121205796506  0.3493205969293173  0.7094192352632263  1.0000
  O   O3        1.0  0.1637254893497939  0.3159220897224558  0.06932309110523963  1.0000
  O   O4        1.0  0.8362682094305709  0.6840767659091539  0.930677602191814  1.0000
  O   O5        1.0  0.14510813864743  0.6523187498648825  0.20513651267802407  1.0000
  O   O6        1.0  0.8549084643231523  0.347696322067641  0.7948744505624318  1.0000
  O   O7        1.0  0.13621890767444716  0.49497187025556155  0.3052853471262011  1.0000
  O   O8        1.0  0.8637780743509326  0.5050330874494621  0.6947177642025153  1.0000
  O   O9        1.0  0.5517316977452751  0.3799692295673226  0.1085745938810518  1.0000
  O   O10       1.0  0.44826661125091494  0.6200285030735628  0.8914246829869513  1.0000
  O   O11       1.0  0.6124418230851275  0.377030677435478  0.9433296415252812  1.0000
  O   O12       1.0  0.38755556651624096  0.6229718301689787  0.05666904647337393  1.0000
