data_image0
_chemical_formula_structural       ZnSiH12C24N4F10
_chemical_formula_sum              "Zn1 Si1 H12 C24 N4 F10"
_cell_length_a       7.657779480954557
_cell_length_b       14.041173340156316
_cell_length_c       14.041133821394663
_cell_angle_alpha    90.00177201995177
_cell_angle_beta     89.95398779768435
_cell_angle_gamma    89.95448098758503

_space_group_name_H-M_alt    "P 1"
_space_group_IT_number       1

loop_
  _space_group_symop_operation_xyz
  'x, y, z'

loop_
  _atom_site_type_symbol
  _atom_site_label
  _atom_site_symmetry_multiplicity
  _atom_site_fract_x
  _atom_site_fract_y
  _atom_site_fract_z
  _atom_site_occupancy
  Zn  Zn1       1.0  0.5000102898296178  0.49999847996063806  0.5000001379991659  1.0000
  Si  Si1       1.0  1.0175068780400141e-05  0.500004486338291  0.4999966351950178  1.0000
  H   H1        1.0  0.230355956052442  0.6629518765053319  0.5000450877836542  1.0000
  H   H2        1.0  0.21842672542525324  0.8399467945099417  0.5000276498386285  1.0000
  H   H3        1.0  0.7758593653330764  0.6640912277704912  0.4999503745597665  1.0000
  H   H4        1.0  0.22416514988513822  0.3359142770876177  0.5000171398234698  1.0000
  H   H5        1.0  0.7696776027042561  0.3370443701078756  0.5000634387484482  1.0000
  H   H6        1.0  0.7815911808056485  0.1600387724004548  0.5000673482686011  1.0000
  H   H7        1.0  0.2303585686995007  0.5000705718821054  0.6629532018298221  1.0000
  H   H8        1.0  0.21842926570784732  0.5000267552482497  0.8399493580902728  1.0000
  H   H9        1.0  0.775863286662087  0.4999657438258609  0.664085577961899  1.0000
  H   H10       1.0  0.22416640274476413  0.5000703847045499  0.335918257625174  1.0000
  H   H11       1.0  0.7696790710935134  0.4998174190093608  0.33704137120879823  1.0000
  H   H12       1.0  0.7815861713354907  0.49986978666100157  0.16004094676296893  1.0000
  C   C1        1.0  0.3501723163879333  0.7045443519510856  0.500024594000358  1.0000
  C   C2        1.0  0.34384502251347016  0.8032789261191056  0.5000097034892121  1.0000
  C   C3        1.0  0.5001270849753823  0.8562386547477557  0.4999999521712724  1.0000
  C   C4        1.0  0.6554827573296864  0.8028271223443609  0.4999844763190851  1.0000
  C   C5        1.0  0.6537463835438474  0.7040736336433895  0.4999790468056489  1.0000
  C   C6        1.0  0.5010278192262447  0.9566253782138356  0.5000041648931132  1.0000
  C   C7        1.0  0.49895877281120715  0.0433815603029544  0.500033864913803  1.0000
  C   C8        1.0  0.49988431630933405  0.14376471756099105  0.5000444819099243  1.0000
  C   C9        1.0  0.3445260532783793  0.19717411353981615  0.5000336071433154  1.0000
  C   C10       1.0  0.34626896270585655  0.29592902505854096  0.5000290645482082  1.0000
  C   C11       1.0  0.6498560362926469  0.29545118323956376  0.5000611434716618  1.0000
  C   C12       1.0  0.6561807263587981  0.19671874600766867  0.5000632151051647  1.0000
  C   C13       1.0  0.3501759132864208  0.5000439494679013  0.7045426641050411  1.0000
  C   C14       1.0  0.3438465393921889  0.5000169375961362  0.8032825168006853  1.0000
  C   C15       1.0  0.5001347241145594  0.4999975811264363  0.8562370409286048  1.0000
  C   C16       1.0  0.6554908152501185  0.4999838941788254  0.8028271299866319  1.0000
  C   C17       1.0  0.6537565214615669  0.49998914279692025  0.7040698059951539  1.0000
  C   C18       1.0  0.5010451265872932  0.4999825648883131  0.9566247547784884  1.0000
  C   C19       1.0  0.4989741716852691  0.4999794979602327  0.0433769453433399  1.0000
  C   C20       1.0  0.4998858925353248  0.49994881320807844  0.14376323427569565  1.0000
  C   C21       1.0  0.3445271620626258  0.5000002468612833  0.19717314637988895  1.0000
  C   C22       1.0  0.3462731955805013  0.5000120883119764  0.2959311802704435  1.0000
  C   C23       1.0  0.6498538746334432  0.49986327233635564  0.29545547191085575  1.0000
  C   C24       1.0  0.6561754122843696  0.4998881493800269  0.1967191818569773  1.0000
  N   N1        1.0  0.5020380690288064  0.6556061332980079  0.5000042510999521  1.0000
  N   N2        1.0  0.4979890099187401  0.3443901136722332  0.5000373306789925  1.0000
  N   N3        1.0  0.5020394371157835  0.500025387884726  0.6556068004728957  1.0000
  N   N4        1.0  0.4979889996153163  0.4999437948497771  0.3443913368007046  1.0000
  F   F1        1.0  0.22909859673998773  0.5001509269836646  0.5001453872952766  1.0000
  F   F2        1.0  0.770929819711654  0.49985101647524033  0.4998477651391725  1.0000
  F   F3        1.0  1.215855877489995e-05  0.5855337644996581  0.41446355413197733  1.0000
  F   F4        1.0  1.7327359287800014e-05  0.41447663067738455  0.5855354118341938  1.0000
  F   F5        1.0  0.9990370737122235  0.5855445626767307  0.5855346075000014  1.0000
  F   F6        1.0  0.0009795852625487003  0.41446023213865146  0.41446210850872944  1.0000
  F   F7        1.0  0.8110713388207744  0.8487477021172507  0.4999669326745959  1.0000
  F   F8        1.0  0.18894141779988868  0.1512521079575677  0.5000141158559188  1.0000
  F   F9        1.0  0.8110738159403469  0.499956746410703  0.8487503237402976  1.0000
  F   F10       1.0  0.18894021978630351  0.5000558831960616  0.15125422708801753  1.0000
