data_image0
_chemical_formula_structural       Rb2H14C28N8O24
_chemical_formula_sum              "Rb2 H14 C28 N8 O24"
_cell_length_a       9.409108360136608
_cell_length_b       9.803876375600272
_cell_length_c       11.517545562581395
_cell_angle_alpha    68.00567378261576
_cell_angle_beta     83.61866342996716
_cell_angle_gamma    68.18463906575482

_space_group_name_H-M_alt    "P 1"
_space_group_IT_number       1

loop_
  _space_group_symop_operation_xyz
  'x, y, z'

loop_
  _atom_site_type_symbol
  _atom_site_label
  _atom_site_symmetry_multiplicity
  _atom_site_fract_x
  _atom_site_fract_y
  _atom_site_fract_z
  _atom_site_occupancy
  Rb  Rb1       1.0  0.6029571188399958  0.23241437868463777  0.6309880019686389  1.0000
  Rb  Rb2       1.0  0.3970418781927237  0.7675869848512206  0.3690114861661583  1.0000
  H   H1        1.0  0.7135917355157348  0.46908567656662103  0.6554978666321106  1.0000
  H   H2        1.0  0.2864091612827339  0.5309133374298155  0.3445021942702979  1.0000
  H   H3        1.0  0.18665492235629003  0.7918048648132938  0.6723645023291527  1.0000
  H   H4        1.0  0.8133436583091087  0.2081976769048168  0.3276346504229437  1.0000
  H   H5        1.0  0.18103482019351005  0.9876954377350627  0.9534462051276975  1.0000
  H   H6        1.0  0.8189656602376447  0.0123047544436261  0.04655352039200981  1.0000
  H   H7        1.0  0.5822250720520333  0.6087288572441593  0.9155512445120522  1.0000
  H   H8        1.0  0.4177743415003762  0.3912713313831091  0.08444770971144068  1.0000
  H   H9        1.0  0.8095512801996848  0.7018465530139721  0.23177139022753582  1.0000
  H   H10       1.0  0.19044920007909388  0.2981536358910546  0.7682292045861772  1.0000
  H   H11       1.0  0.20692583924187613  0.34957765347141384  0.1548654787673627  1.0000
  H   H12       1.0  0.7930739905254642  0.6504213536999474  0.845134680132844  1.0000
  H   H13       1.0  0.016995036436419808  0.24870715209859645  0.5219642447966848  1.0000
  H   H14       1.0  0.9830065110258701  0.7512930469051681  0.47803538272522433  1.0000
  C   C1        1.0  0.39462318347332836  0.6900069183340847  0.7852623751234233  1.0000
  C   C2        1.0  0.6053768805905124  0.30999445202685655  0.21473701501358275  1.0000
  C   C3        1.0  0.2442865605081793  0.7930287080660322  0.7484923228369168  1.0000
  C   C4        1.0  0.7557124365245401  0.2069726554698263  0.2515071652978804  1.0000
  C   C5        1.0  0.17040657706514403  0.8983088644633453  0.8096044813023157  1.0000
  C   C6        1.0  0.8295924199675684  0.10169249907251296  0.19039500683248178  1.0000
  C   C7        1.0  0.23998842991468208  0.9046863003478336  0.9069649840381756  1.0000
  C   C8        1.0  0.7600112177818518  0.09531624819535273  0.0930340707161221  1.0000
  C   C9        1.0  0.3884365207011699  0.7979415411825171  0.9430682897524464  1.0000
  C   C10       1.0  0.6115628926988564  0.20205864417108896  0.05693153376505927  1.0000
  C   C11       1.0  0.466340864898065  0.6907680345449309  0.8847576592459632  1.0000
  C   C12       1.0  0.5336570651035261  0.309233322165845  0.11524192688663255  1.0000
  C   C13       1.0  0.4821754190764765  0.5833140797727907  0.7144062938792075  1.0000
  C   C14       1.0  0.5178225112298663  0.4166872834853023  0.2855915536653768  1.0000
  C   C15       1.0  0.9007202439635622  0.4806971286113395  0.3864163998593995  1.0000
  C   C16       1.0  0.09928023646759955  0.5193030635673496  0.6135833256603078  1.0000
  C   C17       1.0  0.8971029414555576  0.5846141049028261  0.2630815262252499  1.0000
  C   C18       1.0  0.10289860585435663  0.41538609082728334  0.7369189705906719  1.0000
  C   C19       1.0  0.006988303602533091  0.5348652932896415  0.18186457068441092  1.0000
  C   C20       1.0  0.993013660074695  0.46513372425821603  0.8181362615142119  1.0000
  C   C21       1.0  0.12190937188471207  0.3866951714311497  0.21920457714826116  1.0000
  C   C22       1.0  0.8780915249137636  0.613303842565287  0.7807954837541472  1.0000
  C   C23       1.0  0.12279574606043303  0.2870732909319927  0.3423348093272979  1.0000
  C   C24       1.0  0.8772051507380357  0.7129257230644442  0.6576652515751106  1.0000
  C   C25       1.0  0.01301757198890393  0.32996679771925835  0.426328074199418  1.0000
  C   C26       1.0  0.9869833248095649  0.6700322162771783  0.5736719867029905  1.0000
  C   C27       1.0  0.7876838198054302  0.5367841629474057  0.47636505805268564  1.0000
  C   C28       1.0  0.21231772780923572  0.46321603933001404  0.5236337001752176  1.0000
  N   N1        1.0  0.012013685344783205  0.006351412939842801  0.7717675003582299  1.0000
  N   N2        1.0  0.9879853115355532  0.9936499473223604  0.22823285707057278  1.0000
  N   N3        1.0  0.4662654701335501  0.7991400792058269  0.04617344863928712  1.0000
  N   N4        1.0  0.5337322254191577  0.20085891104171336  0.9538277755505149  1.0000
  N   N5        1.0  0.005447292731311445  0.6413652181033811  0.05184763851211474  1.0000
  N   N6        1.0  0.994552536883653  0.35863378579431776  0.9481533896820978  1.0000
  N   N7        1.0  0.246517726312284  0.1330951864318095  0.38484702807391363  1.0000
  N   N8        1.0  0.753483821149999  0.8669050125719551  0.6151525994479953  1.0000
  O   O1        1.0  0.6256692087097734  0.5078839098329058  0.7464904608670365  1.0000
  O   O2        1.0  0.37433127172138825  0.49211628234577637  0.2535092646526707  1.0000
  O   O3        1.0  0.4142964815834135  0.576909842125545  0.6300343859986484  1.0000
  O   O4        1.0  0.5857029316642368  0.4230903399543989  0.3699663068128558  1.0000
  O   O5        1.0  0.9482484363257909  0.9961056167056057  0.6878387875015265  1.0000
  O   O6        1.0  0.05175056070692109  0.0038957468302526998  0.3121607006332709  1.0000
  O   O7        1.0  0.9499621744343119  0.1021787114712822  0.8245528772936908  1.0000
  O   O8        1.0  0.050035755414903446  0.8978226419658384  0.17544757813291054  1.0000
  O   O9        1.0  0.39917264993609813  0.9032622064466692  0.09089044989725178  1.0000
  O   O10       1.0  0.6008226771054695  0.09673440368747069  0.9091126083453603  1.0000
  O   O11       1.0  0.5939583129555359  0.696226234909581  0.08335514060303943  1.0000
  O   O12       1.0  0.4060417512606805  0.3037751387250154  0.9166433802399537  1.0000
  O   O13       1.0  0.7950938724131904  0.4267138687841552  0.5870478893225267  1.0000
  O   O14       1.0  0.20490660771321265  0.5732863168472164  0.4129535747851918  1.0000
  O   O15       1.0  0.7011243685864842  0.6764261001105254  0.4456696155214885  1.0000
  O   O16       1.0  0.2988765283643602  0.3235729171595736  0.5543295760869142  1.0000
  O   O17       1.0  0.9006841251914396  0.7718071769633355  0.015810093438176406  1.0000
  O   O18       1.0  0.09931528820858664  0.22819300839027085  0.9841897300793221  1.0000
  O   O19       1.0  0.10985393957528806  0.5936479442419937  0.9845466014842827  1.0000
  O   O20       1.0  0.8901458901920524  0.4063510629293674  0.015453557415924007  1.0000
  O   O21       1.0  0.34940108435396416  0.10411150271801262  0.3102631755265152  1.0000
  O   O22       1.0  0.6506015298347025  0.8958886965635174  0.689738092585614  1.0000
  O   O23       1.0  0.24220428731481297  0.03931330168992991  0.4919440114976866  1.0000
  O   O24       1.0  0.7577951260852134  0.9606868836636765  0.5080558120198119  1.0000
