data_image0
_chemical_formula_structural       Cu4H12C24N8Cl4O16
_chemical_formula_sum              "Cu4 H12 C24 N8 Cl4 O16"
_cell_length_a       7.945124016019484
_cell_length_b       9.394326234035123
_cell_length_c       10.709181206017705
_cell_angle_alpha    90.00019476172645
_cell_angle_beta     89.99991820019196
_cell_angle_gamma    89.9997584628543

_space_group_name_H-M_alt    "P 1"
_space_group_IT_number       1

loop_
  _space_group_symop_operation_xyz
  'x, y, z'

loop_
  _atom_site_type_symbol
  _atom_site_label
  _atom_site_symmetry_multiplicity
  _atom_site_fract_x
  _atom_site_fract_y
  _atom_site_fract_z
  _atom_site_occupancy
  Cu  Cu1       1.0  0.2480796405003361  0.2438567608947509  0.2242078418005775  1.0000
  Cu  Cu2       1.0  0.7480801167448377  0.7561395600191503  0.7757939125094849  1.0000
  Cu  Cu3       1.0  0.7480864606472653  0.2561429856814784  0.7242047194744501  1.0000
  Cu  Cu4       1.0  0.24808210701675654  0.743860786517587  0.2757942335071704  1.0000
  H   H1        1.0  0.9714965201986204  0.43075857162243375  0.143279956390046  1.0000
  H   H2        1.0  0.4715008185292292  0.5692433504523108  0.8567215449514336  1.0000
  H   H3        1.0  0.47150227288616975  0.06924433488991613  0.6432796419222484  1.0000
  H   H4        1.0  0.971500100368168  0.9307597161259624  0.3567246607541819  1.0000
  H   H5        1.0  0.2639688431213756  0.0750585005172155  0.463463033027125  1.0000
  H   H6        1.0  0.7639701537343273  0.9249441513621337  0.5365433721916375  1.0000
  H   H7        1.0  0.7639722931156002  0.4249442423971034  0.9634576147975054  1.0000
  H   H8        1.0  0.26397047965026843  0.5750573449888988  0.0365413201918869  1.0000
  H   H9        1.0  0.7579790378071536  0.5093173549043969  0.3259907086362758  1.0000
  H   H10       1.0  0.2579878363145199  0.49068212458699634  0.6740044980172897  1.0000
  H   H11       1.0  0.2579876956364018  0.9906820860483518  0.825993523619765  1.0000
  H   H12       1.0  0.7579879889154171  0.009317393438358598  0.1740072856980461  1.0000
  C   C1        1.0  0.9873681431363013  0.3582635714527242  0.0649526555061968  1.0000
  C   C2        1.0  0.4873681589527478  0.641736165870924  0.9350488278629996  1.0000
  C   C3        1.0  0.487369753635825  0.1417368480513659  0.5649534918836139  1.0000
  C   C4        1.0  0.9873665484470069  0.8582650182186743  0.435048925266983  1.0000
  C   C5        1.0  0.3761972575596745  0.14093849533306718  0.46442205833592703  1.0000
  C   C6        1.0  0.8761976441371504  0.8590605684657788  0.535582352245406  1.0000
  C   C7        1.0  0.8761997817907812  0.3590627921550222  0.9644192441778826  1.0000
  C   C8        1.0  0.37619763716582355  0.6409405295213728  0.0355814312955829  1.0000
  C   C9        1.0  0.5366802397781143  0.31572756629498844  0.3654267990138393  1.0000
  C   C10       1.0  0.03668057899814411  0.6842684335452772  0.634571459550429  1.0000
  C   C11       1.0  0.036682893999390814  0.1842702752344891  0.8654258951939653  1.0000
  C   C12       1.0  0.5366817006650422  0.8157310469588097  0.1345714295979334  1.0000
  C   C13       1.0  0.1413885498004249  0.17566084316563751  0.9711295157938621  1.0000
  C   C14       1.0  0.6413862437043322  0.8243401108242522  0.0288686242181626  1.0000
  C   C15       1.0  0.6413883693366174  0.3243412959405134  0.47112857784118484  1.0000
  C   C16       1.0  0.14138516553185806  0.6756607225238866  0.5288695621731492  1.0000
  C   C17       1.0  0.2748115184272777  0.06436689142606158  0.9994517003611277  1.0000
  C   C18       1.0  0.7748112180116707  0.9356314644286667  0.0005500236839353  1.0000
  C   C19       1.0  0.7748057410974951  0.43563595226029156  0.49945016187673724  1.0000
  C   C20       1.0  0.2748107021633857  0.5643677259597625  0.500547827067038  1.0000
  C   C21       1.0  0.5497183314777488  0.39633659999987  0.24269670776195798  1.0000
  C   C22       1.0  0.049721375389012216  0.6036561605654925  0.7572996684764987  1.0000
  C   C23       1.0  0.049725168893118614  0.10365965759544339  0.7426964963516909  1.0000
  C   C24       1.0  0.5497233483802404  0.8963437476809658  0.2573017474541217  1.0000
  N   N1        1.0  0.11412335256120801  0.26549209383609457  0.0677001864809839  1.0000
  N   N2        1.0  0.6141236577278806  0.7345068270870101  0.9322989181770893  1.0000
  N   N3        1.0  0.6141265061220198  0.23450751986819535  0.5676988669314795  1.0000
  N   N4        1.0  0.1141230214288811  0.7654935299950766  0.43230023772836285  1.0000
  N   N5        1.0  0.40331690599670383  0.22660911986369567  0.3675156029397044  1.0000
  N   N6        1.0  0.9033162932068352  0.7733855906735626  0.6324859755935037  1.0000
  N   N7        1.0  0.9033198631000374  0.2733885048864196  0.867514399812798  1.0000
  N   N8        1.0  0.40331585335084713  0.7266147214211712  0.1324853111753228  1.0000
  Cl  Cl1       1.0  0.016832142915085103  0.205713087527208  0.3383464269065257  1.0000
  Cl  Cl2       1.0  0.5168326309033092  0.794288304479146  0.6616555892525396  1.0000
  Cl  Cl3       1.0  0.5168387703371523  0.2942857837600172  0.8383434187910126  1.0000
  Cl  Cl4       1.0  0.016833555295235704  0.7057113503402731  0.1616567298009954  1.0000
  O   O1        1.0  0.43471082238044545  0.3707541866742119  0.16345538234701  1.0000
  O   O2        1.0  0.934711830970713  0.6292372200346819  0.8365414917419897  1.0000
  O   O3        1.0  0.9347182837022175  0.1292425402163175  0.6634546813875914  1.0000
  O   O4        1.0  0.4347119214236201  0.8707595112022446  0.3365421927130754  1.0000
  O   O5        1.0  0.6698647814570862  0.4813770391058654  0.2213253852871517  1.0000
  O   O6        1.0  0.16987073402058436  0.5186184923669188  0.7786717886902466  1.0000
  O   O7        1.0  0.1698745658171106  0.01861977798346  0.7213267867998567  1.0000
  O   O8        1.0  0.6698735359894598  0.981377882415387  0.27867225473001866  1.0000
  O   O9        1.0  0.31843605872204966  0.9717483842341254  0.915744486970631  1.0000
  O   O10       1.0  0.8184364171295044  0.028249818211492105  0.0842581214559885  1.0000
  O   O11       1.0  0.8184273052250222  0.5282522549594689  0.41574079490308685  1.0000
  O   O12       1.0  0.3184363601856219  0.4717502053800047  0.5842562108656678  1.0000
  O   O13       1.0  0.3338057395358902  0.0618060743611508  0.1070062169113868  1.0000
  O   O14       1.0  0.8338088618653644  0.9381920740288978  0.8929954403322995  1.0000
  O   O15       1.0  0.8337990534958665  0.43819717639678407  0.6070055072604106  1.0000
  O   O16       1.0  0.3338079960883391  0.5618084233053934  0.3929924148858959  1.0000
