data_image0
_chemical_formula_structural       Zn12H80C76N8O40
_chemical_formula_sum              "Zn12 H80 C76 N8 O40"
_cell_length_a       15.764248762049496
_cell_length_b       15.764289282907201
_cell_length_c       16.137198251917532
_cell_angle_alpha    105.34745735858131
_cell_angle_beta     105.34762339578454
_cell_angle_gamma    117.23587028357414

_space_group_name_H-M_alt    "P 1"
_space_group_IT_number       1

loop_
  _space_group_symop_operation_xyz
  'x, y, z'

loop_
  _atom_site_type_symbol
  _atom_site_label
  _atom_site_symmetry_multiplicity
  _atom_site_fract_x
  _atom_site_fract_y
  _atom_site_fract_z
  _atom_site_occupancy
  Zn  Zn1       1.0  0.14257299286107647  0.7198982313880506  0.5577563239525177  1.0000
  Zn  Zn2       1.0  0.41508373613415706  0.8378740911542477  0.5577497012974176  1.0000
  Zn  Zn3       1.0  0.969900166951085  0.8925729371154886  0.057754970910728905  1.0000
  Zn  Zn4       1.0  0.08787463133536727  0.16508443722775465  0.057746444629529506  1.0000
  Zn  Zn5       1.0  0.2887748219000341  0.9940209484141388  0.6667981636218769  1.0000
  Zn  Zn6       1.0  0.3778389569120718  0.6724481884206027  0.6665959000180451  1.0000
  Zn  Zn7       1.0  0.2440237552307778  0.03877476040013042  0.16680123706863267  1.0000
  Zn  Zn8       1.0  0.9224507142069882  0.12784279275933116  0.1665925214312766  1.0000
  Zn  Zn9       1.0  0.10797561284906726  0.4947129032961115  0.41335384283389953  1.0000
  Zn  Zn10      1.0  0.30547490869876986  0.9189080010575948  0.4134339519383731  1.0000
  Zn  Zn11      1.0  0.7447132711100791  0.8579760042744268  0.9133505989417402  1.0000
  Zn  Zn12      1.0  0.16891017244728337  0.055476053446639445  0.9134323930184322  1.0000
  H   H1        1.0  0.5096043024461138  0.21223796185270752  0.8163073650229292  1.0000
  H   H2        1.0  0.3062618121984287  0.6033424714063358  0.8162184823279405  1.0000
  H   H3        1.0  0.46223945465455063  0.25960655086559814  0.3163126211917202  1.0000
  H   H4        1.0  0.8533398048222481  0.056265409472224664  0.31621161982304363  1.0000
  H   H5        1.0  0.6870291973950131  0.26850913190007447  0.936991124290742  1.0000
  H   H6        1.0  0.24992856354838713  0.6679808557671761  0.9372326081950534  1.0000
  H   H7        1.0  0.518505638578958  0.43703060030972535  0.4369922235780663  1.0000
  H   H8        1.0  0.9179749758013146  0.9999303915647672  0.4372256022004707  1.0000
  H   H9        1.0  0.7099985716675549  0.1236502987341124  0.9541552294572854  1.0000
  H   H10       1.0  0.24438911730921808  0.8301807281543246  0.9545798656920041  1.0000
  H   H11       1.0  0.3736433405400348  0.4599964601139489  0.4541498937651411  1.0000
  H   H12       1.0  0.0801748716797731  0.9943891013364733  0.4545766201309931  1.0000
  H   H13       1.0  0.5573024538061092  0.9346538281473469  0.852554613858139  1.0000
  H   H14       1.0  0.29528576284424446  0.9174724572324064  0.852809983944212  1.0000
  H   H15       1.0  0.184646935415131  0.30729804191561527  0.3525487496977959  1.0000
  H   H16       1.0  0.16747024453451337  0.04528553581368302  0.35280883056134377  1.0000
  H   H17       1.0  0.15184173550944985  0.38060617678372916  0.25521051498622427  1.0000
  H   H18       1.0  0.10354182317156098  0.8751571292595772  0.2553515567107141  1.0000
  H   H19       1.0  0.6306073703886882  0.9018453881741592  0.7552103537573417  1.0000
  H   H20       1.0  0.12515941346773457  0.8535414576096442  0.7553520486380593  1.0000
  H   H21       1.0  0.2516217726218173  0.4341073909479575  0.16144256258634476  1.0000
  H   H22       1.0  0.910026366052847  0.7281138149307295  0.16186253825999594  1.0000
  H   H23       1.0  0.6841074856305979  0.001626268924894495  0.6614420281155448  1.0000
  H   H24       1.0  0.9781171878149096  0.6600254444620998  0.6618643567834824  1.0000
  H   H25       1.0  0.33541527602933735  0.6238825215132807  0.18088122819430202  1.0000
  H   H26       1.0  0.8456869072396459  0.5576779118835515  0.18112233539157074  1.0000
  H   H27       1.0  0.8738827527763392  0.08541679046654581  0.6808791327033249  1.0000
  H   H28       1.0  0.8076780915236412  0.5956872780849022  0.6811231255871846  1.0000
  H   H29       1.0  0.3122626623544987  0.7474117701296875  0.2914056903902846  1.0000
  H   H30       1.0  0.9793045762777198  0.5443828228283677  0.2913417985707342  1.0000
  H   H31       1.0  0.997410770476968  0.06226133875383486  0.7914016979218276  1.0000
  H   H32       1.0  0.7943853094100959  0.7293079933898593  0.7913412510073102  1.0000
  H   H33       1.0  0.33678336025533173  0.2541969150476432  0.5844288409099788  1.0000
  H   H34       1.0  0.247577930528834  0.3300342837648527  0.5841363727613141  1.0000
  H   H35       1.0  0.5041980189232332  0.08678201619158435  0.08443136526670972  1.0000
  H   H36       1.0  0.5800330589676009  0.9975729895276259  0.08413701688821379  1.0000
  H   H37       1.0  0.3452798972397629  0.21048068568165934  0.47430715920120287  1.0000
  H   H38       1.0  0.1290206418491238  0.2636701638960374  0.4740247776367781  1.0000
  H   H39       1.0  0.4604840246226161  0.09527867704564826  0.9743094914330683  1.0000
  H   H40       1.0  0.5136684660805313  0.8790169185187081  0.9740242808595525  1.0000
  H   H41       1.0  0.4561505819457565  0.26939175287340317  0.5882180973362949  1.0000
  H   H42       1.0  0.1319668313633926  0.31853759480563326  0.5879406212981096  1.0000
  H   H43       1.0  0.5193906509378223  0.20614802025828274  0.08822041433935372  1.0000
  H   H44       1.0  0.5685393399407418  0.8819628860038335  0.08793990883030034  1.0000
  H   H45       1.0  0.05073454297278348  0.5373633718577934  0.7248761939457468  1.0000
  H   H46       1.0  0.6740466059109947  0.18742828501105868  0.7248865214003003  1.0000
  H   H47       1.0  0.7873615754367974  0.8007373617756242  0.22487464587848655  1.0000
  H   H48       1.0  0.43742947476531674  0.42404553834720093  0.22488978846148205  1.0000
  H   H49       1.0  0.040365095526496475  0.42107212923139764  0.6525141176940181  1.0000
  H   H50       1.0  0.6121283339871013  0.23146877238114144  0.6525722460431779  1.0000
  H   H51       1.0  0.6710720305577951  0.7903676643571271  0.15250976740635028  1.0000
  H   H52       1.0  0.48146564587830193  0.36212327124145105  0.15257046897330181  1.0000
  H   H53       1.0  0.9309053484837335  0.4324043522945612  0.6177840462801215  1.0000
  H   H54       1.0  0.6868278669186126  0.18539708186071374  0.6177732201484858  1.0000
  H   H55       1.0  0.6824040075058874  0.6809103222571549  0.11778483905030873  1.0000
  H   H56       1.0  0.4353962350568991  0.43682643753791683  0.11777382415100844  1.0000
  H   H57       1.0  0.8747704868951515  0.7595546161108186  0.48625189422570964  1.0000
  H   H58       1.0  0.6113283880127227  0.7268775251660955  0.4858185516990617  1.0000
  H   H59       1.0  0.009555967754657368  0.6247722834450824  0.9862566911127217  1.0000
  H   H60       1.0  0.9768779241514737  0.3613297634120938  0.9858126503270698  1.0000
  H   H61       1.0  0.9229800875187664  0.8228888064330487  0.4168927828069399  1.0000
  H   H62       1.0  0.4939680411383661  0.5941568574732868  0.41659102572428713  1.0000
  H   H63       1.0  0.07289107329128106  0.6729804754778711  0.9168979495725439  1.0000
  H   H64       1.0  0.8441582998440041  0.24397004336469763  0.916587957331963  1.0000
  H   H65       1.0  0.9568923815402074  0.9029417354599187  0.5367730937600754  1.0000
  H   H66       1.0  0.5800037924806959  0.6340873213454543  0.5364711810209145  1.0000
  H   H67       1.0  0.15294297421764472  0.7068938426838045  0.036778410869025925  1.0000
  H   H68       1.0  0.884088854309681  0.3300040318875545  0.036465960456638497  1.0000
  H   H69       1.0  0.1700697726217015  0.20242205325503443  0.7089820219337071  1.0000
  H   H70       1.0  0.5389847952221559  0.5067257739784665  0.709222768887372  1.0000
  H   H71       1.0  0.4524212714340408  0.9200663841575789  0.2089863538923781  1.0000
  H   H72       1.0  0.756726007341193  0.28898386072628296  0.2092258980327344  1.0000
  H   H73       1.0  0.14766428789531708  0.08813455386829339  0.6191630719284403  1.0000
  H   H74       1.0  0.47151252794296267  0.5309127575545317  0.619154479070211  1.0000
  H   H75       1.0  0.3381346866771935  0.8976600689254255  0.11916542512106086  1.0000
  H   H76       1.0  0.7809140800831997  0.22151290344751812  0.11915826893831394  1.0000
  H   H77       1.0  0.27958296098472607  0.19846083505105128  0.6989293242240677  1.0000
  H   H78       1.0  0.41946935869118807  0.5007463355108113  0.6991604617170353  1.0000
  H   H79       1.0  0.44846221391155444  0.029579942776990588  0.1989326008035945  1.0000
  H   H80       1.0  0.7507463965512855  0.1694687134547904  0.1991630658560766  1.0000
  C   C1        1.0  0.5243508072693785  0.1540356100863604  0.8275620812032046  1.0000
  C   C2        1.0  0.30291111322966896  0.6729015849283115  0.8275568047009259  1.0000
  C   C3        1.0  0.40403499906791035  0.2743507909177011  0.3275640262834685  1.0000
  C   C4        1.0  0.9228981337224837  0.05291283000505571  0.3275518772111852  1.0000
  C   C5        1.0  0.6221943932058664  0.18413571843200294  0.8937508641281086  1.0000
  C   C6        1.0  0.27147825087677546  0.709107908828578  0.8939360712133322  1.0000
  C   C7        1.0  0.4341327813693211  0.37219538657772927  0.39375046957429305  1.0000
  C   C8        1.0  0.9591031012581793  0.02147810853440282  0.3939320566145454  1.0000
  C   C9        1.0  0.6349013343533157  0.10446922954977787  0.9034101840530157  1.0000
  C   C10       1.0  0.2685671159560883  0.7985137754125872  0.903701842866589  1.0000
  C   C11       1.0  0.3544666740887621  0.38490066112114346  0.4034072568870002  1.0000
  C   C12       1.0  0.048506874802995995  0.018567009028359345  0.4036960696924439  1.0000
  C   C13       1.0  0.5494690646606839  0.9981542974871827  0.8462491167012586  1.0000
  C   C14       1.0  0.2967531544932526  0.8476325851582017  0.8464447344683705  1.0000
  C   C15       1.0  0.24814962284789027  0.29946641888923836  0.3462442035634581  1.0000
  C   C16       1.0  0.0976302788882109  0.04675189491880612  0.3464411151114036  1.0000
  C   C17       1.0  0.45404573402845466  0.9745337043686033  0.781326131052225  1.0000
  C   C18       1.0  0.3270456258262868  0.8062438037886747  0.7813423837278464  1.0000
  C   C19       1.0  0.22453398582900516  0.20404373006084595  0.28132386912211876  1.0000
  C   C20       1.0  0.05624199048661177  0.07704546031994397  0.2813374096751033  1.0000
  C   C21       1.0  0.3578403683365181  0.8577485270886313  0.7159871319953481  1.0000
  C   C22       1.0  0.10774825719020242  0.1078382032905836  0.21598510035581603  1.0000
  C   C23       1.0  0.18917594485169084  0.4609395001216257  0.26086268789235595  1.0000
  C   C24       1.0  0.07187203844576825  0.8004642708504406  0.26100439983535034  1.0000
  C   C25       1.0  0.7109397713192321  0.9391797454434678  0.760861969046289  1.0000
  C   C26       1.0  0.0504663945030117  0.8218733589328053  0.761005051067336  1.0000
  C   C27       1.0  0.24497541808378992  0.49184772595554443  0.2087893083168524  1.0000
  C   C28       1.0  0.9640039458447945  0.7175757855550625  0.2090358821117349  1.0000
  C   C29       1.0  0.7418488093155985  0.9949802302682612  0.708789996657373  1.0000
  C   C30       1.0  0.9675760639814754  0.7140031359866296  0.7090349913855223  1.0000
  C   C31       1.0  0.2903037728071212  0.5962685455204522  0.2199451854334811  1.0000
  C   C32       1.0  0.9298338322484127  0.6242633246693782  0.2201079129765446  1.0000
  C   C33       1.0  0.8462691631075288  0.04030678511438877  0.7199447686655774  1.0000
  C   C34       1.0  0.8742647380336878  0.679835956382611  0.7201082700445485  1.0000
  C   C35       1.0  0.2775345786896963  0.6654453463905483  0.2812153290911823  1.0000
  C   C36       1.0  0.0038259926462913037  0.6162039206717864  0.28121576824868544  1.0000
  C   C37       1.0  0.9154456260522749  0.027535075348623185  0.7812119074197029  1.0000
  C   C38       1.0  0.8662057646377761  0.7538269637279098  0.7812156027891392  1.0000
  C   C39       1.0  0.21958175772380165  0.6277834733550023  0.3303613864013073  1.0000
  C   C40       1.0  0.11088668964209346  0.7029616654241266  0.33035738625620337  1.0000
  C   C41       1.0  0.8777833032611541  0.969582553207246  0.8303596433221686  1.0000
  C   C42       1.0  0.9529638736176977  0.860886069536164  0.8303577258396544  1.0000
  C   C43       1.0  0.19841884091808026  0.6985482738431799  0.3967860517131427  1.0000
  C   C44       1.0  0.9485489644098664  0.9484188540676113  0.8967836493494731  1.0000
  C   C45       1.0  0.3296600015438288  0.10892013920251742  0.5454895400289389  1.0000
  C   C46       1.0  0.2156866519149716  0.4363613501207269  0.545228202121436  1.0000
  C   C47       1.0  0.35892339822257924  0.07965782032206893  0.04549548081401866  1.0000
  C   C48       1.0  0.686362994782904  0.9656884093516139  0.04522859235535043  1.0000
  C   C49       1.0  0.3687144361395767  0.2169687985446911  0.5469712782811555  1.0000
  C   C50       1.0  0.1781838373355811  0.3297862914325761  0.5467049044761296  1.0000
  C   C51       1.0  0.46697130902578016  0.11871269211496835  0.04697404982843525  1.0000
  C   C52       1.0  0.5797862667861721  0.928180908442684  0.046704340913045296  1.0000
  C   C53       1.0  0.05843349556509736  0.5307143879865847  0.5915020057870208  1.0000
  C   C54       1.0  0.5330236450923566  0.0608259353529376  0.5915115758860168  1.0000
  C   C55       1.0  0.7807177046246991  0.8084345162657625  0.09150114991813046  1.0000
  C   C56       1.0  0.310823967410343  0.28302651008716845  0.09151963996785642  1.0000
  C   C57       1.0  0.018622907620233733  0.47778800809993527  0.6515292181207428  1.0000
  C   C58       1.0  0.632846813590902  0.17373210968546696  0.6515425243114733  1.0000
  C   C59       1.0  0.7277853434143039  0.7686214172781973  0.1515263896418873  1.0000
  C   C60       1.0  0.42372901413638436  0.38284394316786313  0.15154283514669237  1.0000
  C   C61       1.0  0.041973351389557774  0.8287266276118075  0.5247644860061129  1.0000
  C   C62       1.0  0.4826716757709093  0.6960138314696848  0.5244813010944185  1.0000
  C   C63       1.0  0.07872913819196002  0.791972757988532  0.024766207064416786  1.0000
  C   C64       1.0  0.9460205898148573  0.23267488650432686  0.024476704246652155  1.0000
  C   C65       1.0  0.9425237104060004  0.8283565338646212  0.48960056561942633  1.0000
  C   C66       1.0  0.547059865842172  0.6613902835014185  0.48926841984357583  1.0000
  C   C67       1.0  0.07835865222131123  0.6925249892113923  0.989605238037349  1.0000
  C   C68       1.0  0.9113889840737598  0.2970617935729219  0.9892618411659343  1.0000
  C   C69       1.0  0.2007980120985024  0.10176537489135014  0.7609636448248976  1.0000
  C   C70       1.0  0.5602163143928748  0.6593305154328915  0.7607985556434399  1.0000
  C   C71       1.0  0.35176449522761283  0.9507954187502674  0.26096539005080643  1.0000
  C   C72       1.0  0.9093300344525233  0.3102156073429539  0.26080288377029603  1.0000
  C   C73       1.0  0.19929726122673938  0.15202345130153108  0.6933685066045427  1.0000
  C   C74       1.0  0.4941288730494335  0.5414522726522008  0.693449328387338  1.0000
  C   C75       1.0  0.4020245799579314  0.9492943001329618  0.19337230508725872  1.0000
  C   C76       1.0  0.7914513309777718  0.24412766758470628  0.1934537940461853  1.0000
  N   N1        1.0  0.4417765838753096  0.05093357081700815  0.7730680179759517  1.0000
  N   N2        1.0  0.33095524475358906  0.7215144088011342  0.7729963553331344  1.0000
  N   N3        1.0  0.30093307917005774  0.19177599899902018  0.27306877801424184  1.0000
  N   N4        1.0  0.9715139647190159  0.08095692558701724  0.2729912762020562  1.0000
  N   N5        1.0  0.17714488455826685  0.5277164718116722  0.32031599803617183  1.0000
  N   N6        1.0  0.1433167710516868  0.7930153643777232  0.3203491082086174  1.0000
  N   N7        1.0  0.7777174579352034  0.9271470351161849  0.820313787058737  1.0000
  N   N8        1.0  0.043017937030810936  0.893316183200575  0.8203486919239252  1.0000
  O   O1        1.0  0.2719070087335068  0.8565533060321256  0.6603006636431843  1.0000
  O   O2        1.0  0.3879046079149049  0.8032300910426571  0.6600615860876148  1.0000
  O   O3        1.0  0.10655354037596251  0.021905144692041672  0.16030008813631721  1.0000
  O   O4        1.0  0.05322879493638767  0.13790108109070323  0.16005638620893586  1.0000
  O   O5        1.0  0.16177573763913947  0.6504410665696057  0.4526176186853235  1.0000
  O   O6        1.0  0.2907853535452958  0.8023885504818651  0.45272533405820076  1.0000
  O   O7        1.0  0.9004438546930799  0.9117787522132444  0.9526175356611405  1.0000
  O   O8        1.0  0.05238952235996649  0.04078630475114391  0.9527237843413302  1.0000
  O   O9        1.0  0.2732057950561781  0.026486302826590594  0.4646682042029866  1.0000
  O   O10       1.0  0.19117139137479464  0.4380337330739791  0.464417153131329  1.0000
  O   O11       1.0  0.27648440432445653  0.023206455269111203  0.9646664099643233  1.0000
  O   O12       1.0  0.6880343720853402  0.941170776529496  0.9644145733032373  1.0000
  O   O13       1.0  0.3561991041137276  0.10922611824809528  0.6275657858468763  1.0000
  O   O14       1.0  0.27131817688320575  0.5180562129761909  0.6273329897593243  1.0000
  O   O15       1.0  0.35922824974640116  0.10619576283088598  0.1275650946469469  1.0000
  O   O16       1.0  0.7680562405494485  0.021319826516453387  0.1273304755221433  1.0000
  O   O17       1.0  0.051389763627746214  0.4735682464746701  0.5152293248861922  1.0000
  O   O18       1.0  0.4638587947750993  0.04183794922249712  0.515301770490055  1.0000
  O   O19       1.0  0.7235677833248034  0.8013903238010797  0.015223977400211242  1.0000
  O   O20       1.0  0.2918329618920339  0.21385558827142148  0.015304804158404317  1.0000
  O   O21       1.0  0.09470544531251333  0.6301609349871526  0.6230460981702494  1.0000
  O   O22       1.0  0.5282625041352986  0.9928559113789603  0.6230293960745428  1.0000
  O   O23       1.0  0.8801614566490698  0.8447060900461661  0.12304482346062436  1.0000
  O   O24       1.0  0.24285762595516044  0.27826565162118294  0.1230347284023239  1.0000
  O   O25       1.0  0.13193425885271642  0.9151691381332441  0.5563878251622683  1.0000
  O   O26       1.0  0.42428555614036884  0.6410307938731565  0.5560083955416177  1.0000
  O   O27       1.0  0.1651701356028212  0.8819332843175615  0.05639052520419344  1.0000
  O   O28       1.0  0.8910301343014452  0.17428513930961728  0.05600585012737013  1.0000
  O   O29       1.0  0.026224898656081894  0.7395338778379779  0.5179732205686989  1.0000
  O   O30       1.0  0.4916041447394408  0.7784687716159625  0.5178124462802886  1.0000
  O   O31       1.0  0.9895377594901477  0.7762277263570352  0.017972833427094853  1.0000
  O   O32       1.0  0.02847187236383058  0.24160707342111457  0.017809506228424282  1.0000
  O   O33       1.0  0.2437155387832418  0.050018968744673174  0.7626607853365427  1.0000
  O   O34       1.0  0.5189661084292468  0.7127429866672017  0.7623546221688288  1.0000
  O   O35       1.0  0.30002087330160515  0.993714263823705  0.26266350611575723  1.0000
  O   O36       1.0  0.9627450503964852  0.2689670607599835  0.2623548472913841  1.0000
  O   O37       1.0  0.15765293516626142  0.11332145784789555  0.8156784098226169  1.0000
  O   O38       1.0  0.658061097160676  0.7025010840631295  0.8154559403139672  1.0000
  O   O39       1.0  0.3633156869961526  0.9076455900202589  0.3156780019780784  1.0000
  O   O40       1.0  0.9524988395233009  0.4080580226905182  0.31546206681117894  1.0000
