data_image0
_chemical_formula_structural       Cd4H28C12S4N12Cl8
_chemical_formula_sum              "Cd4 H28 C12 S4 N12 Cl8"
_cell_length_a       7.053427280132322
_cell_length_b       10.425710133443065
_cell_length_c       12.28175677763444
_cell_angle_alpha    90.00069752743175
_cell_angle_beta     103.70139277261323
_cell_angle_gamma    89.99908446288177

_space_group_name_H-M_alt    "P 1"
_space_group_IT_number       1

loop_
  _space_group_symop_operation_xyz
  'x, y, z'

loop_
  _atom_site_type_symbol
  _atom_site_label
  _atom_site_symmetry_multiplicity
  _atom_site_fract_x
  _atom_site_fract_y
  _atom_site_fract_z
  _atom_site_occupancy
  Cd  Cd1       1.0  0.8847355671089048  0.8219260520659903  0.6687534291170534  1.0000
  Cd  Cd2       1.0  0.6152687258733707  0.3219293142312623  0.33124428885531637  1.0000
  Cd  Cd3       1.0  0.11527262980114018  0.17807410392752132  0.3312438221138904  1.0000
  Cd  Cd4       1.0  0.3847367623462006  0.6780746784966496  0.66875994692122  1.0000
  H   H1        1.0  0.7569060835593434  0.058529267436476594  0.5302908695091231  1.0000
  H   H2        1.0  0.7430982893366718  0.5585264919857381  0.4697140151167074  1.0000
  H   H3        1.0  0.2430918066301899  0.9414670519084183  0.46970181416105544  1.0000
  H   H4        1.0  0.2569101869908508  0.44146982740898005  0.5302930434496316  1.0000
  H   H5        1.0  0.998266990537786  0.0717829649854735  0.561423151382037  1.0000
  H   H6        1.0  0.5017339477247518  0.5717803412625387  0.43857328501335485  1.0000
  H   H7        1.0  0.0017424792532238994  0.9282133542857668  0.4385677470923355  1.0000
  H   H8        1.0  0.4982656809218113  0.42821693731367827  0.5614293914995796  1.0000
  H   H9        1.0  0.6458942322342623  0.8624288255120051  0.893433619926682  1.0000
  H   H10       1.0  0.8540845989337311  0.3624339725052935  0.10656859220012642  1.0000
  H   H11       1.0  0.3541066459400639  0.1375713305070292  0.10656188657478077  1.0000
  H   H12       1.0  0.14589603818857458  0.6375690611503302  0.8934308556834761  1.0000
  H   H13       1.0  0.8871745593440182  0.9116755276495709  0.9590064334511151  1.0000
  H   H14       1.0  0.6128308475017477  0.4116822395829588  0.04099638887456786  1.0000
  H   H15       1.0  0.1128248363862241  0.088331342540819  0.0409880703053744  1.0000
  H   H16       1.0  0.38715432990380794  0.5883169574257466  0.9590093364191428  1.0000
  H   H17       1.0  0.5101349598539996  0.0709909494306658  0.9027324707750207  1.0000
  H   H18       1.0  0.9898784131867373  0.5709791801072867  0.09729159672996694  1.0000
  H   H19       1.0  0.4898617971427726  0.9290092066716583  0.09727146932633696  1.0000
  H   H20       1.0  0.010121122385669397  0.429013302609107  0.9027078106492751  1.0000
  H   H21       1.0  0.7043471524123461  0.0788947356365739  0.027112245817519833  1.0000
  H   H22       1.0  0.7956668586290121  0.5788891846296949  0.9728891803600985  1.0000
  H   H23       1.0  0.29566241042203245  0.9211092569963172  0.972881921800926  1.0000
  H   H24       1.0  0.2043195683761496  0.4211061756508839  0.027109374897946688  1.0000
  H   H25       1.0  0.8557298914418892  0.22255496722707596  0.6585981626116106  1.0000
  H   H26       1.0  0.6442798886555821  0.7225590210049758  0.3414147383234506  1.0000
  H   H27       1.0  0.14427811926851317  0.7774403928831577  0.34139255036923527  1.0000
  H   H28       1.0  0.35573738876963285  0.277438257531081  0.658595067744997  1.0000
  C   C1        1.0  0.8176503968467017  0.0835026284164968  0.7705698390387423  1.0000
  C   C2        1.0  0.6823458202737528  0.5834940935754176  0.22942285623070544  1.0000
  C   C3        1.0  0.18234001150410253  0.9165061600875009  0.22941537899318823  1.0000
  C   C4        1.0  0.3176511229329222  0.41650989924289666  0.7705876221172969  1.0000
  C   C5        1.0  0.751492722404663  0.9409610938194106  0.8990181784627463  1.0000
  C   C6        1.0  0.748497513435275  0.4409615090970006  0.10098463460469986  1.0000
  C   C7        1.0  0.2485067897632121  0.05904289889844701  0.10098041167888278  1.0000
  C   C8        1.0  0.2514831236870307  0.559041524558623  0.8990148132789029  1.0000
  C   C9        1.0  0.6685630929515299  0.06509532178640852  0.9359883881398826  1.0000
  C   C10       1.0  0.8314412093961747  0.5650808868377838  0.06401899561308254  1.0000
  C   C11       1.0  0.3314435517113736  0.9349077116917642  0.06400540849494966  1.0000
  C   C12       1.0  0.1685410266181151  0.4349115960066784  0.9359855413971799  1.0000
  S   S1        1.0  0.7809191224116673  0.19366392922599124  0.8726011153827852  1.0000
  S   S2        1.0  0.7190821255499102  0.6936765363383728  0.1273965706349074  1.0000
  S   S3        1.0  0.21906704840606037  0.8063400634956114  0.12738844983625336  1.0000
  S   S4        1.0  0.2809234325035064  0.3063284155743987  0.8726101169823932  1.0000
  N   N1        1.0  0.8824481369260582  0.043210203786401315  0.5922930314867542  1.0000
  N   N2        1.0  0.6175577901612924  0.5432001610653785  0.40770375538342296  1.0000
  N   N3        1.0  0.11755558959616509  0.9567889930352107  0.4077003941540978  1.0000
  N   N4        1.0  0.3824490874076716  0.4567942399659017  0.5922982140113076  1.0000
  N   N5        1.0  0.8774065448668295  0.12855086798339244  0.680776533764998  1.0000
  N   N6        1.0  0.6226066593350765  0.6285701705746335  0.31923424052192917  1.0000
  N   N7        1.0  0.1225972748834963  0.871438737188896  0.31922016095769107  1.0000
  N   N8        1.0  0.37741038518407777  0.37143574040831606  0.6807673927866131  1.0000
  N   N9        1.0  0.7910484400628447  0.9632252320218414  0.7890649946207159  1.0000
  N   N10       1.0  0.7089548236719452  0.4632219159380283  0.21095272480214078  1.0000
  N   N11       1.0  0.2089510954171914  0.0367758832000433  0.21093441278964772  1.0000
  N   N12       1.0  0.2910435786153371  0.5367830360412852  0.789057939039395  1.0000
  Cl  Cl1       1.0  0.5209967946631693  0.8089071355717865  0.5207752930346315  1.0000
  Cl  Cl2       1.0  0.9790020802528473  0.30891067587970167  0.4792264928053027  1.0000
  Cl  Cl3       1.0  0.4790028572442396  0.1910920613448468  0.4792282007643179  1.0000
  Cl  Cl4       1.0  0.021003338122618193  0.6910933168306317  0.5207752911339298  1.0000
  Cl  Cl5       1.0  0.2607227129026342  0.8739207000648792  0.7616174313537626  1.0000
  Cl  Cl6       1.0  0.2392808892813818  0.3739174683042776  0.2383826602764997  1.0000
  Cl  Cl7       1.0  0.7392798571557223  0.12608137434103384  0.23838643343571414  1.0000
  Cl  Cl8       1.0  0.7607215876617629  0.6260836469109137  0.7616179353931114  1.0000
