data_image0
_chemical_formula_structural       Cu4H40C24N8O16
_chemical_formula_sum              "Cu4 H40 C24 N8 O16"
_cell_length_a       5.252375444516706
_cell_length_b       8.709426042080255
_cell_length_c       17.90787573580645
_cell_angle_alpha    89.99865595141753
_cell_angle_beta     89.99897703514027
_cell_angle_gamma    90.00115468557891

_space_group_name_H-M_alt    "P 1"
_space_group_IT_number       1

loop_
  _space_group_symop_operation_xyz
  'x, y, z'

loop_
  _atom_site_type_symbol
  _atom_site_label
  _atom_site_symmetry_multiplicity
  _atom_site_fract_x
  _atom_site_fract_y
  _atom_site_fract_z
  _atom_site_occupancy
  Cu  Cu1       1.0  0.0677332374685378  0.2754091060761397  0.6733048376086116  1.0000
  Cu  Cu2       1.0  0.4322820817631409  0.724596828777578  0.1733067146078113  1.0000
  Cu  Cu3       1.0  0.5677183389271291  0.22458715600118503  0.32669459454621824  1.0000
  Cu  Cu4       1.0  0.9322713303141866  0.7754015769885213  0.8266950401028054  1.0000
  H   H1        1.0  0.45740595417992574  0.1442951856530073  0.5165392234890617  1.0000
  H   H2        1.0  0.0426436627741964  0.855730143423223  0.0165387702407145  1.0000
  H   H3        1.0  0.9573634843766358  0.35572370738906756  0.483459436974492  1.0000
  H   H4        1.0  0.5426033111088913  0.6442777804884231  0.9834648727774744  1.0000
  H   H5        1.0  0.6041418857838892  0.06910755615432862  0.5988197293394817  1.0000
  H   H6        1.0  0.8958988755696851  0.93091908648055  0.09881791507934419  1.0000
  H   H7        1.0  0.10410722885992389  0.4309097711729422  0.4011777988992051  1.0000
  H   H8        1.0  0.3958569986484122  0.5690823657862579  0.9011879770703498  1.0000
  H   H9        1.0  0.5973775976754112  0.5325430066114978  0.7029993240012329  1.0000
  H   H10       1.0  0.9026257180200473  0.4674634514118738  0.20299636687128236  1.0000
  H   H11       1.0  0.0973703071679282  0.9674712568308338  0.2970022999440047  1.0000
  H   H12       1.0  0.4026313658437886  0.03252154586937191  0.7969970534751736  1.0000
  H   H13       1.0  0.5658560017558827  0.6469277479438346  0.5804013451574831  1.0000
  H   H14       1.0  0.9341704262895192  0.3530940833506476  0.0803977591394158  1.0000
  H   H15       1.0  0.0658232965831118  0.8530873188898626  0.4196015936256784  1.0000
  H   H16       1.0  0.4341324173787626  0.14689585132077812  0.9195943464096172  1.0000
  H   H17       1.0  0.17887842105234597  0.778810307318196  0.5357192677699345  1.0000
  H   H18       1.0  0.3211607415753405  0.22122209105182833  0.035713917279103696  1.0000
  H   H19       1.0  0.6788452664169355  0.7211876243328776  0.46428072774528306  1.0000
  H   H20       1.0  0.8211072323485312  0.2787838305743264  0.9642850404089028  1.0000
  H   H21       1.0  0.0045809091235611  0.7203247059667462  0.6163483450899534  1.0000
  H   H22       1.0  0.49544289898575045  0.2796990300431119  0.11634684806115554  1.0000
  H   H23       1.0  0.5045614516872092  0.779665579372221  0.38364883600602434  1.0000
  H   H24       1.0  0.9954159209027864  0.22030535246870636  0.8836560408932214  1.0000
  H   H25       1.0  0.10568469228642388  0.5810617249675759  0.5501332263338624  1.0000
  H   H26       1.0  0.394344248095031  0.41897453847737853  0.05013196580901538  1.0000
  H   H27       1.0  0.6056442813913138  0.9189354064796759  0.44986499516417666  1.0000
  H   H28       1.0  0.89429368886001  0.08103218316094293  0.9498709996279826  1.0000
  H   H29       1.0  0.3954965742180292  0.7992826506270774  0.7083994824578425  1.0000
  H   H30       1.0  0.10450751474318308  0.20072266127321106  0.20839348152178155  1.0000
  H   H31       1.0  0.895509163511896  0.7007279831162735  0.2916013862753743  1.0000
  H   H32       1.0  0.6045088713592861  0.29926711398197636  0.7916006939766544  1.0000
  H   H33       1.0  0.22385847732032  0.0022482354078974  0.6361478806176065  1.0000
  H   H34       1.0  0.2761853081841963  0.9977653159037132  0.1361483244236226  1.0000
  H   H35       1.0  0.7238270623517096  0.4977577708360599  0.3638472206883349  1.0000
  H   H36       1.0  0.776136044713347  0.5022325311846386  0.8638566442528982  1.0000
  H   H37       1.0  0.0810864042475501  0.08904141769118469  0.5651740562293666  1.0000
  H   H38       1.0  0.418964649106698  0.9109676785165918  0.0651751061959445  1.0000
  H   H39       1.0  0.581042625515657  0.410961879361345  0.4348230584744285  1.0000
  H   H40       1.0  0.918913213524661  0.5890248404659956  0.9348289659534853  1.0000
  C   C1        1.0  0.4598796259560913  0.1495419878261899  0.5778814712309454  1.0000
  C   C2        1.0  0.0401536729688274  0.8504756524112552  0.0778810906910934  1.0000
  C   C3        1.0  0.9598475692531494  0.3504688950623206  0.4221166152968933  1.0000
  C   C4        1.0  0.540124120519657  0.6495196143706181  0.9221214511705327  1.0000
  C   C5        1.0  0.5364606855140863  0.3105650404766465  0.6018954868918769  1.0000
  C   C6        1.0  0.9635665984930313  0.6894580022758562  0.10189475779876027  1.0000
  C   C7        1.0  0.0364249144353508  0.18945039864024688  0.3981052584228308  1.0000
  C   C8        1.0  0.46354898259463073  0.810539597358641  0.8981045668369559  1.0000
  C   C9        1.0  0.4093262067157184  0.5319375869037232  0.67526910210276  1.0000
  C   C10       1.0  0.0906794974644782  0.4680716934596065  0.17526474671981154  1.0000
  C   C11       1.0  0.9093127420571888  0.9680697532387509  0.3247361471971288  1.0000
  C   C12       1.0  0.5906789266923981  0.0319225232169771  0.8247339828998077  1.0000
  C   C13       1.0  0.4101849489673127  0.6701352369025032  0.6198938289325324  1.0000
  C   C14       1.0  0.08982535870220688  0.3298733937234458  0.11989265768725937  1.0000
  C   C15       1.0  0.9101713181392272  0.829872112754437  0.38010638925375406  1.0000
  C   C16       1.0  0.589802419839522  0.17011162811279956  0.8801032853484256  1.0000
  C   C17       1.0  0.15962729300066772  0.688404783590805  0.5780604086411996  1.0000
  C   C18       1.0  0.3403945740269094  0.3116231812250874  0.07805842108902537  1.0000
  C   C19       1.0  0.659605239029638  0.8115940858877408  0.4219374740647338  1.0000
  C   C20       1.0  0.8403512280313664  0.18837950618045338  0.9219409742220317  1.0000
  C   C21       1.0  0.2031575460415596  0.5561168186887216  0.7342056980516247  1.0000
  C   C22       1.0  0.296841476772471  0.4438848941776996  0.23420645372928553  1.0000
  C   C23       1.0  0.7031632004123978  0.9438710450267039  0.2657924696985744  1.0000
  C   C24       1.0  0.796838957589287  0.05612305823758851  0.7657915396699477  1.0000
  N   N1        1.0  0.20791778323913954  0.10432447682288172  0.6077838772631947  1.0000
  N   N2        1.0  0.2921216733433241  0.8956870614918345  0.10778421470363497  1.0000
  N   N3        1.0  0.7078850393173041  0.39567905873077075  0.39221299939828197  1.0000
  N   N4        1.0  0.7920823965717501  0.6043086635475845  0.892219537055844  1.0000
  N   N5        1.0  0.3594022101100691  0.38594810354604203  0.6399224769080119  1.0000
  N   N6        1.0  0.1406166406718299  0.6140664052877085  0.13992347905381308  1.0000
  N   N7        1.0  0.8593740036744038  0.1140651253121732  0.3600795910099918  1.0000
  N   N8        1.0  0.6406083263438447  0.8859242190846999  0.8600773150961913  1.0000
  O   O1        1.0  0.755823711573008  0.36124622274473955  0.5856754016591308  1.0000
  O   O2        1.0  0.7442024593231196  0.6387753423377589  0.0856726925261526  1.0000
  O   O3        1.0  0.2558005170008215  0.13876702186537673  0.41432899189031497  1.0000
  O   O4        1.0  0.24416878139184203  0.8612255998831202  0.9143257759541324  1.0000
  O   O5        1.0  0.025015222432053  0.45904725533529966  0.7419480720800136  1.0000
  O   O6        1.0  0.47499103862128317  0.5409598077080063  0.24194888667581435  1.0000
  O   O7        1.0  0.524993109547374  0.04096002151138121  0.2580505114522963  1.0000
  O   O8        1.0  0.9750151374787351  0.9590310279269049  0.7580520413681241  1.0000
  O   O9        1.0  0.21763045633719  0.6804146042615997  0.7720536867234101  1.0000
  O   O10       1.0  0.2823629135049615  0.31958290206480194  0.27205085989326244  1.0000
  O   O11       1.0  0.7176333849866765  0.8195929365263767  0.22795332466408513  1.0000
  O   O12       1.0  0.7823839450780099  0.1804007802666163  0.7279516917883625  1.0000
  O   O13       1.0  0.47820909910218745  0.8086305464573372  0.6589449533845693  1.0000
  O   O14       1.0  0.0218126323521162  0.19138759523164592  0.15893789816453108  1.0000
  O   O15       1.0  0.9782056063011809  0.6913855840991873  0.34105986329570465  1.0000
  O   O16       1.0  0.5217890744491527  0.3086058685307975  0.8410562382494786  1.0000
