data_image0
_chemical_formula_structural       CdH12C14S2N4
_chemical_formula_sum              "Cd1 H12 C14 S2 N4"
_cell_length_a       5.697096450164594
_cell_length_b       6.372197581524122
_cell_length_c       11.769457172522952
_cell_angle_alpha    111.35137594509344
_cell_angle_beta     93.93754595117925
_cell_angle_gamma    99.91418471200431

_space_group_name_H-M_alt    "P 1"
_space_group_IT_number       1

loop_
  _space_group_symop_operation_xyz
  'x, y, z'

loop_
  _atom_site_type_symbol
  _atom_site_label
  _atom_site_symmetry_multiplicity
  _atom_site_fract_x
  _atom_site_fract_y
  _atom_site_fract_z
  _atom_site_occupancy
  Cd  Cd1       1.0  7.49183625642817e-05  0.5000242759740487  1.0526492481173954e-05  1.0000
  H   H1        1.0  0.9575949475309571  0.019529871377749006  0.8675281202008307  1.0000
  H   H2        1.0  0.042382873431598994  0.9804971790458198  0.13248356647701343  1.0000
  H   H3        1.0  0.8021934738681793  0.1381127146096688  0.7940801486448663  1.0000
  H   H4        1.0  0.19781414537314396  0.8619617210190783  0.20595197395568476  1.0000
  H   H5        1.0  0.5559066291323447  0.8052239219894306  0.634544315053965  1.0000
  H   H6        1.0  0.4440751132615546  0.19478597351239557  0.3654600681450049  1.0000
  H   H7        1.0  0.306716620886391  0.8848598106918146  0.799491156756275  1.0000
  H   H8        1.0  0.6933070021411609  0.11518756155003727  0.20053403380300236  1.0000
  H   H9        1.0  0.2550345152702818  0.2662822807871024  0.501821293553867  1.0000
  H   H10       1.0  0.7448602907013964  0.7336372646105858  0.49814268714929  1.0000
  H   H11       1.0  0.9986011053627022  0.33390729500062827  0.6630403406870967  1.0000
  H   H12       1.0  0.0013212171915525782  0.6660285968373216  0.3369338852645285  1.0000
  C   C1        1.0  0.48353441061676955  0.34278001715027523  0.09344527550404538  1.0000
  C   C2        1.0  0.516594479559643  0.6572421818933519  0.9065577476165315  1.0000
  C   C3        1.0  0.4278897776706714  0.026928141353962997  0.5515546930873966  1.0000
  C   C4        1.0  0.5720505706581065  0.9730393379399729  0.4484347746449515  1.0000
  C   C5        1.0  0.13091813617877793  0.11091998463260205  0.741120976662401  1.0000
  C   C6        1.0  0.8690565451605962  0.8890707655776638  0.2588760915734625  1.0000
  C   C7        1.0  0.4377289351341388  0.9249354412587394  0.6394263167916776  1.0000
  C   C8        1.0  0.5622332571169579  0.07505503930755  0.3605726968106424  1.0000
  C   C9        1.0  0.2943352466443159  0.9670984946432242  0.7332652771758602  1.0000
  C   C10       1.0  0.705657599128067  0.0329152514777817  0.266744572594483  1.0000
  C   C11       1.0  0.27092260552230835  0.18026434506204936  0.5658750064222245  1.0000
  C   C12       1.0  0.7289949730485572  0.8196834174421355  0.43410124256241284  1.0000
  C   C13       1.0  0.12461647071203427  0.22096895155156912  0.6578782565124399  1.0000
  C   C14       1.0  0.875315486834495  0.7789809891410184  0.34210158971688287  1.0000
  S   S1        1.0  0.2501852800211779  0.37576716816694505  0.1660031227462611  1.0000
  S   S2        1.0  0.7499491999822823  0.6242758740869405  0.8340083195099693  1.0000
  N   N1        1.0  0.9726693766471114  0.1449304493985579  0.8314888055925992  1.0000
  N   N2        1.0  0.027338325584224766  0.8550956074057368  0.16852061926212514  1.0000
  N   N3        1.0  0.651764539643672  0.3136455828367843  0.04044806568043671  1.0000
  N   N4        1.0  0.3483595478827866  0.6863610800592072  0.9595526714284689  1.0000
