data_image0
_chemical_formula_structural       Mn2H28C28S4N4O10
_chemical_formula_sum              "Mn2 H28 C28 S4 N4 O10"
_cell_length_a       5.719973418739735
_cell_length_b       8.815051323078132
_cell_length_c       17.55703759209017
_cell_angle_alpha    101.14272701092318
_cell_angle_beta     90.01166584721278
_cell_angle_gamma    109.25451942724703

_space_group_name_H-M_alt    "P 1"
_space_group_IT_number       1

loop_
  _space_group_symop_operation_xyz
  'x, y, z'

loop_
  _atom_site_type_symbol
  _atom_site_label
  _atom_site_symmetry_multiplicity
  _atom_site_fract_x
  _atom_site_fract_y
  _atom_site_fract_z
  _atom_site_occupancy
  Mn  Mn1       1.0  0.48124148699336877  0.9980408013751824  0.749793230215502  1.0000
  Mn  Mn2       1.0  0.518739815387285  0.001959652003527885  0.25021056861940133  1.0000
  H   H1        1.0  0.023761836441259704  0.9872172257617748  0.797910956066289  1.0000
  H   H2        1.0  0.9671955968676542  0.9908545316141469  0.29587317741147245  1.0000
  H   H3        1.0  0.9762223952168297  0.012782090824238397  0.20208477660468557  1.0000
  H   H4        1.0  0.032807247967454586  0.009147024210797394  0.7041209944297363  1.0000
  H   H5        1.0  0.44316985956456983  0.7644414778732764  0.9619683316264513  1.0000
  H   H6        1.0  0.32367973749911977  0.7677114722924399  0.462759449537593  1.0000
  H   H7        1.0  0.5568284882077422  0.23555811179995345  0.03803769707167249  1.0000
  H   H8        1.0  0.6763281856026353  0.23228283332654337  0.5372433781246853  1.0000
  H   H9        1.0  0.670883649159343  0.9400420361774237  0.018622617410805696  1.0000
  H   H10       1.0  0.2737672408473415  0.9440747192805646  0.5179142812738675  1.0000
  H   H11       1.0  0.329116122485182  0.0599569034077447  0.9813788019664926  1.0000
  H   H12       1.0  0.726248362368544  0.05592441469885049  0.48208829589187013  1.0000
  H   H13       1.0  0.9629285783753333  0.2380236796587241  0.8510755063167608  1.0000
  H   H14       1.0  0.27056256535459505  0.23941251295862995  0.3506778565559543  1.0000
  H   H15       1.0  0.03705894077863542  0.7619683015839553  0.1489283053463382  1.0000
  H   H16       1.0  0.7294259736301  0.7606057386175777  0.6493145603222173  1.0000
  H   H17       1.0  0.08997732156031904  0.5064005867466791  0.9412229177767344  1.0000
  H   H18       1.0  0.4138639420680903  0.5070780714475163  0.4416013893736164  1.0000
  H   H19       1.0  0.9100237670511505  0.49360096607952636  0.05877981606433019  1.0000
  H   H20       1.0  0.5861379384672248  0.49293890107335164  0.5583903749933014  1.0000
  H   H21       1.0  0.45460635217284556  0.5900379434376217  0.8450709624701316  1.0000
  H   H22       1.0  0.13569443842661139  0.5942226391196854  0.34620081305276057  1.0000
  H   H23       1.0  0.5454026865240565  0.4099655011867753  0.1549279020452445  1.0000
  H   H24       1.0  0.8643072500468421  0.4057696960081216  0.6537967456964822  1.0000
  H   H25       1.0  0.3635447501997007  0.3208663069691582  0.7556269190957535  1.0000
  H   H26       1.0  0.9560080664236706  0.325380307667139  0.2565112520449944  1.0000
  H   H27       1.0  0.6364586462136045  0.6791398188054031  0.24437383376194785  1.0000
  H   H28       1.0  0.043987299669097986  0.674609894032983  0.7434884479034238  1.0000
  C   C1        1.0  0.694329338743067  0.9248207110949592  0.8946618443487608  1.0000
  C   C2        1.0  0.23143068806572817  0.9231965750436257  0.3934078527666287  1.0000
  C   C3        1.0  0.3056624636631468  0.07517976295763157  0.1053419580266137  1.0000
  C   C4        1.0  0.7685843394976004  0.07678754680588179  0.6065914498877092  1.0000
  C   C5        1.0  0.6379162729028564  0.8437937658286428  0.9653742953579963  1.0000
  C   C6        1.0  0.20815089019070124  0.8460194538386075  0.4653460348447707  1.0000
  C   C7        1.0  0.3620770132949573  0.15620271356197432  0.0346269602630187  1.0000
  C   C8        1.0  0.7918654568003021  0.15397421547489637  0.5346521858569914  1.0000
  C   C9        1.0  0.8559352645194948  0.3199715478190441  0.8507519869790058  1.0000
  C   C10       1.0  0.460818259242906  0.3218255841249159  0.3509250015488376  1.0000
  C   C11       1.0  0.14405410778536512  0.6800241082100482  0.14925206766315569  1.0000
  C   C12       1.0  0.539174206568255  0.6781900649941051  0.6490746652257257  1.0000
  C   C13       1.0  0.9240102444990441  0.4696904387248323  0.9022360291914422  1.0000
  C   C14       1.0  0.5434292151599608  0.4712485846854478  0.4027247495638804  1.0000
  C   C15       1.0  0.07598581954579223  0.5303150201803318  0.09776867398495878  1.0000
  C   C16       1.0  0.45656201897590876  0.528757679906107  0.5972685890510545  1.0000
  C   C17       1.0  0.7733576942304264  0.5690704251194914  0.9057720210245959  1.0000
  C   C18       1.0  0.7946479337647432  0.5714138049763305  0.4066190468995075  1.0000
  C   C19       1.0  0.22664213733349206  0.4309251698917719  0.09423146091916827  1.0000
  C   C20       1.0  0.20535392023547414  0.42858579114128753  0.5933784203888448  1.0000
  C   C21       1.0  0.573151209944534  0.5170095470692786  0.8492320566903186  1.0000
  C   C22       1.0  0.9430957802499761  0.520623599207795  0.35011875968925205  1.0000
  C   C23       1.0  0.4268516095183088  0.48299543546819723  0.15076919141321804  1.0000
  C   C24       1.0  0.05690308831204757  0.47937354360657025  0.6498785450229787  1.0000
  C   C25       1.0  0.5215025132796499  0.3658664257287114  0.7986477989239588  1.0000
  C   C26       1.0  0.8427054421247249  0.36981989128496906  0.2992796572074568  1.0000
  C   C27       1.0  0.4784998515322485  0.6341376586468073  0.20135567314201097  1.0000
  C   C28       1.0  0.15729013026130878  0.6301776530966731  0.7007205275189319  1.0000
  S   S1        1.0  0.8468970281534922  0.7378181770012446  0.9824309249598001  1.0000
  S   S2        1.0  0.8929241880024603  0.7398407923383914  0.48344228547296086  1.0000
  S   S3        1.0  0.1531034211273976  0.26217864293882087  0.017572637976982695  1.0000
  S   S4        1.0  0.10708552833079209  0.26016053264090283  0.5165587226019069  1.0000
  N   N1        1.0  0.6534006327665836  0.2644405456173899  0.8003250310466115  1.0000
  N   N2        1.0  0.6081472782951352  0.26749511530212533  0.3006338104120942  1.0000
  N   N3        1.0  0.34659506191896844  0.7355572438393948  0.1996768823963677  1.0000
  N   N4        1.0  0.391845351879951  0.7325069916909328  0.6993643915606924  1.0000
  O   O1        1.0  0.5086464541589565  0.9391282989610019  0.8601040537361158  1.0000
  O   O2        1.0  0.4362022697701846  0.9438821171963098  0.36091610880357894  1.0000
  O   O3        1.0  0.4913383469323094  0.0608860302018286  0.13990351603617768  1.0000
  O   O4        1.0  0.5638303380708578  0.0561160713859152  0.6390881219865107  1.0000
  O   O5        1.0  0.9166853346759966  0.9730774881894534  0.877308102104152  1.0000
  O   O6        1.0  0.05126157904278726  0.9617275788449575  0.37299106806094057  1.0000
  O   O7        1.0  0.083296798069334  0.02689686034408819  0.12268255681369307  1.0000
  O   O8        1.0  0.9487521569258632  0.038250503050989  0.6269998438673099  1.0000
  O   O9        1.0  0.12098240367268412  0.9905620843526746  0.7496883867662162  1.0000
  O   O10       1.0  0.8790237730483811  0.009459955159385892  0.2503134172305152  1.0000
