data_image0
_chemical_formula_structural       ZnH26C22N4O6
_chemical_formula_sum              "Zn1 H26 C22 N4 O6"
_cell_length_a       5.228274760187988
_cell_length_b       7.580686529548058
_cell_length_c       13.9512755794458
_cell_angle_alpha    99.54507459348999
_cell_angle_beta     100.81674683690083
_cell_angle_gamma    90.01057931156083

_space_group_name_H-M_alt    "P 1"
_space_group_IT_number       1

loop_
  _space_group_symop_operation_xyz
  'x, y, z'

loop_
  _atom_site_type_symbol
  _atom_site_label
  _atom_site_symmetry_multiplicity
  _atom_site_fract_x
  _atom_site_fract_y
  _atom_site_fract_z
  _atom_site_occupancy
  Zn  Zn1       1.0  0.07069894979866831  0.9996384973346721  0.9999251937950221  1.0000
  H   H1        1.0  0.4311661543772445  0.6762070067557244  0.0014743521434183793  1.0000
  H   H2        1.0  0.4295319427609456  0.32323431689228954  0.9984122888064492  1.0000
  H   H3        1.0  0.2674499825935825  0.6416358270614636  0.0979100601643594  1.0000
  H   H4        1.0  0.16903317685565605  0.3577317964466999  0.9020383891674584  1.0000
  H   H5        1.0  0.09751875286228541  0.5509394134854873  0.22873676005014695  1.0000
  H   H6        1.0  0.8674761336249401  0.4488962415549834  0.771142031654776  1.0000
  H   H7        1.0  0.9017937494618025  0.5011952477138237  0.3642292827420022  1.0000
  H   H8        1.0  0.5367399403389329  0.49855267360234745  0.63555759928132  1.0000
  H   H9        1.0  0.7267196361279674  0.3070711700652425  0.2950699983055146  1.0000
  H   H10       1.0  0.43016155823583796  0.6923505436865655  0.7046307328348433  1.0000
  H   H11       1.0  0.3805781785922093  0.4737765794116839  0.44289490186807273  1.0000
  H   H12       1.0  0.937581337307144  0.5268979442378026  0.5573423148858866  1.0000
  H   H13       1.0  0.7228210451645012  0.2682517641215654  0.5019525005749088  1.0000
  H   H14       1.0  0.22006414534011756  0.7331878058066011  0.49857136769209387  1.0000
  H   H15       1.0  0.6712188905079015  0.9420020263629851  0.4423362020819397  1.0000
  H   H16       1.0  0.2264632966064967  0.0593330235463867  0.558041324183641  1.0000
  H   H17       1.0  0.26547389810509975  0.8183501267126515  0.3229998897927829  1.0000
  H   H18       1.0  0.9391729957926744  0.18214127747663164  0.6771877096604016  1.0000
  H   H19       1.0  0.924392692807217  0.0206964718692859  0.2660461731023318  1.0000
  H   H20       1.0  0.6556995519486081  0.9789568614569858  0.7338734809612646  1.0000
  H   H21       1.0  0.32452404657455963  0.943487876609062  0.16578314787926732  1.0000
  H   H22       1.0  0.1582396653739053  0.055922541654851415  0.8341212493464809  1.0000
  H   H23       1.0  0.5367392391221272  0.9827886244889115  0.0980782589163027  1.0000
  H   H24       1.0  0.43830723096591845  0.016701242037413525  0.9018057966057074  1.0000
  H   H25       1.0  0.5363327759368204  0.4385248706996664  0.16101090561526382  1.0000
  H   H26       1.0  0.3741083902530846  0.5608893253784756  0.8387959160975313  1.0000
  C   C1        1.0  0.42714310268410577  0.7166080422688309  0.08047080590941388  1.0000
  C   C2        1.0  0.3463274481648355  0.2829100497022168  0.9194331855529471  1.0000
  C   C3        1.0  0.6926338352065784  0.6742820139256693  0.1365571547558275  1.0000
  C   C4        1.0  0.5555066031885616  0.32541959777894647  0.8633416918074772  1.0000
  C   C5        1.0  0.9472513993879305  0.44346915940563036  0.21232342931190834  1.0000
  C   C6        1.0  0.7336987735710708  0.5563869593391361  0.7875291612666049  1.0000
  C   C7        1.0  0.04171667773474749  0.2926372707939109  0.1400941100187012  1.0000
  C   C8        1.0  0.9006249104734678  0.7072114728241489  0.8597644722929517  1.0000
  C   C9        1.0  0.9152460046893867  0.380230770132755  0.309799477790584  1.0000
  C   C10       1.0  0.6042668715417036  0.6195223100892518  0.6900506440036551  1.0000
  C   C11       1.0  0.1262267024038337  0.2619654108292835  0.3501839264075315  1.0000
  C   C12       1.0  0.7747039251158937  0.7381360835535775  0.649869134439264  1.0000
  C   C13       1.0  0.3527926843825568  0.3296457882052053  0.4172286114206756  1.0000
  C   C14       1.0  0.9346987624327526  0.6709714672999213  0.5829886593110132  1.0000
  C   C15       1.0  0.546295514315716  0.21462523664934  0.4503502502424581  1.0000
  C   C16       1.0  0.09485511660570718  0.7864303335767318  0.5500679648531134  1.0000
  C   C17       1.0  0.5188454599060748  0.030404679119406808  0.4163592260971285  1.0000
  C   C18       1.0  0.1003260383352327  0.9706455965421696  0.5839757196011562  1.0000
  C   C19       1.0  0.2932886042014999  0.9619495876916916  0.3499402129957901  1.0000
  C   C20       1.0  0.9405386427657804  0.03864090998931861  0.6501871713801535  1.0000
  C   C21       1.0  0.09853695611538169  0.07653045152616042  0.3180966474538067  1.0000
  C   C22       1.0  0.7781504904589553  0.9235408879787812  0.6819238265113654  1.0000
  N   N1        1.0  0.371473145537621  0.9082665866964774  0.09722363588332432  1.0000
  N   N2        1.0  0.2739517790537818  0.0912423908794295  0.9026628927934937  1.0000
  N   N3        1.0  0.7046379212216891  0.516467595949969  0.1693945318718519  1.0000
  N   N4        1.0  0.5341473646137872  0.4831568349473797  0.8303979835245769  1.0000
  O   O1        1.0  0.8839405105651821  0.7784338025916567  0.14625139234532722  1.0000
  O   O2        1.0  0.7373360862295187  0.22149496390032652  0.8537130943441725  1.0000
  O   O3        1.0  0.28306482088019175  0.28556490532824347  0.14201740747340352  1.0000
  O   O4        1.0  0.14019775196967998  0.7138948652915786  0.8580074101029143  1.0000
  O   O5        1.0  0.8742115751746978  0.17918794921642703  0.08278268310303359  1.0000
  O   O6        1.0  0.7905836203648491  0.8207499058956388  0.9170411829681059  1.0000
