data_image0
_chemical_formula_structural       Cu4H10C6I4N6
_chemical_formula_sum              "Cu4 H10 C6 I4 N6"
_cell_length_a       7.843949522439861
_cell_length_b       8.081473926925932
_cell_length_c       8.08471378676554
_cell_angle_alpha    115.95417932651485
_cell_angle_beta     99.39216423216568
_cell_angle_gamma    104.12105759009036

_space_group_name_H-M_alt    "P 1"
_space_group_IT_number       1

loop_
  _space_group_symop_operation_xyz
  'x, y, z'

loop_
  _atom_site_type_symbol
  _atom_site_label
  _atom_site_symmetry_multiplicity
  _atom_site_fract_x
  _atom_site_fract_y
  _atom_site_fract_z
  _atom_site_occupancy
  Cu  Cu1       1.0  0.8893143136155359  0.9744876501221925  0.8502084601314123  1.0000
  Cu  Cu2       1.0  0.11069284527820138  0.025515530698115203  0.1497907130794829  1.0000
  Cu  Cu3       1.0  0.6644059301346558  0.009770247529864697  0.08286307260691218  1.0000
  Cu  Cu4       1.0  0.3355920958660902  0.9902211728546391  0.9171307258208045  1.0000
  H   H1        1.0  0.28711319389758216  0.6748334788946978  0.4624229581392499  1.0000
  H   H2        1.0  0.712867061737981  0.32513588981468905  0.5375620514784386  1.0000
  H   H3        1.0  0.9306316359817185  0.4889737221269783  0.1936939284106245  1.0000
  H   H4        1.0  0.06935754800934292  0.5110221303690566  0.806311550470042  1.0000
  H   H5        1.0  0.62111807653298  0.652381540453874  0.493523398762406  1.0000
  H   H6        1.0  0.37888898088999673  0.34764817190654185  0.5064911253812953  1.0000
  H   H7        1.0  0.6141788262006997  0.48629845194248833  0.2526526612193223  1.0000
  H   H8        1.0  0.38581621719185927  0.5137224515552248  0.747361039769629  1.0000
  H   H9        1.0  0.6500407432007691  0.7387323984544382  0.3260469087201018  1.0000
  H   H10       1.0  0.3499718761027779  0.26128698177704013  0.6739590084595263  1.0000
  C   C1        1.0  0.1580052471628406  0.6940179634721986  0.47913152564649425  1.0000
  C   C2        1.0  0.8420096490513628  0.3059660004046095  0.5208666134966009  1.0000
  C   C3        1.0  0.9840698413576873  0.6025519792711621  0.34493151531182054  1.0000
  C   C4        1.0  0.015906654899232795  0.39741007759889163  0.6550323705122381  1.0000
  C   C5        1.0  0.6772592060428051  0.6374448313470324  0.3741997301505648  1.0000
  C   C6        1.0  0.3227328666216849  0.36256726334666206  0.6257997355753275  1.0000
  I   I1        1.0  0.7908108518964384  0.7075762539858915  0.9595910329776558  1.0000
  I   I2        1.0  0.20920453829054958  0.29242834098341314  0.0404199590210794  1.0000
  I   I3        1.0  0.633664872715748  0.12178114758273749  0.8255221192483118  1.0000
  I   I4        1.0  0.3663377165870755  0.8782161418635043  0.17447869033997432  1.0000
  N   N1        1.0  0.9733149475801355  0.8179384716250411  0.6280782824341458  1.0000
  N   N2        1.0  0.026697570453492903  0.18206910679212032  0.3719249075673545  1.0000
  N   N3        1.0  0.14626745546316042  0.8233452879457489  0.6508738637569921  1.0000
  N   N4        1.0  0.8537420765695103  0.17665342748030352  0.3491360921450735  1.0000
  N   N5        1.0  0.8746610063949161  0.6828452819757801  0.4431891025373957  1.0000
  N   N6        1.0  0.12532758844142924  0.3171564932802012  0.556810226882483  1.0000
