data_image0
_chemical_formula_structural       Sr2H28C16N4O20
_chemical_formula_sum              "Sr2 H28 C16 N4 O20"
_cell_length_a       6.054738165025724
_cell_length_b       10.171732305665001
_cell_length_c       10.953773386101226
_cell_angle_alpha    111.87948017348198
_cell_angle_beta     90.00026911653701
_cell_angle_gamma    89.9997167174576

_space_group_name_H-M_alt    "P 1"
_space_group_IT_number       1

loop_
  _space_group_symop_operation_xyz
  'x, y, z'

loop_
  _atom_site_type_symbol
  _atom_site_label
  _atom_site_symmetry_multiplicity
  _atom_site_fract_x
  _atom_site_fract_y
  _atom_site_fract_z
  _atom_site_occupancy
  Sr  Sr1       1.0  0.4450980510718026  0.1401930514450811  0.9966033781168947  1.0000
  Sr  Sr2       1.0  0.5549008948692133  0.6401961502892064  0.9966050627630666  1.0000
  H   H1        1.0  0.978881275983099  0.0333659149890266  0.02550335205736331  1.0000
  H   H2        1.0  0.021116898241835703  0.5333638428173301  0.025501820710672987  1.0000
  H   H3        1.0  0.0357738729098713  0.12251683986988132  0.17486350965363334  1.0000
  H   H4        1.0  0.9642264856995768  0.622514800377381  0.17486353628396498  1.0000
  H   H5        1.0  0.0358177546866258  0.15724589079657386  0.8178888982090131  1.0000
  H   H6        1.0  0.9641828327031521  0.6572491648227936  0.8178889730924795  1.0000
  H   H7        1.0  0.978853019538441  0.2464993479268003  0.9671982124973726  1.0000
  H   H8        1.0  0.0211464477578005  0.7465015050516043  0.9671990860122508  1.0000
  H   H9        1.0  0.8425611708692101  0.29618891627958976  0.18249458534945256  1.0000
  H   H10       1.0  0.15743451172038186  0.796188660179759  0.18249405008679542  1.0000
  H   H11       1.0  0.816283470065123  0.40208727269710914  0.1070259008990604  1.0000
  H   H12       1.0  0.1837139969256043  0.9020901282062468  0.10702744470072638  1.0000
  H   H13       1.0  0.8162038859988029  0.8777694586017545  0.8858465883787261  1.0000
  H   H14       1.0  0.18379545402517294  0.37776797475556384  0.8858475308514144  1.0000
  H   H15       1.0  0.842189386576436  0.9838352553906236  0.810542024378407  1.0000
  H   H16       1.0  0.15780843466323088  0.48383277807750613  0.810541635697142  1.0000
  H   H17       1.0  0.1306618532825041  0.8751250618187071  0.5917448375164583  1.0000
  H   H18       1.0  0.8693366578836432  0.37512949604455764  0.5917469163811333  1.0000
  H   H19       1.0  0.13172496723541371  0.4052123146867501  0.40149990877863934  1.0000
  H   H20       1.0  0.868273327795059  0.9052115394462205  0.40150104409236326  1.0000
  H   H21       1.0  0.659360873766488  0.5025594228854685  0.38986124622282864  1.0000
  H   H22       1.0  0.34063735238414944  0.0025607771523468003  0.38986268585757244  1.0000
  H   H23       1.0  0.6418300366844676  0.6685342703913548  0.37166560567698065  1.0000
  H   H24       1.0  0.3581716154279846  0.16853769629367574  0.3716687347308039  1.0000
  H   H25       1.0  0.6586438452703263  0.7789138759837897  0.6036276176417275  1.0000
  H   H26       1.0  0.34135391190248754  0.27891415281980875  0.6036305050052847  1.0000
  H   H27       1.0  0.6421996376879521  0.6128630692571451  0.6217653797589194  1.0000
  H   H28       1.0  0.3578079064526706  0.1128611989956383  0.6217666397012354  1.0000
  C   C1        1.0  0.3263964989920893  0.5700124471699226  0.3736711602951247  1.0000
  C   C2        1.0  0.6736059858002008  0.0700151725971807  0.3736748648425916  1.0000
  C   C3        1.0  0.2024253926972222  0.7127183551613073  0.41202253287679014  1.0000
  C   C4        1.0  0.7975729338057107  0.2127187276116373  0.4120211659486445  1.0000
  C   C5        1.0  0.32613105592032104  0.710661515499737  0.6196782139668856  1.0000
  C   C6        1.0  0.6738723576493014  0.210661045706189  0.6196826180435197  1.0000
  C   C7        1.0  0.2028429158063219  0.5677384757405478  0.5812754912178805  1.0000
  C   C8        1.0  0.7971597026001547  0.06773563803949402  0.5812766426855092  1.0000
  C   C9        1.0  0.5690676695321528  0.6034408375070939  0.4216405861641235  1.0000
  C   C10       1.0  0.43093494666639737  0.10344093186197509  0.4216418168498421  1.0000
  C   C11       1.0  0.5689408274099464  0.6778340773784278  0.5718310169290106  1.0000
  C   C12       1.0  0.43106575400111063  0.17783417144723762  0.5718322478497556  1.0000
  C   C13       1.0  0.33204141958633215  0.4775064827674527  0.2260578304480205  1.0000
  C   C14       1.0  0.6679597390367392  0.9775061276954632  0.22606133046127044  1.0000
  C   C15       1.0  0.33173848043986004  0.8030514506518711  0.7673108856466941  1.0000
  C   C16       1.0  0.6682588179665955  0.30305633140412874  0.7673125976559093  1.0000
  N   N1        1.0  0.21901266233178526  0.783709573832752  0.5422225272645704  1.0000
  N   N2        1.0  0.7809878358755854  0.28371206079803823  0.5422264277267176  1.0000
  N   N3        1.0  0.21975833368247072  0.496741709126468  0.45109732037402495  1.0000
  N   N4        1.0  0.78024623200303  0.9967432563850879  0.4510981324031819  1.0000
  O   O1        1.0  0.09812002333787723  0.0537125817505242  0.09302738030546462  1.0000
  O   O2        1.0  0.9018802085615434  0.5537117565475497  0.09302584676714787  1.0000
  O   O3        1.0  0.0937513257706044  0.7551758712693939  0.3360657000338989  1.0000
  O   O4        1.0  0.9062443514083895  0.2551748936672383  0.33606961801400814  1.0000
  O   O5        1.0  0.0981243929931495  0.22613838431922062  0.8997070144566809  1.0000
  O   O6        1.0  0.9018746686273359  0.7261386020793738  0.8997076747074148  1.0000
  O   O7        1.0  0.09432509747113471  0.5250978349089053  0.6571774884226826  1.0000
  O   O8        1.0  0.9056801713330388  0.025096875013744604  0.6571795852551503  1.0000
  O   O9        1.0  0.7886839815340067  0.3026423987550332  0.1004713830083759  1.0000
  O   O10       1.0  0.2113142529424863  0.8026430824044652  0.10047131973282572  1.0000
  O   O11       1.0  0.2786224934930033  0.3490639782392649  0.19385126823027582  1.0000
  O   O12       1.0  0.7213860608109073  0.8490645557070664  0.19385614945375812  1.0000
  O   O13       1.0  0.7884285608946158  0.9772503958261538  0.8925333520302986  1.0000
  O   O14       1.0  0.2115601028794742  0.47724990148581975  0.8925356289112544  1.0000
  O   O15       1.0  0.4032198213034662  0.5390819093870293  0.15340482117781562  1.0000
  O   O16       1.0  0.5967793938441658  0.039080576056562705  0.15340598075310652  1.0000
  O   O17       1.0  0.4029609516270867  0.7413484272297383  0.8398359935227334  1.0000
  O   O18       1.0  0.5970374746427325  0.2413556013771228  0.8398365028585603  1.0000
  O   O19       1.0  0.27827582382167293  0.9315070649316227  0.7996086635198837  1.0000
  O   O20       1.0  0.7217074731686067  0.4315139539894092  0.7996103103785402  1.0000
