data_image0
_chemical_formula_structural       Cd2H40C32S4N12
_chemical_formula_sum              "Cd2 H40 C32 S4 N12"
_cell_length_a       5.903651065737652
_cell_length_b       11.085537158909723
_cell_length_c       14.314934099773959
_cell_angle_alpha    89.99999512780815
_cell_angle_beta     98.92560126958442
_cell_angle_gamma    89.99918283034343

_space_group_name_H-M_alt    "P 1"
_space_group_IT_number       1

loop_
  _space_group_symop_operation_xyz
  'x, y, z'

loop_
  _atom_site_type_symbol
  _atom_site_label
  _atom_site_symmetry_multiplicity
  _atom_site_fract_x
  _atom_site_fract_y
  _atom_site_fract_z
  _atom_site_occupancy
  Cd  Cd1       1.0  8.078707679701889e-06  0.9999945353349772  0.9999897966212289  1.0000
  Cd  Cd2       1.0  2.3004210007102354e-05  0.5000026792798451  0.5000016420980701  1.0000
  H   H1        1.0  0.3505554558091007  0.22726716835721564  0.007432412142478001  1.0000
  H   H2        1.0  0.3505826007753967  0.27272083213134113  0.5074226727185903  1.0000
  H   H3        1.0  0.6494376169540886  0.7727169486178767  0.9925616592053857  1.0000
  H   H4        1.0  0.6494583762054235  0.7272650882538942  0.4925687270075373  1.0000
  H   H5        1.0  0.37161828943034453  0.43548021768515355  0.9544900010840465  1.0000
  H   H6        1.0  0.3716249012245001  0.0645060178393777  0.45447957845777154  1.0000
  H   H7        1.0  0.6283919812141292  0.5645038986841371  0.045507911859680006  1.0000
  H   H8        1.0  0.628364599226302  0.9354790018398873  0.5455065908954282  1.0000
  H   H9        1.0  0.6658937223252366  0.3952374352270597  0.8133767931749604  1.0000
  H   H10       1.0  0.6658915456475044  0.1047834647112538  0.3133783391596553  1.0000
  H   H11       1.0  0.33410979569115545  0.6047728411193489  0.18662629842302894  1.0000
  H   H12       1.0  0.33409825652301356  0.8952403431048311  0.686623917814295  1.0000
  H   H13       1.0  0.6768614493243491  0.19133915558216333  0.8766709818702766  1.0000
  H   H14       1.0  0.6768814380248713  0.3086741748126657  0.37667933240463475  1.0000
  H   H15       1.0  0.32311792114468574  0.8086675135755853  0.12332295465341762  1.0000
  H   H16       1.0  0.3231444872942292  0.6913460233963421  0.6233314113847046  1.0000
  H   H17       1.0  0.38947012880871773  0.5748002359389589  0.8637587380970191  1.0000
  H   H18       1.0  0.38945722011669665  0.9251857591588433  0.3637547308251641  1.0000
  H   H19       1.0  0.6105468054131082  0.4251929017753682  0.13622910212604475  1.0000
  H   H20       1.0  0.6105046123887092  0.07479384960841172  0.6362171788704317  1.0000
  H   H21       1.0  0.2280406414992981  0.6996894746916312  0.8133312943750255  1.0000
  H   H22       1.0  0.2280113994694375  0.8003054144275056  0.3133233619040467  1.0000
  H   H23       1.0  0.771971618555405  0.30031899665285516  0.18668141116202722  1.0000
  H   H24       1.0  0.7718827473431134  0.19966156347239664  0.6866926284682293  1.0000
  H   H25       1.0  0.24323259548496173  0.6704703637683381  0.9362054233603629  1.0000
  H   H26       1.0  0.24319990964930582  0.8295200981500841  0.4361976688270204  1.0000
  H   H27       1.0  0.7568224881121851  0.32950563196187227  0.06380779267695401  1.0000
  H   H28       1.0  0.7567713443660082  0.17050010061639403  0.5638202247315152  1.0000
  H   H29       1.0  0.6785842869443713  0.5622984064100223  0.7835918937770716  1.0000
  H   H30       1.0  0.6785796253040034  0.9377228607521961  0.28358456269952376  1.0000
  H   H31       1.0  0.3214261023600784  0.437710967647604  0.21641231478726303  1.0000
  H   H32       1.0  0.3213929138390412  0.06230004584183751  0.7164103557168461  1.0000
  H   H33       1.0  0.8098295587538403  0.7031896658920759  0.8173252055645222  1.0000
  H   H34       1.0  0.8098033204235267  0.7968271435963035  0.3173164608244364  1.0000
  H   H35       1.0  0.19019300148374907  0.29681339270087653  0.18268882554290403  1.0000
  H   H36       1.0  0.19014498014878717  0.2031939603093633  0.6826644069126219  1.0000
  H   H37       1.0  0.8703284711605621  0.627028076156563  0.7140564932639109  1.0000
  H   H38       1.0  0.8703094293233137  0.8729811318971342  0.21404976995805217  1.0000
  H   H39       1.0  0.12969399837353993  0.37298219939429356  0.28595264248799884  1.0000
  H   H40       1.0  0.1296356505980256  0.1270435796001266  0.7859420792778238  1.0000
  C   C1        1.0  0.20171349038894706  0.2683145466008909  0.9645329535098528  1.0000
  C   C2        1.0  0.20173286093314863  0.231680482530713  0.46452983263326797  1.0000
  C   C3        1.0  0.7982864937309917  0.7316858073854534  0.03546433374654614  1.0000
  C   C4        1.0  0.7982981148121342  0.7683027307769947  0.5354763269808488  1.0000
  C   C5        1.0  0.2129836772728027  0.38593099721462204  0.9339503915055261  1.0000
  C   C6        1.0  0.21299614649733203  0.11406340641997303  0.43394453755095  1.0000
  C   C7        1.0  0.7870111240493218  0.6140693570428866  0.06604448438086054  1.0000
  C   C8        1.0  0.7870003296033659  0.885924318878132  0.5660483440071503  1.0000
  C   C9        1.0  0.020946279977650303  0.43985318327495543  0.8764949315407692  1.0000
  C   C10       1.0  0.020950726676552706  0.060155003645334715  0.37648749926577824  1.0000
  C   C11       1.0  0.9790536910170928  0.5601453666085305  0.12350165624842903  1.0000
  C   C12       1.0  0.9790388402532955  0.9398534697684654  0.6235021680887556  1.0000
  C   C13       1.0  0.8232822944229667  0.36480427137183097  0.8568410409675594  1.0000
  C   C14       1.0  0.8232921702045319  0.1352061702099405  0.3568396198936626  1.0000
  C   C15       1.0  0.17671094854133426  0.635196082330218  0.1431621231211793  1.0000
  C   C16       1.0  0.17670104768228614  0.8648104209642683  0.6431621461755412  1.0000
  C   C17       1.0  0.8284621984370234  0.248664782827774  0.8919385768611577  1.0000
  C   C18       1.0  0.8284823472075402  0.2513450060117962  0.3919462559029086  1.0000
  C   C19       1.0  0.17152756313164025  0.7513328649256155  0.10806158075476452  1.0000
  C   C20       1.0  0.17155209888745301  0.748674290116128  0.6080622123386163  1.0000
  C   C21       1.0  0.2339327345747506  0.6278956867141972  0.866216903844496  1.0000
  C   C22       1.0  0.23391361545056819  0.8721005185503613  0.3662114987160977  1.0000
  C   C23       1.0  0.7660913576636263  0.37210196007598023  0.13378744004301527  1.0000
  C   C24       1.0  0.7660454004594613  0.1278908149547888  0.6337930737574241  1.0000
  C   C25       1.0  0.8365034928255781  0.6143088304606295  0.7867601863762133  1.0000
  C   C26       1.0  0.8364893579098053  0.8857058494002888  0.28675344604424424  1.0000
  C   C27       1.0  0.1635172617546132  0.385695130597064  0.21324884467863112  1.0000
  C   C28       1.0  0.1634728283896081  0.11431254730506171  0.713237348808214  1.0000
  C   C29       1.0  0.5366140570286934  0.05908005155463771  0.11520593859316362  1.0000
  C   C30       1.0  0.5366234402595751  0.44091524958430045  0.6152136052454154  1.0000
  C   C31       1.0  0.4633791467199444  0.9409175960676492  0.8847951272187374  1.0000
  C   C32       1.0  0.4634211093002065  0.5590742784780929  0.3847856966833021  1.0000
  S   S1        1.0  0.3041898655647657  0.059906518703485304  0.16403306594932596  1.0000
  S   S2        1.0  0.30421802410268134  0.44008189590476854  0.6640425039360024  1.0000
  S   S3        1.0  0.6957946347214445  0.9400848150852851  0.8359604837013354  1.0000
  S   S4        1.0  0.6958214727383806  0.5599058277794526  0.33596138037980705  1.0000
  N   N1        1.0  0.013696503247842898  0.1978999158513517  0.9447747904846011  1.0000
  N   N2        1.0  0.0137224829309943  0.30210160689856025  0.4447780575271807  1.0000
  N   N3        1.0  0.9863068708178349  0.8020977319738095  0.055220607306907324  1.0000
  N   N4        1.0  0.9863307312487565  0.6978978434514643  0.5552266625770274  1.0000
  N   N5        1.0  0.029328803943791105  0.5538786997522321  0.8434310271857798  1.0000
  N   N6        1.0  0.029316628760476214  0.9461259743489524  0.34342744650624013  1.0000
  N   N7        1.0  0.970685027060796  0.4461225554878965  0.1565740892002694  1.0000
  N   N8        1.0  0.9706440111333876  0.0538743802259205  0.6565723351009114  1.0000
  N   N9        1.0  0.7065084519669684  0.060323128329550016  0.08101757475277081  1.0000
  N   N10       1.0  0.7065074273483561  0.4396812250754892  0.5810258995464181  1.0000
  N   N11       1.0  0.2934932331286433  0.9396673028268271  0.9189791170681405  1.0000
  N   N12       1.0  0.29350125991413023  0.5603200302867678  0.4189789036217135  1.0000
