data_image0
_chemical_formula_structural       Zn2H20C42N4O12F8
_chemical_formula_sum              "Zn2 H20 C42 N4 O12 F8"
_cell_length_a       16.433997236296896
_cell_length_b       17.381585488309273
_cell_length_c       17.681178789492762
_cell_angle_alpha    89.74277395116276
_cell_angle_beta     84.58834615013716
_cell_angle_gamma    89.15732470525812

_space_group_name_H-M_alt    "P 1"
_space_group_IT_number       1

loop_
  _space_group_symop_operation_xyz
  'x, y, z'

loop_
  _atom_site_type_symbol
  _atom_site_label
  _atom_site_symmetry_multiplicity
  _atom_site_fract_x
  _atom_site_fract_y
  _atom_site_fract_z
  _atom_site_occupancy
  Zn  Zn1       1.0  0.4138860977754319  0.4996312494145768  0.5025209918116218  1.0000
  Zn  Zn2       1.0  0.5855617631945051  0.5065279360062291  0.4976816880993198  1.0000
  H   H1        1.0  0.7175824934497467  0.42576895195822567  0.5743873464317276  1.0000
  H   H2        1.0  0.8691009562666564  0.42513518890296353  0.5722948262467185  1.0000
  H   H3        1.0  0.12862920864446176  0.39675135371934545  0.600872987730547  1.0000
  H   H4        1.0  0.12746529542906865  0.5749889016788076  0.4263445472448879  1.0000
  H   H5        1.0  0.9992808177132844  0.5624856931603757  0.4382113873797309  1.0000
  H   H6        1.0  0.999259688913845  0.4361822883382089  0.5614554650767261  1.0000
  H   H7        1.0  0.6155378476585297  0.5045009132268988  0.7367435225929384  1.0000
  H   H8        1.0  0.6100016584610585  0.5043004226664038  0.8771306475117483  1.0000
  H   H9        1.0  0.6535428287003595  0.5059661389864374  0.11261287253282862  1.0000
  H   H10       1.0  0.3888378895350897  0.49597551769747383  0.12298506109756602  1.0000
  H   H11       1.0  0.4061921544101139  0.4963770565685054  0.003311468132224595  1.0000
  H   H12       1.0  0.5939444739744886  0.5038143691643598  0.9967834254771972  1.0000
  H   H13       1.0  0.6159380692462759  0.7509476133694266  0.4967589886542285  1.0000
  H   H14       1.0  0.6116800396062203  0.8962387301833774  0.49600473333766354  1.0000
  H   H15       1.0  0.6513073720387365  0.11155847381015602  0.4949236602090394  1.0000
  H   H16       1.0  0.38752501282002066  0.1059625856312394  0.5035411978273531  1.0000
  H   H17       1.0  0.35335566439075444  0.6853275694187958  0.5046841484897229  1.0000
  H   H18       1.0  0.34769558740590867  0.9522073638474922  0.5053864638453831  1.0000
  H   H19       1.0  0.6450021413201198  0.31671923344950415  0.4945776645186513  1.0000
  H   H20       1.0  0.3774700511112811  0.3098486210892588  0.5040303952930074  1.0000
  C   C1        1.0  0.4942152905172889  0.4997175970079582  0.6471024016982979  1.0000
  C   C2        1.0  0.5099893433337925  0.3468256350369856  0.49995594022036016  1.0000
  C   C3        1.0  0.5072824534838389  0.5001325020120078  0.3536845498270509  1.0000
  C   C4        1.0  0.4900822336398676  0.65516799077637  0.5022603244099811  1.0000
  C   C5        1.0  0.7548854385252212  0.4636093442257518  0.5365187472166325  1.0000
  C   C6        1.0  0.8390812085754078  0.4640336246589527  0.5349163466267655  1.0000
  C   C7        1.0  0.8853596424118705  0.5143347282697946  0.4853422167609338  1.0000
  C   C8        1.0  0.8406003681669744  0.561564803676042  0.4395347313630467  1.0000
  C   C9        1.0  0.7554194305876576  0.557649607521114  0.4445132534382452  1.0000
  C   C10       1.0  0.9738861142667047  0.5202158803128114  0.4793449563207163  1.0000
  C   C11       1.0  0.024402798570335404  0.4785291473605538  0.5201379813255045  1.0000
  C   C12       1.0  0.15778296453316187  0.43796391274452884  0.5609250436207063  1.0000
  C   C13       1.0  0.11306545617724588  0.48493890566290077  0.51434260796875  1.0000
  C   C14       1.0  0.15655525227221284  0.5362312730753588  0.4643619503068734  1.0000
  C   C15       1.0  0.24062462195832518  0.5372990477750721  0.46411567460629044  1.0000
  C   C16       1.0  0.24200440398257678  0.44497809073805433  0.5551306913092589  1.0000
  C   C17       1.0  0.48626009934979914  0.4992752865334253  0.7321783209057671  1.0000
  C   C18       1.0  0.5570757059044522  0.5020453584841108  0.7711567571947384  1.0000
  C   C19       1.0  0.5534845182179139  0.5020031052663257  0.8496315827793879  1.0000
  C   C20       1.0  0.4779884713579888  0.49911550693550316  0.8948683549441582  1.0000
  C   C21       1.0  0.40775573080429683  0.496346685032286  0.8556680354061683  1.0000
  C   C22       1.0  0.41098304575588424  0.4963918912879421  0.776491389715339  1.0000
  C   C23       1.0  0.46902055170200896  0.4988420361835681  0.9773743154225016  1.0000
  C   C24       1.0  0.5309207676936579  0.5013563691637944  0.022561386602689  1.0000
  C   C25       1.0  0.5931393289781893  0.503557933282842  0.1436981094501562  1.0000
  C   C26       1.0  0.5222686452711327  0.5009708832812408  0.10519748056155012  1.0000
  C   C27       1.0  0.44630374616482255  0.4980546208259752  0.1488592807192148  1.0000
  C   C28       1.0  0.4429844482661949  0.49767750751897916  0.22728806926451034  1.0000
  C   C29       1.0  0.5126541299932724  0.5001477358103801  0.2686312338611998  1.0000
  C   C30       1.0  0.5874122441089468  0.5031098462147057  0.22243478116223514  1.0000
  C   C31       1.0  0.4853704162772984  0.7402404127977817  0.5015671297765322  1.0000
  C   C32       1.0  0.5583618841994634  0.7830711184808833  0.4987588076568201  1.0000
  C   C33       1.0  0.5564268023982848  0.862205409356207  0.49832738722633246  1.0000
  C   C34       1.0  0.48002869944537696  0.9010962019723294  0.5009018802570679  1.0000
  C   C35       1.0  0.40646236907920746  0.8598516965976587  0.5035873953623238  1.0000
  C   C36       1.0  0.40860598524484704  0.7783085385726523  0.5037176454063541  1.0000
  C   C37       1.0  0.5929861230996137  0.1423125420959579  0.49694400860120425  1.0000
  C   C38       1.0  0.5202588614464148  0.100903537742326  0.49929484653743833  1.0000
  C   C39       1.0  0.44381303736399497  0.138276225816611  0.5016769823124533  1.0000
  C   C40       1.0  0.4402663098459597  0.21831272774223015  0.5017849166587851  1.0000
  C   C41       1.0  0.5135013122007023  0.2624940989711604  0.49955225893599936  1.0000
  C   C42       1.0  0.5901025030399296  0.2225507988247912  0.4970575174717027  1.0000
  N   N1        1.0  0.7132862569495655  0.5102496229636772  0.4915071176679433  1.0000
  N   N2        1.0  0.2844949211802543  0.49318329304411185  0.5080860084910555  1.0000
  N   N3        1.0  0.46788855859873013  0.980678735664675  0.5011284105290272  1.0000
  N   N4        1.0  0.5323969996075917  0.020382469899679703  0.4989603654147601  1.0000
  O   O1        1.0  0.4285358848874522  0.5007315350739175  0.6144913757576944  1.0000
  O   O2        1.0  0.5666270254707867  0.49919367169110995  0.6139218254392346  1.0000
  O   O3        1.0  0.5772145335181946  0.3844944435403194  0.49878022932712435  1.0000
  O   O4        1.0  0.4396608245298663  0.38071350219248506  0.5015650991099321  1.0000
  O   O5        1.0  0.5739525937995325  0.5020301078709365  0.3847106220862031  1.0000
  O   O6        1.0  0.436112277145618  0.49838994481231685  0.3887970184744631  1.0000
  O   O7        1.0  0.42180221364879594  0.6187129883788033  0.5028504870903774  1.0000
  O   O8        1.0  0.5594809359146209  0.6220933308983875  0.5022110682761749  1.0000
  O   O9        1.0  0.33692510531454894  0.7415126167664639  0.5059203031248742  1.0000
  O   O10       1.0  0.33345260397324933  0.8970561501037438  0.5060067679555971  1.0000
  O   O11       1.0  0.6614072398537728  0.26069226067416923  0.4946844885012851  1.0000
  O   O12       1.0  0.36605394447415307  0.25317024834716056  0.5042675020162619  1.0000
  F   F1        1.0  0.7146052324522925  0.603721241269213  0.4005642348962652  1.0000
  F   F2        1.0  0.8783419671247186  0.6118108082314464  0.390027787748231  1.0000
  F   F3        1.0  0.28329772950762316  0.5857706402701481  0.4174573446740482  1.0000
  F   F4        1.0  0.2858144345386436  0.4008281212621796  0.598734768255184  1.0000
  F   F5        1.0  0.33873981799601427  0.4933557859359681  0.7462394868461145  1.0000
  F   F6        1.0  0.3327770053473528  0.4934220194476992  0.8952111324855919  1.0000
  F   F7        1.0  0.3671013618277925  0.4946763041925593  0.2644759159099479  1.0000
  F   F8        1.0  0.6592131437118312  0.5058077058537123  0.25419045253575934  1.0000
