data_image0
_chemical_formula_structural       Ag4H12C20N8O16
_chemical_formula_sum              "Ag4 H12 C20 N8 O16"
_cell_length_a       7.414291286520459
_cell_length_b       7.712349558011469
_cell_length_c       11.359341600656503
_cell_angle_alpha    89.99992155103482
_cell_angle_beta     89.38196580422719
_cell_angle_gamma    89.99982330540546

_space_group_name_H-M_alt    "P 1"
_space_group_IT_number       1

loop_
  _space_group_symop_operation_xyz
  'x, y, z'

loop_
  _atom_site_type_symbol
  _atom_site_label
  _atom_site_symmetry_multiplicity
  _atom_site_fract_x
  _atom_site_fract_y
  _atom_site_fract_z
  _atom_site_occupancy
  Ag  Ag1       1.0  0.8591177082362976  0.6676279089031426  0.07339227354129459  1.0000
  Ag  Ag2       1.0  0.6408793071680635  0.16762546091493388  0.9266076039053244  1.0000
  Ag  Ag3       1.0  0.14087814574503452  0.33237494691248054  0.9266074876868301  1.0000
  Ag  Ag4       1.0  0.3591205609150592  0.8323760982714674  0.07339392101865629  1.0000
  H   H1        1.0  0.5025758414898291  0.8162167343201788  0.7780285723090686  1.0000
  H   H2        1.0  0.9974220087268791  0.3162223352308047  0.22197292129494167  1.0000
  H   H3        1.0  0.4974254234608609  0.1837822316231836  0.22197031244216697  1.0000
  H   H4        1.0  0.0025778433095596043  0.6837805205765265  0.778029484011796  1.0000
  H   H5        1.0  0.2993158089537076  0.38494788696722543  0.5535156479642679  1.0000
  H   H6        1.0  0.20068545678181243  0.8849488072677331  0.4464839504179137  1.0000
  H   H7        1.0  0.7006881213712576  0.6150484857271579  0.44648499950731235  1.0000
  H   H8        1.0  0.7993157760797162  0.11505015867403759  0.5535166951001003  1.0000
  H   H9        1.0  0.408389422517935  0.1259202034872686  0.6669693440774649  1.0000
  H   H10       1.0  0.09160593949342652  0.6259216528687546  0.3330305032090307  1.0000
  H   H11       1.0  0.5916090807951946  0.8740787624568541  0.3330330602550261  1.0000
  H   H12       1.0  0.9083898824029433  0.3740786097018259  0.6669710187871373  1.0000
  C   C1        1.0  0.6169522832213019  0.5954808922804701  0.8738896327735971  1.0000
  C   C2        1.0  0.8830463308898475  0.09548570842223109  0.12610943594908966  1.0000
  C   C3        1.0  0.38304763299976946  0.4045180736648605  0.1261092510014947  1.0000
  C   C4        1.0  0.11695490196747473  0.9045158507629978  0.8738912095676524  1.0000
  C   C5        1.0  0.4271986769192608  0.546479415756032  0.6856022256994833  1.0000
  C   C6        1.0  0.07280238573946461  0.046480897325707815  0.3143950621744479  1.0000
  C   C7        1.0  0.5728012553484945  0.4535182535683688  0.3143957776928516  1.0000
  C   C8        1.0  0.9272002279366377  0.9535206618591446  0.6856038235516663  1.0000
  C   C9        1.0  0.43311578936569367  0.25989877117952187  0.6913177706598288  1.0000
  C   C10       1.0  0.06688181962248761  0.759899041325518  0.30868282769591093  1.0000
  C   C11       1.0  0.5668827299920168  0.7401001947653966  0.30868375328927294  1.0000
  C   C12       1.0  0.9331153670459785  0.24010251786561548  0.6913178148923862  1.0000
  C   C13       1.0  0.5233358846766762  0.4913442350493257  0.7839714557898103  1.0000
  C   C14       1.0  0.9766655080437728  0.9913460750181854  0.21602634762777476  1.0000
  C   C15       1.0  0.47666135012764244  0.5086560275224629  0.21602654564895118  1.0000
  C   C16       1.0  0.023335740860233007  0.0086541875461066  0.7839734175062176  1.0000
  C   C17       1.0  0.3805609069572071  0.7184167556910381  0.6377470917283147  1.0000
  C   C18       1.0  0.11944361227857311  0.2184167156293171  0.3622517913840183  1.0000
  C   C19       1.0  0.6194416585893522  0.2815822102479757  0.36225443514923933  1.0000
  C   C20       1.0  0.8805617149034433  0.781583546930662  0.6377462159116404  1.0000
  N   N1        1.0  0.5246267223349363  0.3122729914697545  0.7856108926491315  1.0000
  N   N2        1.0  0.9753711888075075  0.8122761348772657  0.21438796366984994  1.0000
  N   N3        1.0  0.47537181306735493  0.6877259744759598  0.21438975091658818  1.0000
  N   N4        1.0  0.02462601390764971  0.18772412769293823  0.7856117985356972  1.0000
  N   N5        1.0  0.37366626329284  0.39738360655690036  0.6298486370137866  1.0000
  N   N6        1.0  0.12633632689215094  0.8973848856365051  0.37015006977694737  1.0000
  N   N7        1.0  0.626333620841173  0.6026140627651202  0.37015200752871635  1.0000
  N   N8        1.0  0.873664922009752  0.10261667354951953  0.6298496953564124  1.0000
  O   O1        1.0  0.5988060845513062  0.7604993745156532  0.8718849652446534  1.0000
  O   O2        1.0  0.901191962380807  0.2605041339870411  0.12811570256609878  1.0000
  O   O3        1.0  0.40119652912899534  0.23949959142574065  0.12811392048273257  1.0000
  O   O4        1.0  0.09880520824307838  0.7394974252033039  0.8718858204055875  1.0000
  O   O5        1.0  0.7117558510786424  0.5142499268724522  0.9483419801932981  1.0000
  O   O6        1.0  0.7882443430744316  0.014253861349033095  0.05165892985970539  1.0000
  O   O7        1.0  0.28824541386783414  0.4857516323143686  0.05165690455666549  1.0000
  O   O8        1.0  0.2117555250065877  0.9857489944590937  0.948342595063643  1.0000
  O   O9        1.0  0.429878870631356  0.8548705044091348  0.6986611530450516  1.0000
  O   O10       1.0  0.07011974703933531  0.3548720180652793  0.30134111400336383  1.0000
  O   O11       1.0  0.5701210455897155  0.14512846153620265  0.301337730730033  1.0000
  O   O12       1.0  0.929882786413863  0.645129541115601  0.6986621736396896  1.0000
  O   O13       1.0  0.2967231548518896  0.7288327274709089  0.5439577961219796  1.0000
  O   O14       1.0  0.20328272747514126  0.22883097188767473  0.4560384366120117  1.0000
  O   O15       1.0  0.7032754447287246  0.2711662384779814  0.4560393259101828  1.0000
  O   O16       1.0  0.79672799462535  0.7711692906644315  0.5439595745882427  1.0000
