data_image0
_chemical_formula_structural       Al4H34C60N6O26
_chemical_formula_sum              "Al4 H34 C60 N6 O26"
_cell_length_a       6.608915286201432
_cell_length_b       20.548512002156638
_cell_length_c       21.67435500792723
_cell_angle_alpha    90.03081624500969
_cell_angle_beta     89.44140353635747
_cell_angle_gamma    81.99419745139534

_space_group_name_H-M_alt    "P 1"
_space_group_IT_number       1

loop_
  _space_group_symop_operation_xyz
  'x, y, z'

loop_
  _atom_site_type_symbol
  _atom_site_label
  _atom_site_symmetry_multiplicity
  _atom_site_fract_x
  _atom_site_fract_y
  _atom_site_fract_z
  _atom_site_occupancy
  Al  Al1       1.0  0.10461302085270313  0.6843849125922006  0.49878617040565854  1.0000
  Al  Al2       1.0  0.9060715466078759  0.31466263006822  0.9994222612856095  1.0000
  Al  Al3       1.0  0.6040069624992268  0.6867525267966884  0.49945655468088296  1.0000
  Al  Al4       1.0  0.4062878356126944  0.3130934562596365  0.0002746280508816002  1.0000
  H   H1        1.0  0.7904729138771386  0.4968279761355632  0.9097742051483452  1.0000
  H   H2        1.0  0.22640507043282543  0.506773593265379  0.4051833399415657  1.0000
  H   H3        1.0  0.8703010744433468  0.6382276441213153  0.7427521822764975  1.0000
  H   H4        1.0  0.14114094755290543  0.36154036838777875  0.24145620512392443  1.0000
  H   H5        1.0  0.7475106947204465  0.5854169657698519  0.8298155878636282  1.0000
  H   H6        1.0  0.2686616033226769  0.41664803361494757  0.3262207372734239  1.0000
  H   H7        1.0  0.6972725377274358  0.5020441287006748  0.5780297307098864  1.0000
  H   H8        1.0  0.31339305068176765  0.4978723700548853  0.08220317133503131  1.0000
  H   H9        1.0  0.5368731074592219  0.40933976753061774  0.7453689550699709  1.0000
  H   H10       1.0  0.47534083919740067  0.5900272135833403  0.24891710544143564  1.0000
  H   H11       1.0  0.7598768020537817  0.41082219418107957  0.6546440792299395  1.0000
  H   H12       1.0  0.2550363193144135  0.5899709787276067  0.15850613869417882  1.0000
  H   H13       1.0  0.10836326083812511  0.6424144825755959  0.6559522644100683  1.0000
  H   H14       1.0  0.8986888402152501  0.355832150007906  0.15747033068291935  1.0000
  H   H15       1.0  0.5826096096817251  0.8160765062533597  0.647065237137838  1.0000
  H   H16       1.0  0.4210056803673082  0.1814644746570835  0.1446393366803633  1.0000
  H   H17       1.0  0.5410661763322295  0.024407913188348094  0.8542687970048422  1.0000
  H   H18       1.0  0.47073079361176434  0.975760192694871  0.3554579789120852  1.0000
  H   H19       1.0  0.5188398047817842  0.1258545107162305  0.9213179402058672  1.0000
  H   H20       1.0  0.4984118887280785  0.8757945205075115  0.4240608280700117  1.0000
  H   H21       1.0  0.9723484588053422  0.8700310179529327  0.5795076584835926  1.0000
  H   H22       1.0  0.03476390288672347  0.12879486418196961  0.07561002451219422  1.0000
  H   H23       1.0  0.9514133485373646  0.09453979369847332  0.7788025184106788  1.0000
  H   H24       1.0  0.052428242047632495  0.9036783083733793  0.27236642315228476  1.0000
  H   H25       1.0  0.9352853499619158  0.9719608779025463  0.6457643445325091  1.0000
  H   H26       1.0  0.07151591273331798  0.0268976528369791  0.1416812266044403  1.0000
  H   H27       1.0  0.920237663724329  0.1924442840084168  0.8504269789950529  1.0000
  H   H28       1.0  0.08811425942383981  0.8067184185020151  0.34434135661637555  1.0000
  H   H29       1.0  0.39416014344364914  0.38606356503899514  0.8699360818865433  1.0000
  H   H30       1.0  0.5990319532798266  0.6082936487974706  0.3756374431727068  1.0000
  H   H31       1.0  0.8641803289706472  0.6533997646965873  0.5726717683742067  1.0000
  H   H32       1.0  0.1404417757234455  0.34726558009013786  0.07304616792049501  1.0000
  H   H33       1.0  0.3381629174071107  0.7176444894263057  0.4245707195828602  1.0000
  H   H34       1.0  0.6518716486394354  0.3419473377551085  0.9231023869742432  1.0000
  C   C1        1.0  0.9069925667447547  0.5984209558592043  0.42168045281498934  1.0000
  C   C2        1.0  0.10344927878645643  0.40215666701212177  0.9222628216307955  1.0000
  C   C3        1.0  0.8109779489066252  0.7769651748919555  0.4286156347849329  1.0000
  C   C4        1.0  0.20411442399650773  0.2241166428375791  0.9290408267186765  1.0000
  C   C5        1.0  0.3012563789853147  0.7765926387985402  0.570530051254899  1.0000
  C   C6        1.0  0.7059406878541096  0.22178021229793635  0.0680412552459089  1.0000
  C   C7        1.0  0.4021231281725404  0.5997086932814425  0.5751799395882814  1.0000
  C   C8        1.0  0.6042563821869109  0.39870565907145317  0.07833385757042072  1.0000
  C   C9        1.0  0.8800925324615034  0.5473641473521338  0.8291382627930164  1.0000
  C   C10       1.0  0.13340265786072783  0.4536747481221326  0.32705252369970594  1.0000
  C   C11       1.0  0.08219053349561989  0.452516927812816  0.8736559580639993  1.0000
  C   C12       1.0  0.9275094535228303  0.547403598639626  0.3736691870648486  1.0000
  C   C13       1.0  0.5979286858151551  0.5008183145556728  0.6182869037295049  1.0000
  C   C14       1.0  0.4121061950071264  0.49872386642133637  0.12205266476059512  1.0000
  C   C15       1.0  0.6327943956043994  0.45015423440914776  0.6614006997450802  1.0000
  C   C16       1.0  0.3792900331318449  0.549822036064576  0.16507302578693134  1.0000
  C   C17       1.0  0.5065993098729393  0.4492830731164118  0.7126955486955  1.0000
  C   C18       1.0  0.5040283874982591  0.5500125172965583  0.21602197697385617  1.0000
  C   C19       1.0  0.3388311090419903  0.4991448875528307  0.7234102738231557  1.0000
  C   C20       1.0  0.6688865885557291  0.4992976030469833  0.22618089994233512  1.0000
  C   C21       1.0  0.29890606175444395  0.5504577142003341  0.67807920126171  1.0000
  C   C22       1.0  0.7081908429444541  0.44790337244712214  0.18062521486495342  1.0000
  C   C23       1.0  0.20327530636320287  0.4992969076393622  0.7769889978217325  1.0000
  C   C24       1.0  0.8044078299994055  0.49911912019789634  0.27891743832552873  1.0000
  C   C25       1.0  0.026943197623104584  0.5480871479924475  0.7811317050612916  1.0000
  C   C26       1.0  0.9835656422375506  0.45148158973799457  0.28105916747391296  1.0000
  C   C27       1.0  0.9996220896297314  0.5994741716741601  0.7365769327351972  1.0000
  C   C28       1.0  0.010252297195805159  0.3998356092725928  0.23652189697428136  1.0000
  C   C29       1.0  0.13121742633519057  0.6015990946556472  0.6880843136010953  1.0000
  C   C30       1.0  0.8763089889060822  0.3968759903088212  0.18952191921223974  1.0000
  C   C31       1.0  0.23358886827430317  0.4535943714309668  0.8270880584285792  1.0000
  C   C32       1.0  0.7713222652879492  0.5440878400959832  0.3298721634913094  1.0000
  C   C33       1.0  0.9039611270499534  0.49931418370958597  0.8733839782730045  1.0000
  C   C34       1.0  0.10959307454796628  0.502323530264185  0.37093225148981906  1.0000
  C   C35       1.0  0.4315490596479349  0.5499605828915435  0.6254260586292874  1.0000
  C   C36       1.0  0.5759101256250856  0.44874038814398176  0.1286228451465732  1.0000
  C   C37       1.0  0.2194877822377065  0.16499229403852672  0.8887794835056158  1.0000
  C   C38       1.0  0.7938009618886352  0.8353832140511485  0.38754812351146484  1.0000
  C   C39       1.0  0.05696116575252568  0.1560309339439172  0.8496562580120115  1.0000
  C   C40       1.0  0.9522567656725157  0.8434638433376446  0.34567994918049294  1.0000
  C   C41       1.0  0.07313929513171048  0.10212843788592349  0.8104522260902557  1.0000
  C   C42       1.0  0.9334126416325573  0.8967973047527448  0.3059232262807684  1.0000
  C   C43       1.0  0.25029140320093285  0.0554543991181902  0.8122427156313068  1.0000
  C   C44       1.0  0.7571836751635316  0.9437771036811143  0.30958424417572433  1.0000
  C   C45       1.0  0.40829357020797374  0.06236373877172948  0.8535751085793424  1.0000
  C   C46       1.0  0.6029215767866346  0.937644773705891  0.3533084190646606  1.0000
  C   C47       1.0  0.3952265947940815  0.11807433126138277  0.8905039316563903  1.0000
  C   C48       1.0  0.6189323368761419  0.8826154610528648  0.391050564466113  1.0000
  C   C49       1.0  0.4149391803782121  0.9048096189630287  0.6850963203013337  1.0000
  C   C50       1.0  0.5886851751644357  0.09290498525818688  0.18192055050472794  1.0000
  C   C51       1.0  0.43907648706278474  0.8494033529128585  0.6476610058033075  1.0000
  C   C52       1.0  0.5651170334902814  0.1484294395435839  0.14481988958153383  1.0000
  C   C53       1.0  0.23074418700825558  0.9490397030362843  0.6856192343786419  1.0000
  C   C54       1.0  0.7739090826723256  0.049166664537359794  0.18203318328059484  1.0000
  C   C55       1.0  0.2779230748585346  0.8366614094433801  0.6100863792455657  1.0000
  C   C56       1.0  0.7277239040552954  0.16159710439657  0.10710175070207843  1.0000
  C   C57       1.0  0.09586460809789075  0.8807472246815922  0.609116113051613  1.0000
  C   C58       1.0  0.9105572000917586  0.11785077241278692  0.10554875716398021  1.0000
  C   C59       1.0  0.07503953468570046  0.9369974111235067  0.6454248297037353  1.0000
  C   C60       1.0  0.9311241256920013  0.061592974579411916  0.14165375498459554  1.0000
  N   N1        1.0  0.28256401927006164  0.999224547842701  0.7743057695762234  1.0000
  N   N2        1.0  0.7226387743530079  0.9995963015883547  0.2713592279221331  1.0000
  N   N3        1.0  0.1889219851893387  0.0047043061260794005  0.7236069876841641  1.0000
  N   N4        1.0  0.815979934813363  0.9937807904600574  0.22006844178308435  1.0000
  N   N5        1.0  0.5955257900680163  0.9173139129153542  0.7201575689676717  1.0000
  N   N6        1.0  0.4069217153198251  0.07953015725227888  0.21703385895184377  1.0000
  O   O1        1.0  0.6465951292549119  0.763388105700912  0.4537236414926938  1.0000
  O   O2        1.0  0.367055496589458  0.23674189282345273  0.9546300120036123  1.0000
  O   O3        1.0  0.06608969842072542  0.6094307757707469  0.45017108848634996  1.0000
  O   O4        1.0  0.9438904350867218  0.3914846070451218  0.9516818717223431  1.0000
  O   O5        1.0  0.22249143351530873  0.6272585803297729  0.5621728259127182  1.0000
  O   O6        1.0  0.7840088263155494  0.3705335270098758  0.06494259233449641  1.0000
  O   O7        1.0  0.98735280180054  0.7439494276325647  0.43569041968038397  1.0000
  O   O8        1.0  0.029429251087861995  0.2587532708992342  0.9349016318207789  1.0000
  O   O9        1.0  0.13880047515230118  0.7613509055910936  0.5468182802091875  1.0000
  O   O10       1.0  0.8686258473147744  0.23682658760999695  0.04349304715563561  1.0000
  O   O11       1.0  0.7265091508510365  0.6311286511894352  0.431795178718545  1.0000
  O   O12       1.0  0.2843259467141834  0.36987591232327327  0.9320559095326788  1.0000
  O   O13       1.0  0.8536420145151593  0.6839197568177297  0.5382949004891985  1.0000
  O   O14       1.0  0.15373382100601418  0.31619603067456126  0.03895886021000901  1.0000
  O   O15       1.0  0.4803037616294075  0.7449854443329114  0.5640363410274603  1.0000
  O   O16       1.0  0.5282191721624087  0.25407457457853866  0.06258694201496702  1.0000
  O   O17       1.0  0.5629890765386704  0.6116853737120849  0.5465569748577509  1.0000
  O   O18       1.0  0.44243876560606293  0.3873547451226004  0.05057569669949661  1.0000
  O   O19       1.0  0.3557463899235386  0.6875215052542386  0.459187493662384  1.0000
  O   O20       1.0  0.6556003315351118  0.3156486500732925  0.9602534143225726  1.0000
  O   O21       1.0  0.6811591727363149  0.8716178591331099  0.7517163807326526  1.0000
  O   O22       1.0  0.6568522193281651  0.9711649875726351  0.7124573204594641  1.0000
  O   O23       1.0  0.3166060979430156  0.1250070659204212  0.24845840498793598  1.0000
  O   O24       1.0  0.3496332948879512  0.0250644118305487  0.20951300237340584  1.0000
  O   O25       1.0  0.40675692778875566  0.41017069968162895  0.8298851069741177  1.0000
  O   O26       1.0  0.591133216644863  0.583431112226499  0.33576498924797704  1.0000
