data_image0
_chemical_formula_structural       K4H48C40S4N8O4
_chemical_formula_sum              "K4 H48 C40 S4 N8 O4"
_cell_length_a       6.380439328
_cell_length_b       11.942255233198633
_cell_length_c       14.9149
_cell_angle_alpha    96.79363467992543
_cell_angle_beta     90.0
_cell_angle_gamma    90.0

_space_group_name_H-M_alt    "P 1"
_space_group_IT_number       1

loop_
  _space_group_symop_operation_xyz
  'x, y, z'

loop_
  _atom_site_type_symbol
  _atom_site_label
  _atom_site_symmetry_multiplicity
  _atom_site_fract_x
  _atom_site_fract_y
  _atom_site_fract_z
  _atom_site_occupancy
  K   K1        1.0  0.9562930836476726  2.4455229088e-05  0.7499972877948196  1.0000
  K   K2        1.0  0.043713290835008016  0.9999987727691391  0.2500010906073484  1.0000
  K   K3        1.0  0.9999985380317045  0.9999566085810513  0.4999907274769625  1.0000
  K   K4        1.0  1.5672901981000003e-06  6.7462700954e-06  1.9799266865999995e-06  1.0000
  H   H1        1.0  0.7782912343054279  0.3318405930926431  0.6247892297620367  1.0000
  H   H2        1.0  0.7782677249524994  0.6681286647448417  0.8752201280454058  1.0000
  H   H3        1.0  0.22169946727530743  0.6681623960953118  0.3752099135647597  1.0000
  H   H4        1.0  0.22173708223999  0.3318532423490694  0.12478238221468978  1.0000
  H   H5        1.0  0.5134536716967588  0.4853637750572375  0.6504964838836924  1.0000
  H   H6        1.0  0.5134191913124653  0.5146130723341003  0.8494941491391045  1.0000
  H   H7        1.0  0.4865197896918261  0.514624878306762  0.349503313009798  1.0000
  H   H8        1.0  0.4865824812996351  0.4853688347598037  0.1504962926525408  1.0000
  H   H9        1.0  0.1399151303080899  0.4418933404219487  0.6744476750605556  1.0000
  H   H10       1.0  0.13988064992379634  0.5580961562258153  0.8255542131175628  1.0000
  H   H11       1.0  0.8600677348216621  0.5580894099557199  0.3255475398975918  1.0000
  H   H12       1.0  0.8601163208177098  0.4418941837057062  0.17443769787674054  1.0000
  H   H13       1.0  0.021101995188502108  0.2414397305475333  0.6729458606672765  1.0000
  H   H14       1.0  0.021094158737526007  0.7585615720728924  0.8270718960862167  1.0000
  H   H15       1.0  0.9788918409726153  0.7585430198301282  0.3270439905271161  1.0000
  H   H16       1.0  0.9789263213569086  0.24144226039882  0.17294274793459147  1.0000
  H   H17       1.0  0.23934088571274972  0.7753311129593711  0.6588716542491042  1.0000
  H   H18       1.0  0.23935185674412204  0.22467693593115  0.8411373549035799  1.0000
  H   H19       1.0  0.7606529504483674  0.2246819956337163  0.34111973144022295  1.0000
  H   H20       1.0  0.7606466812875894  0.77533532937818  0.15885462138299994  1.0000
  H   H21       1.0  0.2396653147831671  0.7994810733288346  0.542434164219948  1.0000
  H   H22       1.0  0.2396653147831671  0.2005236024266353  0.9575705026170381  1.0000
  H   H23       1.0  0.7603112811858069  0.2005210725753557  0.4575575240584726  1.0000
  H   H24       1.0  0.7603504634406875  0.7994827598963565  0.04241957361606547  1.0000
  H   H25       1.0  0.22120577086381132  0.5825935495051269  0.5884260591241669  1.0000
  H   H26       1.0  0.22119166525205  0.4174128128178722  0.9115888245162935  1.0000
  H   H27       1.0  0.7787786615561387  0.4174136561016368  0.4115748245096639  1.0000
  H   H28       1.0  0.778794334458091  0.582596922640171  0.08840827591437517  1.0000
  H   H29       1.0  0.07426918048111021  0.6213719532899447  0.4956531930357571  1.0000
  H   H30       1.0  0.0742425365477928  0.3786234463441502  0.004355288489108512  1.0000
  H   H31       1.0  0.9257121173584509  0.3786310358980032  0.5043479617024502  1.0000
  H   H32       1.0  0.9257638379348947  0.6213753264249959  0.9956441259420641  1.0000
  H   H33       1.0  0.9138790763845039  0.6183504675715383  0.6895057544525967  1.0000
  H   H34       1.0  0.9138696726433297  0.3816499917651299  0.8105011949001761  1.0000
  H   H35       1.0  0.0861147597766205  0.3816710738591738  0.3105005098487652  1.0000
  H   H36       1.0  0.08609908687466833  0.618360586976678  0.18950805387216005  1.0000
  H   H37       1.0  0.7967789894482922  0.5542347598806856  0.5875569776290915  1.0000
  H   H38       1.0  0.7967586146757597  0.4457564233346005  0.9124484226478129  1.0000
  H   H39       1.0  0.20320544297165105  0.44576569945597555  0.41245332407602575  1.0000
  H   H40       1.0  0.20322111587360336  0.5542406628670165  0.08756558238724918  1.0000
  H   H41       1.0  0.699476912258163  0.7348248207466951  0.5415082823548971  1.0000
  H   H42       1.0  0.699476912258163  0.2651604594822601  0.9584911950457167  1.0000
  H   H43       1.0  0.3005137893225651  0.2651756385899731  0.45848928041130677  1.0000
  H   H44       1.0  0.30053102951471544  0.7348265073142173  0.04151313539462358  1.0000
  H   H45       1.0  0.672770287331538  0.7660474020260892  0.6616913155643331  1.0000
  H   H46       1.0  0.6727812583629034  0.2339429379054323  0.8383073001346586  1.0000
  H   H47       1.0  0.327211010508023  0.23395896029690988  0.3383014425506516  1.0000
  H   H48       1.0  0.3272141450884121  0.76605330501242  0.16169723844061676  1.0000
  C   C1        1.0  0.551990203016942  0.1987366841354543  0.6364215598174567  1.0000
  C   C2        1.0  0.5519870684365529  0.8012553423635892  0.8635939773896979  1.0000
  C   C3        1.0  0.44802557520691283  0.8012705214713023  0.3635786533459039  1.0000
  C   C4        1.0  0.4480224406265237  0.19874258712178516  0.13641273234341608  1.0000
  C   C5        1.0  0.6143777565280502  0.3118741634653048  0.6355659406102845  1.0000
  C   C6        1.0  0.6143667854966851  0.6881271391551279  0.8644431000271169  1.0000
  C   C7        1.0  0.385619214213456  0.6881414749790764  0.3644317189329199  1.0000
  C   C8        1.0  0.3856521273075586  0.3118724768977756  0.1355624285114985  1.0000
  C   C9        1.0  0.464450776452864  0.3977583981823898  0.6491569172306555  1.0000
  C   C10       1.0  0.4644883914175538  0.6022403745867564  0.8508451790823981  1.0000
  C   C11       1.0  0.5355007428729834  0.6022437477218006  0.3508408052819902  1.0000
  C   C12       1.0  0.5355555980298164  0.3977567116148606  0.14915273466139914  1.0000
  C   C13       1.0  0.2526894963054787  0.3731960720534175  0.6627863062184359  1.0000
  C   C14       1.0  0.2526612850819703  0.6268119768371037  0.8372139868181421  1.0000
  C   C15       1.0  0.7473137435968127  0.6268102902695745  0.3372057814260784  1.0000
  C   C16       1.0  0.7473388202399321  0.3731977586209466  0.1627817726715932  1.0000
  C   C17       1.0  0.18516436553442622  0.2618075632454762  0.6625812919928362  1.0000
  C   C18       1.0  0.18517220198540232  0.7381996423612804  0.837435012461782  1.0000
  C   C19       1.0  0.814831037916889  0.7381895229561408  0.33741528081002764  1.0000
  C   C20       1.0  0.8148561145600156  0.2618033468266674  0.1625741879220541  1.0000
  C   C21       1.0  0.3330491664852319  0.1740579848473658  0.6494941633392128  1.0000
  C   C22       1.0  0.3330726758381601  0.8259323550841557  0.8505205436510435  1.0000
  C   C23       1.0  0.6669415350954966  0.8259289819491116  0.35050212145549847  1.0000
  C   C24       1.0  0.666977582769988  0.17406135798241  0.14949314189114918  1.0000
  C   C25       1.0  0.15097863179618543  0.7625654833737555  0.5949527600187564  1.0000
  C   C26       1.0  0.1509833336667725  0.23743497596290547  0.9050541893340166  1.0000
  C   C27       1.0  0.8490058006237646  0.2374366625304347  0.405041610141545  1.0000
  C   C28       1.0  0.84901677165513  0.7625688565088068  0.0949396701022494  1.0000
  C   C29       1.0  0.0976453137428877  0.6387478152011425  0.568915954334251  1.0000
  C   C30       1.0  0.09762650626053933  0.3612560172705699  0.9310913145113985  1.0000
  C   C31       1.0  0.9023422532574517  0.3612627635406653  0.4310852487924563  1.0000
  C   C32       1.0  0.9023641953201891  0.6387495017686646  0.06890873890552737  1.0000
  C   C33       1.0  0.8889952099549208  0.6266247678419887  0.6176346085563436  1.0000
  C   C34       1.0  0.8889826716333575  0.3733697885083416  0.882369770272497  1.0000
  C   C35       1.0  0.1110033280767837  0.3733807511972458  0.3823694676833966  1.0000
  C   C36       1.0  0.1109954916258076  0.6266298275445621  0.11763508779565507  1.0000
  C   C37       1.0  0.7821890850209527  0.7381718139971412  0.6066651572877504  1.0000
  C   C38       1.0  0.7821937868915328  0.2618252722044758  0.8933340973969874  1.0000
  C   C39       1.0  0.2177937801088063  0.2618353916096154  0.39333036258232557  1.0000
  C   C40       1.0  0.2178110203009496  0.7381794035510012  0.10666587614671387  1.0000
  S   S1        1.0  0.519741639960003  0.9971830482886048  0.6410745973513698  1.0000
  S   S2        1.0  0.5197933605364398  0.0028030752241079  0.8589383693318451  1.0000
  S   S3        1.0  0.4802521962011214  0.0028207841831075996  0.3589279782009952  1.0000
  S   S4        1.0  0.4802694363932645  0.9971931676937444  0.141068180654834  1.0000
  N   N1        1.0  0.6769580867331799  0.10452586555469169  0.6244334832005619  1.0000
  N   N2        1.0  0.6769424138312274  0.8954543549716902  0.875578253899661  1.0000
  N   N3        1.0  0.3230670952318491  0.8954745937819766  0.37557078427033724  1.0000
  N   N4        1.0  0.3230749316828252  0.1045292386897358  0.12442709798874318  1.0000
  N   N5        1.0  0.2894377495129135  0.0611212070528211  0.646603430217773  1.0000
  N   N6        1.0  0.2894299130619373  0.9388632298923695  0.8534046834257222  1.0000
  N   N7        1.0  0.7105952689030915  0.9388623866086121  0.353393205554532  1.0000
  N   N8        1.0  0.7105764614207432  0.0611262667553873  0.14660457992755474  1.0000
  O   O1        1.0  0.9503953706430437  0.8214562048767036  0.6083792335473817  1.0000
  O   O2        1.0  0.9504235818665592  0.1785425678924355  0.8916208513542612  1.0000
  O   O3        1.0  0.0495812253259302  0.1785501574462955  0.39162022927229145  1.0000
  O   O4        1.0  0.0495968982278825  0.8214595780117476  0.1083735188060331  1.0000
