data_image0
_chemical_formula_structural       Mg6H42C66S6N12O18
_chemical_formula_sum              "Mg6 H42 C66 S6 N12 O18"
_cell_length_a       6.802673317736237
_cell_length_b       35.91887537127046
_cell_length_c       35.92346996187972
_cell_angle_alpha    119.62097474785216
_cell_angle_beta     93.58012732158424
_cell_angle_gamma    93.63295108210957

_space_group_name_H-M_alt    "P 1"
_space_group_IT_number       1

loop_
  _space_group_symop_operation_xyz
  'x, y, z'

loop_
  _atom_site_type_symbol
  _atom_site_label
  _atom_site_symmetry_multiplicity
  _atom_site_fract_x
  _atom_site_fract_y
  _atom_site_fract_z
  _atom_site_occupancy
  Mg  Mg1       1.0  0.9959522726620095  0.6956869259993325  0.3326801357060701  1.0000
  Mg  Mg2       1.0  0.30017377269545165  0.6369420443660162  0.3043195133949651  1.0000
  Mg  Mg3       1.0  0.6630189102195203  0.6673413188411031  0.3630419498335937  1.0000
  Mg  Mg4       1.0  0.30218178781300503  0.30600498389527075  0.6702374159975975  1.0000
  Mg  Mg5       1.0  0.9962217517840415  0.3643578204215174  0.6940644586407956  1.0000
  Mg  Mg6       1.0  0.6320979398564647  0.3298102056869253  0.6357107378510634  1.0000
  H   H1        1.0  0.4444737484309726  0.6027006126920397  0.07295707055123302  1.0000
  H   H2        1.0  0.8415808522046433  0.4703549180162979  0.3972844368089881  1.0000
  H   H3        1.0  0.3717688553610187  0.9267914449203898  0.5295473341567882  1.0000
  H   H4        1.0  0.9264680876296367  0.5691357384495247  0.041339645187413315  1.0000
  H   H5        1.0  0.35731720756536595  0.47217518703694594  0.43096125654168566  1.0000
  H   H6        1.0  0.8862355118364252  0.9587648558505891  0.5279699583888515  1.0000
  H   H7        1.0  0.7837541395460336  0.5012309862612765  0.9763591456856773  1.0000
  H   H8        1.0  0.28267651781698794  0.4749918759918685  0.4988315986602245  1.0000
  H   H9        1.0  0.8086581555713581  0.023739876927216092  0.5250005492318338  1.0000
  H   H10       1.0  0.8412346366540007  0.4219272175579362  0.9294952826195838  1.0000
  H   H11       1.0  0.4194920328456108  0.5074003685643831  0.5780526120242229  1.0000
  H   H12       1.0  0.9128291885951898  0.07041859660970569  0.4924195888309768  1.0000
  H   H13       1.0  0.2565254125549358  0.4589402509266731  0.9043317632638974  1.0000
  H   H14       1.0  0.7980447537860655  0.4452996938512613  0.5410575057442415  1.0000
  H   H15       1.0  0.3532025091556505  0.09569927229173908  0.554541973082479  1.0000
  H   H16       1.0  0.0455728106392073  0.37731861767645103  0.7959226140514915  1.0000
  H   H17       1.0  0.6688255125216714  0.4186915414570933  0.6227794095873449  1.0000
  H   H18       1.0  0.2502254644927646  0.20410787501019456  0.5812629942073997  1.0000
  H   H19       1.0  0.7596532725079967  0.4283928352302979  0.8164187383071637  1.0000
  H   H20       1.0  0.3319489658875483  0.38811980272469526  0.5716786043438447  1.0000
  H   H21       1.0  0.94366525649356  0.18361807890809698  0.6118579198338737  1.0000
  H   H22       1.0  0.5735874469144805  0.45195005174936403  0.8804661895141522  1.0000
  H   H23       1.0  0.12240597805279661  0.4285583258590008  0.5480856145408097  1.0000
  H   H24       1.0  0.6937418826151287  0.1195531735952713  0.5713901813279635  1.0000
  H   H25       1.0  0.3604293313360643  0.4555019746604714  0.95989209052798  1.0000
  H   H26       1.0  0.9050704146476676  0.504235409722426  0.5443812604450854  1.0000
  H   H27       1.0  0.40168528344717214  0.039991274645728894  0.4955594437645274  1.0000
  H   H28       1.0  0.5027129368498748  0.5234244389470247  0.02470605915984679  1.0000
  H   H29       1.0  0.9793370981247306  0.5012669919168502  0.4765249772572204  1.0000
  H   H30       1.0  0.4789072965841683  0.9751364263175901  0.4985903315451522  1.0000
  H   H31       1.0  0.032247974888967745  0.5620021162362862  0.09512191307130276  1.0000
  H   H32       1.0  0.46943651160817973  0.5331065309159937  0.4380136566349576  1.0000
  H   H33       1.0  0.9371954264937231  0.9048990717906237  0.4668372461540855  1.0000
  H   H34       1.0  0.25288011508961716  0.6345722318399253  0.20608660342512036  1.0000
  H   H35       1.0  0.617793004672919  0.5715948676218617  0.3654898549401508  1.0000
  H   H36       1.0  0.04622116745714768  0.7939035338272757  0.42849086152473587  1.0000
  H   H37       1.0  0.5371091175767476  0.5834109130149868  0.18252112200702433  1.0000
  H   H38       1.0  0.9529283484642337  0.5990407655805541  0.4166135133586977  1.0000
  H   H39       1.0  0.3543499064725  0.8175655403257664  0.40089855342705494  1.0000
  H   H40       1.0  0.7219969190776042  0.5663087849894237  0.11934374538199674  1.0000
  H   H41       1.0  0.15483759756948248  0.5530117679516235  0.4337223789718506  1.0000
  H   H42       1.0  0.6023432301096108  0.8807352814105727  0.4468943373152071  1.0000
  C   C1        1.0  0.2567296171378359  0.6100809667745182  0.11618926604629103  1.0000
  C   C2        1.0  0.6462256257576655  0.5061563747363067  0.389977805021445  1.0000
  C   C3        1.0  0.14018215022124283  0.8837481915604072  0.4938328123641966  1.0000
  C   C4        1.0  0.22510234137350707  0.5508253895858177  0.038026443027703645  1.0000
  C   C5        1.0  0.6742283447948125  0.48719215572975116  0.44919051852263436  1.0000
  C   C6        1.0  0.1879011810108436  0.961902975212027  0.5127446633686431  1.0000
  C   C7        1.0  0.02102359334724466  0.5438079670476978  0.02421925427649521  1.0000
  C   C8        1.0  0.47726002332305484  0.4803501127651728  0.4562448386653983  1.0000
  C   C9        1.0  0.9978420695969349  0.9758112062707197  0.5196571697233167  1.0000
  C   C10       1.0  0.9411380550409377  0.5058155939178377  0.9874738816930632  1.0000
  C   C11       1.0  0.43544889665441394  0.48151123164288384  0.4942043827282064  1.0000
  C   C12       1.0  0.9548200666153832  0.0125777284891839  0.5184362185410907  1.0000
  C   C13       1.0  0.061380305218477815  0.4737146328020215  0.9631637893172141  1.0000
  C   C14       1.0  0.5878470480107509  0.48927837257242146  0.5262446438042047  1.0000
  C   C15       1.0  0.09938273231834671  0.036806031559386596  0.5105472921674307  1.0000
  C   C16       1.0  0.03706981866167773  0.4104701774817696  0.8868689507083403  1.0000
  C   C17       1.0  0.626999970149406  0.476332471000859  0.5895380665483502  1.0000
  C   C18       1.0  0.15095727658228952  0.1131060174006677  0.5235745703103731  1.0000
  C   C19       1.0  0.29658438374266893  0.4156064062480739  0.8421041958440513  1.0000
  C   C20       1.0  0.8817497459886213  0.426580693517117  0.5844793312300851  1.0000
  C   C21       1.0  0.4551320665259979  0.1579179673079452  0.5734021451702773  1.0000
  C   C22       1.0  0.2019705378786369  0.38858234327020813  0.8008626932462022  1.0000
  C   C23       1.0  0.8139984463798271  0.4123797469796457  0.6115217416450491  1.0000
  C   C24       1.0  0.4016504037146903  0.19916449532261987  0.5875998912911555  1.0000
  C   C25       1.0  0.30564949005078296  0.3750320688020992  0.7644039006704872  1.0000
  C   C26       1.0  0.9311500284071316  0.3895000985042003  0.6250820565984156  1.0000
  C   C27       1.0  0.5416514381033295  0.2356334954799877  0.6105148507147575  1.0000
  C   C28       1.0  0.5121898306977642  0.38963788551231454  0.7703682314786775  1.0000
  C   C29       1.0  0.12312048838678182  0.3808565781406941  0.6104626301752276  1.0000
  C   C30       1.0  0.7421686735356445  0.22967453055792214  0.6191754172651828  1.0000
  C   C31       1.0  0.6025444409135546  0.41769812196042005  0.8125581673785902  1.0000
  C   C32       1.0  0.18552127140316094  0.3949718275903962  0.5823943700417615  1.0000
  C   C33       1.0  0.7904701314987862  0.1874783635819455  0.6050405726440005  1.0000
  C   C34       1.0  0.49874275564058473  0.4308833303170941  0.8480957786853552  1.0000
  C   C35       1.0  0.06863036512696401  0.41728257291647  0.5691816521341835  1.0000
  C   C36       1.0  0.6512252267083556  0.1519342997706588  0.5826874382036424  1.0000
  C   C37       1.0  0.634843798719487  0.3768944019297321  0.7345026402578442  1.0000
  C   C38       1.0  0.25837636138537334  0.35773920498630213  0.6232057985292627  1.0000
  C   C39       1.0  0.9006085407412102  0.2655431309259342  0.6423134649538087  1.0000
  C   C40       1.0  0.26561632111160094  0.480811940437313  0.9768720435373907  1.0000
  C   C41       1.0  0.7849323295230448  0.4959155175737706  0.5191052666132947  1.0000
  C   C42       1.0  0.28986150963338997  0.023046407818433992  0.5039008147226697  1.0000
  C   C43       1.0  0.34534740665758795  0.5188211481343288  0.013619616934114597  1.0000
  C   C44       1.0  0.8266010326287727  0.4947228279485216  0.481125344022125  1.0000
  C   C45       1.0  0.33270257642674045  0.9862747346311593  0.5051373571674773  1.0000
  C   C46       1.0  0.00018692075643396593  0.5997723610857334  0.15892070125084237  1.0000
  C   C47       1.0  0.39973862350823464  0.5591347987183539  0.4002533920524981  1.0000
  C   C48       1.0  0.8408233540421295  0.8411199169467168  0.4408638303148749  1.0000
  C   C49       1.0  0.09621402662935445  0.6232817261046434  0.20052682619198228  1.0000
  C   C50       1.0  0.4723723111532935  0.5772623573600838  0.3767619472048267  1.0000
  C   C51       1.0  0.8951920357832678  0.7994945641871567  0.42277508379257966  1.0000
  C   C52       1.0  0.9930517148321628  0.6332529048413775  0.2365350483926603  1.0000
  C   C53       1.0  0.3591927175768391  0.6032667888782725  0.3667744539721198  1.0000
  C   C54       1.0  0.7560682846972498  0.7634930964051706  0.3967579098937506  1.0000
  C   C55       1.0  0.7860858172727632  0.618625765226106  0.22965451821137595  1.0000
  C   C56       1.0  0.1667929785394122  0.6109763073582214  0.3813769254612182  1.0000
  C   C57       1.0  0.5560436088243678  0.7703850806354211  0.3890135080968733  1.0000
  C   C58       1.0  0.6945356748955973  0.594119844709965  0.1870422691735669  1.0000
  C   C59       1.0  0.09969239879179538  0.5928758114232268  0.4058961307793538  1.0000
  C   C60       1.0  0.5071737873686928  0.8130203148894565  0.4070921697036594  1.0000
  C   C61       1.0  0.7976166560619832  0.5844764482205207  0.1519971816178155  1.0000
  C   C62       1.0  0.21237842316589453  0.5674927980453717  0.4155463527378913  1.0000
  C   C63       1.0  0.6452696605931223  0.8480681734341076  0.4324824707325447  1.0000
  C   C64       1.0  0.6634595919749273  0.6279627459220973  0.2649582903958957  1.0000
  C   C65       1.0  0.03493871976426277  0.6369314184536703  0.3720280999652487  1.0000
  C   C66       1.0  0.39820345716779587  0.7350803609708835  0.3630563329109009  1.0000
  S   S1        1.0  0.38643129312817603  0.6560816839820944  0.15240749785344576  1.0000
  S   S2        1.0  0.7299259837785996  0.4963706912461276  0.34396709159419453  1.0000
  S   S3        1.0  0.23282065103942526  0.8475033712693686  0.5036734554339828  1.0000
  S   S4        1.0  0.9149198276978155  0.36240498548635  0.8538613142809695  1.0000
  S   S5        1.0  0.5528717614850223  0.4914517687543165  0.6376181035259733  1.0000
  S   S6        1.0  0.061259896428204286  0.14607830108011646  0.5085573320549415  1.0000
  N   N1        1.0  0.3122183407270427  0.5890933729522699  0.07460805686124415  1.0000
  N   N2        1.0  0.7229664518999643  0.48559279558367047  0.4109519848911134  1.0000
  N   N3        1.0  0.23804092786630096  0.9252538116061118  0.5143301690187342  1.0000
  N   N4        1.0  0.9728780665038528  0.43523384607975385  0.9271658985962006  1.0000
  N   N5        1.0  0.5377821286055351  0.49175112844604024  0.5647238105045105  1.0000
  N   N6        1.0  0.04680936338493071  0.0727773467231714  0.5080318808466161  1.0000
  N   N7        1.0  0.19603679867082494  0.43004873000032967  0.8791784497769797  1.0000
  N   N8        1.0  0.7666372080584765  0.4491261737835046  0.5699902125944192  1.0000
  N   N9        1.0  0.31766896994912486  0.12082977535283847  0.5507981904194708  1.0000
  N   N10       1.0  0.09818115108611643  0.5888612198156693  0.12203015621146557  1.0000
  N   N11       1.0  0.5086389850197365  0.5331752699901741  0.4111687038535833  1.0000
  N   N12       1.0  0.9758312861909105  0.8779835198890493  0.4668207254879348  1.0000
  O   O1        1.0  0.48236624361064184  0.612461213560998  0.2574159791777363  1.0000
  O   O2        1.0  0.869197202671714  0.6448620501789151  0.38749731541487614  1.0000
  O   O3        1.0  0.2246998103115488  0.7426330439858759  0.3551168170552613  1.0000
  O   O4        1.0  0.7432330775592888  0.6530333140753939  0.30420064066443336  1.0000
  O   O5        1.0  0.08991281705927893  0.6511275229804028  0.3469858035274455  1.0000
  O   O6        1.0  0.43884024867818283  0.6958236276636925  0.34885552533380343  1.0000
  O   O7        1.0  0.09616520798807218  0.6557906160386506  0.27559028220506576  1.0000
  O   O8        1.0  0.43988762804374926  0.6197761276478319  0.3442241485251785  1.0000
  O   O9        1.0  0.8201673259568593  0.7244237031310943  0.3802347535991116  1.0000
  O   O10       1.0  0.8156240647430268  0.3922579717025627  0.7408762376876155  1.0000
  O   O11       1.0  0.4237809952294  0.3487175258912457  0.6078086408909016  1.0000
  O   O12       1.0  0.07493297562563582  0.2591749958961387  0.6513163729865427  1.0000
  O   O13       1.0  0.5552251003856127  0.34899472120407177  0.6959573132332011  1.0000
  O   O14       1.0  0.2065082861246452  0.34711789387446856  0.6511180485987822  1.0000
  O   O15       1.0  0.8594141280681598  0.3040899079342624  0.6529594524249163  1.0000
  O   O16       1.0  0.2027368691500016  0.34929788979055587  0.7257949710014913  1.0000
  O   O17       1.0  0.8537770200790861  0.3766093847842313  0.6507988219770767  1.0000
  O   O18       1.0  0.4772356732751604  0.27424839387367667  0.6234285743484946  1.0000
