data_image0
_chemical_formula_structural       Al6H14C36O28
_chemical_formula_sum              "Al6 H14 C36 O28"
_cell_length_a       11.754106162009986
_cell_length_b       12.47833250637916
_cell_length_c       19.318824242650038
_cell_angle_alpha    90.4712579231426
_cell_angle_beta     90.35475532928555
_cell_angle_gamma    57.83881222012005

_space_group_name_H-M_alt    "P 1"
_space_group_IT_number       1

loop_
  _space_group_symop_operation_xyz
  'x, y, z'

loop_
  _atom_site_type_symbol
  _atom_site_label
  _atom_site_symmetry_multiplicity
  _atom_site_fract_x
  _atom_site_fract_y
  _atom_site_fract_z
  _atom_site_occupancy
  Al  Al1       1.0  0.46211822323563473  0.7773578417760021  0.5028759358780519  1.0000
  Al  Al2       1.0  0.7422823260641425  0.5107260426014193  0.5045526053752383  1.0000
  Al  Al3       1.0  0.7505420176905702  0.7474036395036806  0.5078932414656305  1.0000
  Al  Al4       1.0  0.5417435267366315  0.24264872692635475  0.024870518504869193  1.0000
  Al  Al5       1.0  0.24894126049724  0.4965018159246954  0.026029137090894494  1.0000
  Al  Al6       1.0  0.2675346430100022  0.2470265949859893  0.029319759490405793  1.0000
  H   H1        1.0  0.9544524616775905  0.3652107054226478  0.3278800275297513  1.0000
  H   H2        1.0  0.08270070583094483  0.29908577746811466  0.2168608210852341  1.0000
  H   H3        1.0  0.6460863504432481  0.08402708643919252  0.2229865758086617  1.0000
  H   H4        1.0  0.2767412858512302  0.6356382042656605  0.2164956288575866  1.0000
  H   H5        1.0  0.7129042615777477  0.9550454416458153  0.33188118880000417  1.0000
  H   H6        1.0  0.3444208344028324  0.6950486113479288  0.32708787247883453  1.0000
  H   H7        1.0  0.9831681934085098  0.5822442999288313  0.20328841044200624  1.0000
  H   H8        1.0  0.44320896912623203  0.0005237599450111937  0.20613646477992376  1.0000
  H   H9        1.0  0.5821752408201352  0.4523869097862559  0.19753394722292938  1.0000
  H   H10       1.0  0.013820142737664251  0.5782202531596641  0.3285748235575453  1.0000
  H   H11       1.0  0.4251596670077832  0.00754785395796631  0.3247453358149741  1.0000
  H   H12       1.0  0.5920281111019748  0.42255436717042033  0.31993549131315996  1.0000
  H   H13       1.0  0.2398385887089489  0.8930972940664432  0.543188296061359  1.0000
  H   H14       1.0  0.7602063043004748  0.19622911038270982  0.04623796641905639  1.0000
  C   C1        1.0  0.5621162105910287  0.8984982867767642  0.6055528848481444  1.0000
  C   C2        1.0  0.43854796918108735  0.4743004310110879  0.11868089445840008  1.0000
  C   C3        1.0  0.09731880051764104  0.44405439929671103  0.12207629676340294  1.0000
  C   C4        1.0  0.46831240634183763  0.11160661129540732  0.12793662713875878  1.0000
  C   C5        1.0  0.558389666182059  0.9033230625767885  0.4098204926423036  1.0000
  C   C6        1.0  0.5532952720487289  0.5518568187318993  0.4065784813294328  1.0000
  C   C7        1.0  0.9113863482336416  0.5496706918878546  0.413568703664481  1.0000
  C   C8        1.0  0.04305700685768701  0.4658712987920738  0.8635556505146125  1.0000
  C   C9        1.0  0.4866504185405842  0.043401996280458426  0.8646217792614478  1.0000
  C   C10       1.0  0.4519780631756945  0.49262310158035666  0.8563727107945949  1.0000
  C   C11       1.0  0.984959872585158  0.49445531181144287  0.7337097336212037  1.0000
  C   C12       1.0  0.5443974475357366  0.5636453142560854  0.6021179264506172  1.0000
  C   C13       1.0  0.5220244977722929  0.9795251564400403  0.7359558625809652  1.0000
  C   C14       1.0  0.49539091073344105  0.5209461480061108  0.7295361896676906  1.0000
  C   C15       1.0  0.01536209150003031  0.4788257833564488  0.801812325498325  1.0000
  C   C16       1.0  0.5038293994390416  0.012707804289320305  0.8034772740653933  1.0000
  C   C17       1.0  0.4723039781844917  0.5061706231078703  0.7959888587461491  1.0000
  C   C18       1.0  0.9573608726293515  0.5101899679965953  0.6719863660749323  1.0000
  C   C19       1.0  0.5381757835162942  0.9500383674407404  0.6746290936097805  1.0000
  C   C20       1.0  0.5179017299733462  0.5330815793244169  0.6693039326769038  1.0000
  C   C21       1.0  0.9785415435058765  0.5177323973132674  0.3457504106927303  1.0000
  C   C22       1.0  0.5261803545778251  0.9729845645934461  0.3442876597606812  1.0000
  C   C23       1.0  0.9018648023193165  0.5404801605560365  0.6032687259642413  1.0000
  C   C24       1.0  0.52161522615436  0.5181298230221074  0.33906481018922807  1.0000
  C   C25       1.0  0.030874664299830056  0.482208593510862  0.1900428467471684  1.0000
  C   C26       1.0  0.4995114058071339  0.044945067634685615  0.19452904564953846  1.0000
  C   C27       1.0  0.47488469028769487  0.5043582908274049  0.18588681944054025  1.0000
  C   C28       1.0  0.037561235131505666  0.39674154350029067  0.23511238757362204  1.0000
  C   C29       1.0  0.5888348601800788  0.04279017210419771  0.23976764194991057  1.0000
  C   C30       1.0  0.3821547596589668  0.582921529055767  0.23258540633650432  1.0000
  C   C31       1.0  0.9868000167599574  0.4249074256844879  0.305405746417712  1.0000
  C   C32       1.0  0.6153220856348512  0.9869038018677331  0.3080813683951219  1.0000
  C   C33       1.0  0.41350206790023963  0.6039359262923226  0.30208294412566516  1.0000
  C   C34       1.0  0.4339833895650712  0.45680703870387895  0.9240801160026492  1.0000
  C   C35       1.0  0.09930873112048036  0.44434913240161933  0.9320486819638416  1.0000
  C   C36       1.0  0.4577872308571571  0.09899559162654013  0.9327544630079242  1.0000
  O   O1        1.0  0.46402888402980874  0.6750515301199443  0.5812344360476869  1.0000
  O   O2        1.0  0.6684729065627549  0.873413956197638  0.4416597201956519  1.0000
  O   O3        1.0  0.4753835238293506  0.8743243337974963  0.4290990809034908  1.0000
  O   O4        1.0  0.668688649859462  0.46775805722969466  0.433007821088644  1.0000
  O   O5        1.0  0.8830663807576826  0.6558296421627716  0.44016827135872205  1.0000
  O   O6        1.0  0.654222794684735  0.677342725664815  0.5063994006807917  1.0000
  O   O7        1.0  0.5423055172935776  0.11885671281106627  0.960449733429051  1.0000
  O   O8        1.0  0.33120082856742544  0.5401246761914962  0.9593729455538876  1.0000
  O   O9        1.0  0.12722675682152843  0.34291309642546963  0.9625803808564509  1.0000
  O   O10       1.0  0.5194484579100518  0.34487283300835264  0.9420694766175398  1.0000
  O   O11       1.0  0.12297784687413577  0.5270285497034807  0.9551141705145906  1.0000
  O   O12       1.0  0.8707295679936635  0.4655520054299914  0.5761451196483376  1.0000
  O   O13       1.0  0.3431795914164297  0.12853730354520115  0.9582510622332162  1.0000
  O   O14       1.0  0.5384633515103161  0.1547194494980175  0.10801324816692665  1.0000
  O   O15       1.0  0.3160877161853222  0.5466714146553074  0.09724347410411838  1.0000
  O   O16       1.0  0.13924185141678438  0.33203762359387673  0.09947392897631599  1.0000
  O   O17       1.0  0.5291995238335051  0.3757740417331377  0.0876970156194403  1.0000
  O   O18       1.0  0.11422336519228084  0.5250736181122236  0.09133230078236917  1.0000
  O   O19       1.0  0.365595745468724  0.12354055198339611  0.09506630081101969  1.0000
  O   O20       1.0  0.6773601573014647  0.8650737889215137  0.5792665145074024  1.0000
  O   O21       1.0  0.35012432373471114  0.330122743939917  0.025966892424214898  1.0000
  O   O22       1.0  0.47252513728988543  0.8859172503024267  0.5777871062893851  1.0000
  O   O23       1.0  0.649690176135948  0.47645437896273535  0.5701526147842202  1.0000
  O   O24       1.0  0.8819603077510936  0.6421944748819257  0.5765400350685181  1.0000
  O   O25       1.0  0.47156929185295854  0.6587790802138472  0.432951791536574  1.0000
  O   O26       1.0  0.8797530277885884  0.4753932636036852  0.43996278032405184  1.0000
  O   O27       1.0  0.28620780491416314  0.8688503191006873  0.4992704214419346  1.0000
  O   O28       1.0  0.7173878977190001  0.1593992743033042  0.021451247693732998  1.0000
