data_image0
_chemical_formula_structural       Zn6H48C52N24Cl4O12
_chemical_formula_sum              "Zn6 H48 C52 N24 Cl4 O12"
_cell_length_a       6.827933161210778
_cell_length_b       11.223966663367303
_cell_length_c       22.381289294720307
_cell_angle_alpha    87.21493306859388
_cell_angle_beta     80.80776181683126
_cell_angle_gamma    72.29183438834647

_space_group_name_H-M_alt    "P 1"
_space_group_IT_number       1

loop_
  _space_group_symop_operation_xyz
  'x, y, z'

loop_
  _atom_site_type_symbol
  _atom_site_label
  _atom_site_symmetry_multiplicity
  _atom_site_fract_x
  _atom_site_fract_y
  _atom_site_fract_z
  _atom_site_occupancy
  Zn  Zn1       1.0  0.8914235319365602  0.49977767501844284  0.5003839690548375  1.0000
  Zn  Zn2       1.0  0.14132590269143464  0.0001440308437068  0.0003329945164196987  1.0000
  Zn  Zn3       1.0  0.7297417001534184  0.11535280630228331  0.4151131307017053  1.0000
  Zn  Zn4       1.0  0.26142628300478066  0.8826406508190558  0.5850458440332318  1.0000
  Zn  Zn5       1.0  0.8942528761425662  0.6172834618546119  0.08499309160576018  1.0000
  Zn  Zn6       1.0  0.5950199422683371  0.38468767824267064  0.9150925710059922  1.0000
  H   H1        1.0  0.8504186706697395  0.2382148570470335  0.4988904422882143  1.0000
  H   H2        1.0  0.589485246180473  0.7614153142073619  0.5006548732281075  1.0000
  H   H3        1.0  0.10107090369970713  0.7385939076012208  0.0006819966151211957  1.0000
  H   H4        1.0  0.838406700236135  0.2615861996018793  0.9989498799087572  1.0000
  H   H5        1.0  0.9903143212443696  0.09456466628200391  0.4870471003249577  1.0000
  H   H6        1.0  0.5730875337548229  0.9052450758944205  0.5125869633736286  1.0000
  H   H7        1.0  0.2284628165590377  0.5947267353054073  0.012525438431047997  1.0000
  H   H8        1.0  0.8349064168250564  0.40518308024943656  0.9870812003439227  1.0000
  H   H9        1.0  0.04587328083913899  0.2593714915635488  0.36381615921469995  1.0000
  H   H10       1.0  0.6707743887643789  0.7390044890323111  0.6356791663921086  1.0000
  H   H11       1.0  0.15978341720150974  0.7610907771764063  0.1356987148376234  1.0000
  H   H12       1.0  0.05512446790730531  0.2409046798165591  0.8639623798945592  1.0000
  H   H13       1.0  0.22926757538674994  0.2974826139681142  0.2621460129660846  1.0000
  H   H14       1.0  0.7893809979597465  0.7032231122880077  0.7368603985492896  1.0000
  H   H15       1.0  0.24157811056956302  0.7972116551951771  0.2369856166980782  1.0000
  H   H16       1.0  0.2768783504242762  0.20230534896773383  0.7623472321142728  1.0000
  H   H17       1.0  0.17717698830274042  0.1931210445182359  0.1705573957447228  1.0000
  H   H18       1.0  0.5385976717068673  0.8080195800646734  0.8286935962211218  1.0000
  H   H19       1.0  0.09607801756985172  0.692003670722194  0.3287291717147056  1.0000
  H   H20       1.0  0.12049200466644533  0.3059953979904506  0.6706477177941893  1.0000
  H   H21       1.0  0.9368142403735715  0.0661812374191229  0.18410922960834603  1.0000
  H   H22       1.0  0.18439174991760157  0.9338800911011873  0.8157126153382421  1.0000
  H   H23       1.0  0.8686605344266809  0.565586676880443  0.315607520472291  1.0000
  H   H24       1.0  0.7533625783717999  0.43324758367267446  0.6840444336587481  1.0000
  H   H25       1.0  0.7290207906258742  0.9641209566887883  0.20182640859952267  1.0000
  H   H26       1.0  0.8928080366251764  0.0372319730988053  0.7981919974421602  1.0000
  H   H27       1.0  0.6798181415286284  0.4627916766722038  0.2981040345006463  1.0000
  H   H28       1.0  0.4437278690120009  0.5363746030336216  0.7018149168586375  1.0000
  H   H29       1.0  0.47697482855499373  0.8515066069474173  0.22789185689149602  1.0000
  H   H30       1.0  0.5556365307206053  0.1506394277457943  0.7724268751518721  1.0000
  H   H31       1.0  0.45533593705049924  0.34986962467382204  0.27236772543879084  1.0000
  H   H32       1.0  0.07897109082589557  0.6488187345051557  0.7278157744012931  1.0000
  H   H33       1.0  0.29112974081149906  0.8570976224259398  0.33774070579212184  1.0000
  H   H34       1.0  0.4875390577553491  0.1434612671908084  0.6629517252087638  1.0000
  H   H35       1.0  0.379659107407086  0.3573835454423815  0.1629023296521339  1.0000
  H   H36       1.0  0.8984523981145789  0.6427937559650587  0.8375992896877875  1.0000
  H   H37       1.0  0.3958718668073759  0.973104179116227  0.4139203500948412  1.0000
  H   H38       1.0  0.7856431044953284  0.024853737926790104  0.5867689457624721  1.0000
  H   H39       1.0  0.559783981345106  0.4756394149841014  0.0867402887275048  1.0000
  H   H40       1.0  0.11898696804280474  0.5267834582138989  0.9138139790883669  1.0000
  H   H41       1.0  0.17740968212944355  0.2967877119104756  0.5595666665232102  1.0000
  H   H42       1.0  0.03547743510859655  0.7023467687779075  0.4409121335642894  1.0000
  H   H43       1.0  0.4883827604596221  0.7974557594173035  0.9408185554732711  1.0000
  H   H44       1.0  0.22411165652933826  0.203135864482114  0.0594646516185264  1.0000
  H   H45       1.0  0.44388728723824794  0.28989761304291056  0.5524124473565308  1.0000
  H   H46       1.0  0.28768636543431125  0.7098681716682194  0.44752831105778773  1.0000
  H   H47       1.0  0.7480742789859461  0.790039106231504  0.9474137993517857  1.0000
  H   H48       1.0  0.483756433399023  0.20998948800613704  0.052226962698590305  1.0000
  C   C1        1.0  0.025469838724376453  0.21866500817656492  0.3228497812811  1.0000
  C   C2        1.0  0.5677077862145838  0.7802141451070597  0.6766878904134614  1.0000
  C   C3        1.0  0.09787450520743594  0.7198287462494051  0.1766836035696002  1.0000
  C   C4        1.0  0.9941135547456383  0.2814297217510813  0.8229676059279002  1.0000
  C   C5        1.0  0.12855970382133114  0.23821859810790613  0.2660560676872805  1.0000
  C   C6        1.0  0.6328098258328798  0.7618156077210473  0.7332493983806927  1.0000
  C   C7        1.0  0.1440859255558707  0.738352609174747  0.2332940087222752  1.0000
  C   C8        1.0  0.11690264887070607  0.2615712353583817  0.7661962854890447  1.0000
  C   C9        1.0  0.09816807082704318  0.1814760572778269  0.2157626178330361  1.0000
  C   C10       1.0  0.49397984717963106  0.8188153464863249  0.7836545256074956  1.0000
  C   C11       1.0  0.06261106967022577  0.6810648087220557  0.2836597210541427  1.0000
  C   C12       1.0  0.0297826765846311  0.3179462169574379  0.7158471847956349  1.0000
  C   C13       1.0  0.9623463329846661  0.1093708499622608  0.2234899033829052  1.0000
  C   C14       1.0  0.2935018362325299  0.8903547183444616  0.77623117922397  1.0000
  C   C15       1.0  0.9342302615623768  0.6091999645677362  0.2761635641158264  1.0000
  C   C16       1.0  0.8219566014931274  0.3902627942124752  0.7234890306816837  1.0000
  C   C17       1.0  0.8597401811318048  0.0964136856197513  0.2816858905917599  1.0000
  C   C18       1.0  0.237219621570823  0.9025103603943805  0.718239176648055  1.0000
  C   C19       1.0  0.8901588010886532  0.5971977060137164  0.2181537910098825  1.0000
  C   C20       1.0  0.706376587695054  0.403657662677425  0.7816841420738072  1.0000
  C   C21       1.0  0.705265890443826  0.026575561194768203  0.294010847809524  1.0000
  C   C22       1.0  0.025510633175940812  0.9724840982761053  0.7061696837193453  1.0000
  C   C23       1.0  0.7482341687835047  0.5273661284452729  0.2060918380902876  1.0000
  C   C24       1.0  0.4821271492120545  0.4736407532113347  0.7939873619183401  1.0000
  C   C25       1.0  0.655977602929177  0.9641555615018831  0.24876099187487444  1.0000
  C   C26       1.0  0.8677528573913091  0.0362490093537531  0.7514098705161487  1.0000
  C   C27       1.0  0.6539038034122342  0.46377464041725613  0.2513239293754097  1.0000
  C   C28       1.0  0.37053262905143236  0.5361632330941505  0.7487240276565713  1.0000
  C   C29       1.0  0.5094450953366664  0.9003975962649093  0.2641852359559564  1.0000
  C   C30       1.0  0.6736418252327993  0.10052043519589661  0.7361359360623538  1.0000
  C   C31       1.0  0.5235414499601276  0.3998202694843158  0.236078416663112  1.0000
  C   C32       1.0  0.1602120139533483  0.5998407655223019  0.764120685085075  1.0000
  C   C33       1.0  0.4112082705060873  0.9025440299422627  0.3238380597294608  1.0000
  C   C34       1.0  0.638519308840962  0.09743499523877831  0.6766978460166087  1.0000
  C   C35       1.0  0.48503377914774165  0.403097438811308  0.1766650410624777  1.0000
  C   C36       1.0  0.0640186771214817  0.5974642566011  0.8237413203113064  1.0000
  C   C37       1.0  0.4672340132613473  0.9675318689420822  0.3665060805808338  1.0000
  C   C38       1.0  0.8027853042506834  0.0310947627324509  0.6340401335344978  1.0000
  C   C39       1.0  0.5833236630378736  0.46928241729130354  0.1340048118765438  1.0000
  C   C40       1.0  0.1849002630047924  0.5324876407839129  0.8664249451501931  1.0000
  C   C41       1.0  0.32460829804200125  0.3113348271251013  0.4696587799179497  1.0000
  C   C42       1.0  0.10531382077484602  0.687987641872283  0.5305752490990372  1.0000
  C   C43       1.0  0.5438083197045317  0.8120318678537117  0.0304625394977478  1.0000
  C   C44       1.0  0.38556790348793857  0.1886963047676602  0.9695164742231839  1.0000
  C   C45       1.0  0.33013122584879556  0.25952393979422794  0.5318215253968573  1.0000
  C   C46       1.0  0.12226680771792799  0.7398883146641637  0.4684020129872409  1.0000
  C   C47       1.0  0.6127040073804014  0.7600367332747169  0.9683206441635974  1.0000
  C   C48       1.0  0.33951070229772984  0.24040711872011403  0.03169589493323599  1.0000
  C   C49       1.0  0.39397790087480916  0.1166425370391337  0.5347364125349259  1.0000
  C   C50       1.0  0.04555085603597329  0.88275755897142  0.4655263013719022  1.0000
  C   C51       1.0  0.6788472109833493  0.6171441073369905  0.965485018725694  1.0000
  C   C52       1.0  0.2605737568839858  0.3832885214752082  0.034669375606107194  1.0000
  N   N1        1.0  0.8945441603547838  0.1495835133136652  0.3302519345996586  1.0000
  N   N2        1.0  0.37487527373165364  0.8487129697385924  0.6695640767456652  1.0000
  N   N3        1.0  0.9738469479407923  0.6511428685740982  0.16951550113367378  1.0000
  N   N4        1.0  0.7941855359182098  0.3506075489315208  0.8302991356982048  1.0000
  N   N5        1.0  0.611619161577231  0.026600813355678102  0.3519816566324678  1.0000
  N   N6        1.0  0.9910346010042022  0.9715553799137454  0.6484004987578018  1.0000
  N   N7        1.0  0.7125966806445662  0.5284566476904972  0.1483345581804443  1.0000
  N   N8        1.0  0.38838716710123594  0.4734901755110883  0.8519380106218009  1.0000
  N   N9        1.0  0.47877695672414694  0.2783078064504211  0.4228325125124144  1.0000
  N   N10       1.0  0.17947642537978228  0.7205395478157613  0.5771081931319557  1.0000
  N   N11       1.0  0.6504659755631509  0.7794668681971687  0.07701311751012702  1.0000
  N   N12       1.0  0.5067789014711797  0.22172613123799323  0.9227066597395961  1.0000
  N   N13       1.0  0.4098372594083913  0.3476044123136646  0.3749328435065067  1.0000
  N   N14       1.0  0.1312441830123278  0.6508838001084669  0.6250691637940662  1.0000
  N   N15       1.0  0.5325818254002784  0.8491946313263199  0.12495914223743648  1.0000
  N   N16       1.0  0.5071506935673471  0.1524407485573747  0.8748060031120417  1.0000
  N   N17       1.0  0.22118409778577336  0.42072344712651244  0.3917187075650546  1.0000
  N   N18       1.0  0.03224599908946147  0.5780565680439054  0.6086008575755528  1.0000
  N   N19       1.0  0.360855745631497  0.9220695619170343  0.1084591563297153  1.0000
  N   N20       1.0  0.39158440292705193  0.07932545480540651  0.8915721056992113  1.0000
  N   N21       1.0  0.16310384242398626  0.399246951905134  0.4511488236463279  1.0000
  N   N22       1.0  0.012588664189230808  0.6000708407661506  0.5493366506959703  1.0000
  N   N23       1.0  0.36323770053945753  0.9000262959730136  0.04919635540635169  1.0000
  N   N24       1.0  0.31197792996558593  0.1008075616180975  0.9509972443623339  1.0000
  Cl  Cl1       1.0  0.687183797319193  0.6157842317087301  0.4353583782629329  1.0000
  Cl  Cl2       1.0  0.7359071361053681  0.3832978741274005  0.56529941602588  1.0000
  Cl  Cl3       1.0  0.8694592418945105  0.1165602336998646  0.06531239645423878  1.0000
  Cl  Cl4       1.0  0.053028729610275833  0.8841258519866528  0.9353376857547673  1.0000
  O   O1        1.0  0.9169866067404798  0.17431847255765834  0.4669428650555076  1.0000
  O   O2        1.0  0.5594772606226928  0.8251975963400326  0.5326451383621418  1.0000
  O   O3        1.0  0.1349869814849144  0.674750833229325  0.03263661698081681  1.0000
  O   O4        1.0  0.8411022765805286  0.3254741667042822  0.9670000085086768  1.0000
  O   O5        1.0  0.5407091768137421  0.0531455107982239  0.49493076799854663  1.0000
  O   O6        1.0  0.0886733483036934  0.9462929310862976  0.504975859547649  1.0000
  O   O7        1.0  0.7854164806146501  0.5535647777568258  0.004938031088435895  1.0000
  O   O8        1.0  0.3437798696112748  0.44679677089874303  0.9948512616281563  1.0000
  O   O9        1.0  0.29948117521573886  0.0698446712815155  0.5781953407829405  1.0000
  O   O10       1.0  0.9479681002813719  0.9292963562634001  0.4223532476888181  1.0000
  O   O11       1.0  0.6278875562653571  0.5706305622059205  0.9222810531434077  1.0000
  O   O12       1.0  0.11955515491471402  0.4301387620850861  0.0781738333695898  1.0000
