data_image0
_chemical_formula_structural       AlH27C33O6
_chemical_formula_sum              "Al1 H27 C33 O6"
_cell_length_a       3.9891091454916086
_cell_length_b       16.09155861968593
_cell_length_c       16.090413556571253
_cell_angle_alpha    120.48251409328819
_cell_angle_beta     88.90807627479971
_cell_angle_gamma    88.92384793509285

_space_group_name_H-M_alt    "P 1"
_space_group_IT_number       1

loop_
  _space_group_symop_operation_xyz
  'x, y, z'

loop_
  _atom_site_type_symbol
  _atom_site_label
  _atom_site_symmetry_multiplicity
  _atom_site_fract_x
  _atom_site_fract_y
  _atom_site_fract_z
  _atom_site_occupancy
  Al  Al1       1.0  8.089893705690558e-05  0.5010515794103014  0.4988065078913308  1.0000
  H   H1        1.0  0.499923697533454  0.9213437151286995  0.07857960070496958  1.0000
  H   H2        1.0  0.4509424173009647  0.6548024410721849  0.07819620472311326  1.0000
  H   H3        1.0  0.5489945148515291  0.9217488883558358  0.34510483295720457  1.0000
  H   H4        1.0  0.7699836744515096  0.0509023633738295  0.1571074806131421  1.0000
  H   H5        1.0  0.2692755844727727  0.058015045370261496  0.40004142083418504  1.0000
  H   H6        1.0  0.23013265998887528  0.8427599887023121  0.9489223625035949  1.0000
  H   H7        1.0  0.7306558432796777  0.5998469061197084  0.9418706524104294  1.0000
  H   H8        1.0  0.7408624442312258  0.6000392244386957  0.15468724780187418  1.0000
  H   H9        1.0  0.2591096512051863  0.8452424638676842  0.3999186330970587  1.0000
  H   H10       1.0  0.3521337551994463  0.22375068770390527  0.564396951555878  1.0000
  H   H11       1.0  0.2643339881936129  0.32749117345322537  0.5554376277612434  1.0000
  H   H12       1.0  0.9649459896254058  0.2368914998561991  0.5190358973973872  1.0000
  H   H13       1.0  0.6645434206844599  0.22087249944955537  0.1609358386222439  1.0000
  H   H14       1.0  0.7800927686548107  0.3201580679396443  0.2728850039456674  1.0000
  H   H15       1.0  0.06256536054102209  0.22046511669665134  0.2082613186588844  1.0000
  H   H16       1.0  0.3352347217351905  0.8388711654810946  0.7789367513779197  1.0000
  H   H17       1.0  0.22006357476551835  0.7269104205212001  0.6796582618095428  1.0000
  H   H18       1.0  0.9375131050309945  0.7914445001119714  0.7792940541053994  1.0000
  H   H19       1.0  0.6476765865753079  0.435470485678934  0.7761624678234469  1.0000
  H   H20       1.0  0.735469995673384  0.4444319367166897  0.6723808592382737  1.0000
  H   H21       1.0  0.034835779755795195  0.48090877787555536  0.763035375031528  1.0000
  H   H22       1.0  0.020062658217945298  0.474866152817057  0.24962527278566424  1.0000
  H   H23       1.0  0.6124083750067512  0.43049669775464844  0.22782143481835246  1.0000
  H   H24       1.0  0.8134439395226423  0.4578849558939737  0.14517439622229483  1.0000
  H   H25       1.0  0.9800199466283884  0.7503126678630778  0.5251577280823554  1.0000
  H   H26       1.0  0.3877752362350506  0.7720960582786416  0.5694543596019199  1.0000
  H   H27       1.0  0.18660437376826877  0.8547571567163033  0.542119681741113  1.0000
  C   C1        1.0  0.4874490761856337  0.574261109856728  0.6482379471747918  1.0000
  C   C2        1.0  0.5000746854780259  0.5749212009618175  0.4250623678556593  1.0000
  C   C3        1.0  0.5127168195840143  0.3516340445503801  0.425534172817443  1.0000
  C   C4        1.0  0.48640716844469273  0.7814493876265516  0.06550001184798046  1.0000
  C   C5        1.0  0.49992257274240615  0.8823393534450685  0.11757412037051286  1.0000
  C   C6        1.0  0.5134430820030147  0.9344181877318504  0.2184556264709697  1.0000
  C   C7        1.0  0.5193862828898189  0.8829143388283354  0.2672785147752135  1.0000
  C   C8        1.0  0.49992391720343227  0.7821705467982341  0.21776031407254948  1.0000
  C   C9        1.0  0.48045222251804626  0.7326464321194096  0.11701818777738286  1.0000
  C   C10       1.0  0.6523222811184866  0.19172585512074386  0.27787707484853996  1.0000
  C   C11       1.0  0.6538840274196717  0.09107777440917887  0.2294026896845338  1.0000
  C   C12       1.0  0.5201856595009958  0.0409956545865242  0.27194545165936995  1.0000
  C   C13       1.0  0.38622184584002645  0.09504390042425107  0.3664847541761844  1.0000
  C   C14       1.0  0.3844801562169238  0.19579849621035084  0.4184396888341197  1.0000
  C   C15       1.0  0.5174623596623535  0.24358383391692934  0.37290398504979544  1.0000
  C   C16       1.0  0.346145556494406  0.7704559673103685  0.9087962941613055  1.0000
  C   C17       1.0  0.3477328851467973  0.7219831198240598  0.8081441726608674  1.0000
  C   C18       1.0  0.4823985183152858  0.6269496449063395  0.7562870659409312  1.0000
  C   C19       1.0  0.6152271656624961  0.5814489085518983  0.804100194283748  1.0000
  C   C20       1.0  0.6136865163040852  0.6334044393368785  0.9048610353140774  1.0000
  C   C21       1.0  0.47985348363416597  0.7279494899766731  0.9589056969474256  1.0000
  C   C22       1.0  0.6306492321269772  0.6345805046366236  0.22769774475212054  1.0000
  C   C23       1.0  0.6358503802342171  0.583108495382838  0.27604667009293127  1.0000
  C   C24       1.0  0.4999992279593215  0.6280729527223767  0.37187059968770336  1.0000
  C   C25       1.0  0.3641335231295102  0.7238949475770582  0.4168544093275771  1.0000
  C   C26       1.0  0.3692695936101913  0.7722357270055866  0.36537795794476585  1.0000
  C   C27       1.0  0.500010751202872  0.7293559451637677  0.27061846219298497  1.0000
  C   C28       1.0  0.2350136845178667  0.24938438020409132  0.5197638370639766  1.0000
  C   C29       1.0  0.7963875498424855  0.24144839453150974  0.2278442655393249  1.0000
  C   C30       1.0  0.20371693801409657  0.7719350999092425  0.7583651672240065  1.0000
  C   C31       1.0  0.7647264887052501  0.48012347092689817  0.7505084556760195  1.0000
  C   C32       1.0  0.7777119681008459  0.4810939899867392  0.2218100230404687  1.0000
  C   C33       1.0  0.22237189810104505  0.7781265266143294  0.5188941907611735  1.0000
  O   O1        1.0  0.27757554482349184  0.39421808714982376  0.4072006243639734  1.0000
  O   O2        1.0  0.2569294960611472  0.5148764725391358  0.6052936342556806  1.0000
  O   O3        1.0  0.2596357880368104  0.5922743598977007  0.48611571684349303  1.0000
  O   O4        1.0  0.7432575481627879  0.3945379505047413  0.48492071380180585  1.0000
  O   O5        1.0  0.7404140340717973  0.5138502397637552  0.4076663521539317  1.0000
  O   O6        1.0  0.7226613326849859  0.5926294052381066  0.6056800490783657  1.0000
