data_image0
_chemical_formula_structural       Ni4H56C56N8O24
_chemical_formula_sum              "Ni4 H56 C56 N8 O24"
_cell_length_a       7.942604462888908
_cell_length_b       11.841778384974315
_cell_length_c       15.435983362624553
_cell_angle_alpha    90.23012033192026
_cell_angle_beta     89.72480968219625
_cell_angle_gamma    89.92116825591235

_space_group_name_H-M_alt    "P 1"
_space_group_IT_number       1

loop_
  _space_group_symop_operation_xyz
  'x, y, z'

loop_
  _atom_site_type_symbol
  _atom_site_label
  _atom_site_symmetry_multiplicity
  _atom_site_fract_x
  _atom_site_fract_y
  _atom_site_fract_z
  _atom_site_occupancy
  Ni  Ni1       1.0  0.9999984082490203  0.5000023823908251  7.514222346994614e-07  1.0000
  Ni  Ni2       1.0  0.49999662420045626  0.5000008368879918  0.4999995912199537  1.0000
  Ni  Ni3       1.0  0.49999117500306783  1.8460997349996278e-07  1.6101579589996355e-06  1.0000
  Ni  Ni4       1.0  1.990559610500964e-06  0.9999986281149089  0.4999984909825272  1.0000
  H   H1        1.0  0.8357063497075715  0.6004693680359381  0.1561283061547556  1.0000
  H   H2        1.0  0.6632723405544498  0.39979416176057464  0.6550377840986954  1.0000
  H   H3        1.0  0.3362286850917044  0.8995463066212326  0.8442972165905971  1.0000
  H   H4        1.0  0.16316009880360133  0.10141616622461669  0.3477217514300791  1.0000
  H   H5        1.0  0.16429945767592363  0.39954497723810795  0.8438747673334036  1.0000
  H   H6        1.0  0.3367234416815563  0.600198218215219  0.34496008533273675  1.0000
  H   H7        1.0  0.6637469367131886  0.1004494674680743  0.1557032740947406  1.0000
  H   H8        1.0  0.8368382128290294  0.8985829581072479  0.6522722381837341  1.0000
  H   H9        1.0  0.023458342433805502  0.2831116158187683  0.096580962371803  1.0000
  H   H10       1.0  0.4771305320965241  0.7173502433114789  0.5977513587392806  1.0000
  H   H11       1.0  0.5234327213878204  0.21667592582313228  0.9030082178654268  1.0000
  H   H12       1.0  0.9754519374376899  0.7841742870252518  0.4056929970684706  1.0000
  H   H13       1.0  0.9765374109394644  0.7168968159919586  0.9034195230225636  1.0000
  H   H14       1.0  0.5228626993148923  0.2826472200660817  0.402252352158591  1.0000
  H   H15       1.0  0.4765655658205362  0.7833232121874049  0.0969909545204644  1.0000
  H   H16       1.0  0.024557662853858603  0.2158248559678242  0.5943100485062305  1.0000
  H   H17       1.0  0.7599008321661105  0.5414134018725179  0.3075582453764341  1.0000
  H   H18       1.0  0.7392860612811206  0.45902261907694003  0.806344205328216  1.0000
  H   H19       1.0  0.2604354840269495  0.9585805500417662  0.6932719387161299  1.0000
  H   H20       1.0  0.23876983664211343  0.0419345285204358  0.1961644037679591  1.0000
  H   H21       1.0  0.24012006761105917  0.45860178938887225  0.6924480501174558  1.0000
  H   H22       1.0  0.26071980071809264  0.5409714400260698  0.19365171080383456  1.0000
  H   H23       1.0  0.7395590352350754  0.04141267670358669  0.3067265813986921  1.0000
  H   H24       1.0  0.7612209202989321  0.9580620676185491  0.8038302390719638  1.0000
  H   H25       1.0  0.9545465482170529  0.2103334266425776  0.24475776082903175  1.0000
  H   H26       1.0  0.5459106026171199  0.7902786046713358  0.7458957009090456  1.0000
  H   H27       1.0  0.45453560329503523  0.2896004643314001  0.7552874261433189  1.0000
  H   H28       1.0  0.044601717902757805  0.7112217186641132  0.2573181353101504  1.0000
  H   H29       1.0  0.0454605169107012  0.789679230808126  0.7552459563752336  1.0000
  H   H30       1.0  0.4540889336571114  0.2097095665668718  0.2541079880433017  1.0000
  H   H31       1.0  0.5454815905579267  0.7103902133111719  0.24470911877090631  1.0000
  H   H32       1.0  0.9554028466627429  0.28877405049007615  0.7426855591104271  1.0000
  H   H33       1.0  0.821392534103538  0.3417779723851098  0.3525015669415269  1.0000
  H   H34       1.0  0.6785710496389328  0.6586549444825777  0.8525860204369169  1.0000
  H   H35       1.0  0.32153079927447703  0.15809112041752377  0.6480315538759174  1.0000
  H   H36       1.0  0.17751592064300337  0.8426666616532827  0.1499206070992614  1.0000
  H   H37       1.0  0.17862585151382157  0.6582363738655417  0.6475040824990614  1.0000
  H   H38       1.0  0.32143733177817785  0.34133489279045637  0.1474105339873191  1.0000
  H   H39       1.0  0.6784901773943588  0.8418970203360349  0.3519643346811563  1.0000
  H   H40       1.0  0.8224773221325636  0.1573257314638852  0.8500818003444622  1.0000
  H   H41       1.0  0.006904973590010901  0.7149294374542022  0.0453092358082827  1.0000
  H   H42       1.0  0.492946919356072  0.2852081691732167  0.5454688347611096  1.0000
  H   H43       1.0  0.5076953566922812  0.7850612586490017  0.9549484980160089  1.0000
  H   H44       1.0  0.9900327870354673  0.21796472152207258  0.4523373563572335  1.0000
  H   H45       1.0  0.9930920322977955  0.285076465479392  0.9546931877016861  1.0000
  H   H46       1.0  0.5070526644380068  0.714784195365084  0.454523847268149  1.0000
  H   H47       1.0  0.49230041460356944  0.2149387232976991  0.0450500309036173  1.0000
  H   H48       1.0  0.009978067042588601  0.7820394877254485  0.5476656954352281  1.0000
  H   H49       1.0  0.19334258008087352  0.671069873891028  0.026954511677772106  1.0000
  H   H50       1.0  0.30677896532458965  0.32912892882778516  0.5268737590480015  1.0000
  H   H51       1.0  0.6937801403053571  0.8289674687854216  0.9730548705128045  1.0000
  H   H52       1.0  0.8041893356681556  0.1745128556259843  0.4711070929381337  1.0000
  H   H53       1.0  0.8066569630906885  0.32893517313757314  0.9730440203728891  1.0000
  H   H54       1.0  0.6932155307851389  0.670871906727811  0.4731280119410641  1.0000
  H   H55       1.0  0.30621435275133285  0.1710333684800034  0.026947548322766607  1.0000
  H   H56       1.0  0.19581527381652114  0.825483732354151  0.5288868850783075  1.0000
  C   C1        1.0  0.8599956482153532  0.5149302454516587  0.1788623045693285  1.0000
  C   C2        1.0  0.6393469143646016  0.4854264386268241  0.6782599672747126  1.0000
  C   C3        1.0  0.3604152491290976  0.9850577212755952  0.8214778740545512  1.0000
  C   C4        1.0  0.13906609461262326  0.0159054031468884  0.3246913903903561  1.0000
  C   C5        1.0  0.1400101617971856  0.4850815664020303  0.8211407650382654  1.0000
  C   C6        1.0  0.3606476232156339  0.5145667778595282  0.3217346657610491  1.0000
  C   C7        1.0  0.6395754672461537  0.014939741564674598  0.1785251920835336  1.0000
  C   C8        1.0  0.860929672329846  0.9840928932725747  0.6753084316352514  1.0000
  C   C9        1.0  0.9639627287536712  0.33715650046539025  0.14513277502931035  1.0000
  C   C10       1.0  0.5361988813711137  0.6632735390972897  0.6458026642298762  1.0000
  C   C11       1.0  0.4641041354852363  0.16268115100439223  0.8547302855124388  1.0000
  C   C12       1.0  0.03503342304972531  0.8380747102085736  0.35752655262425054  1.0000
  C   C13       1.0  0.036034274929086514  0.6628544675990895  0.8548690083952764  1.0000
  C   C14       1.0  0.4637931027838464  0.3367213863166755  0.35419910079126293  1.0000
  C   C15       1.0  0.535891630156897  0.8373154581779972  0.1452701817726378  1.0000
  C   C16       1.0  0.9649724092671194  0.1619244294138227  0.6424745540410086  1.0000
  C   C17       1.0  0.8187088651819892  0.481684630687866  0.2626853932635527  1.0000
  C   C18       1.0  0.6808174497099843  0.5187862835907494  0.7620350194985691  1.0000
  C   C19       1.0  0.3190182477806686  0.018339722810623002  0.7378510919009571  1.0000
  C   C20       1.0  0.18017879735847236  0.9822854636255871  0.2407314735490544  1.0000
  C   C21       1.0  0.181304488186349  0.5183288717245915  0.7373196132104454  1.0000
  C   C22       1.0  0.3191884096601783  0.48121030893262423  0.23796090051404667  1.0000
  C   C23       1.0  0.6809825466334518  0.9816552002092679  0.2621513101631622  1.0000
  C   C24       1.0  0.8198169831248379  0.017708605297109208  0.7592663984694212  1.0000
  C   C25       1.0  0.9257449742110496  0.2973856088538652  0.2275499085629065  1.0000
  C   C26       1.0  0.5744848630230807  0.7031472777141516  0.728247966755504  1.0000
  C   C27       1.0  0.42582431891610634  0.2025428243392184  0.7725093673571666  1.0000
  C   C28       1.0  0.073406272604764  0.7983143012881726  0.2748184220113928  1.0000
  C   C29       1.0  0.0742595750041986  0.7026278925330087  0.7724531651750867  1.0000
  C   C30       1.0  0.4255134351254384  0.2968442583254713  0.2717505461421936  1.0000
  C   C31       1.0  0.5741815108000666  0.7974529408090304  0.22749302982703065  1.0000
  C   C32       1.0  0.926598289784053  0.2016806251023979  0.7251859189621754  1.0000
  C   C33       1.0  0.8523224030675678  0.3706902871059868  0.28755352686726354  1.0000
  C   C34       1.0  0.6475845458539028  0.6298754023894944  0.7875834288876008  1.0000
  C   C35       1.0  0.35249428986087855  0.12932216533926777  0.7128690040146068  1.0000
  C   C36       1.0  0.14659719495380594  0.8713689816239168  0.21513367173162123  1.0000
  C   C37       1.0  0.14769220323929497  0.6293232181398666  0.7124527737563967  1.0000
  C   C38       1.0  0.35242004751761163  0.37011613071876326  0.212415076293297  1.0000
  C   C39       1.0  0.6475128189707889  0.8706719000168021  0.2871295019601235  1.0000
  C   C40       1.0  0.8534035977076186  0.12862763034288346  0.7848687329195416  1.0000
  C   C41       1.0  0.620888141305102  0.534442043652291  0.9936717665848677  1.0000
  C   C42       1.0  0.8793532409758953  0.46535703905759357  0.49340378100808385  1.0000
  C   C43       1.0  0.1207853814186848  0.9655585633138275  0.006931015722472002  1.0000
  C   C44       1.0  0.37962742195080074  0.0351992477297074  0.5065878437048426  1.0000
  C   C45       1.0  0.37911139968976937  0.46556216061268435  0.006327412018784201  1.0000
  C   C46       1.0  0.12064375094708174  0.5346505596622464  0.506601236474971  1.0000
  C   C47       1.0  0.8792065730539136  0.03444144261952431  0.9930759398318756  1.0000
  C   C48       1.0  0.620373472337107  0.9647964633391268  0.4933931807179448  1.0000
  C   C49       1.0  0.4476226038693697  0.5796266494966105  0.9903453675393196  1.0000
  C   C50       1.0  0.05288206880623391  0.4203835497444288  0.4905051256426348  1.0000
  C   C51       1.0  0.9475335439483532  0.9204538454497141  0.009756901015983001  1.0000
  C   C52       1.0  0.5531558730852951  0.0792832053435717  0.5104787664383679  1.0000
  C   C53       1.0  0.5523756859396727  0.42037586298806656  0.0096525143276338  1.0000
  C   C54       1.0  0.9471136688778686  0.5796223589049417  0.509499242950227  1.0000
  C   C55       1.0  0.052455894187737315  0.07954447270928001  0.9902500550380469  1.0000
  C   C56       1.0  0.4468425131488658  0.9207116572948595  0.48950031623809315  1.0000
  N   N1        1.0  0.9323001869655131  0.4441946209658881  0.12097141186967521  1.0000
  N   N2        1.0  0.5673606119509812  0.55613272406152  0.6210065555317925  1.0000
  N   N3        1.0  0.43263785659034687  0.0556675440701113  0.8790389924737667  1.0000
  N   N4        1.0  0.06661726103089902  0.9452167908428636  0.38227688956375533  1.0000
  N   N5        1.0  0.06770058469194142  0.5558163504692786  0.8790323104643534  1.0000
  N   N6        1.0  0.4326338907171704  0.44386473189042863  0.37899456243667373  1.0000
  N   N7        1.0  0.5673516029169933  0.9443307621200535  0.1209634286546901  1.0000
  N   N8        1.0  0.9333810296544842  0.05478487716836611  0.6177209910096835  1.0000
  O   O1        1.0  0.7640404376068946  0.5791146703355706  0.9855393163203559  1.0000
  O   O2        1.0  0.7363329994062796  0.42069138984053484  0.4849915383325083  1.0000
  O   O3        1.0  0.2639672826557416  0.921109188330682  0.01575539250193  1.0000
  O   O4        1.0  0.23766127172930143  0.08152964614445321  0.5150965239869977  1.0000
  O   O5        1.0  0.23596034411437472  0.42088954360213643  0.0144637478190006  1.0000
  O   O6        1.0  0.26366275659603394  0.5793145085498352  0.5150089431812859  1.0000
  O   O7        1.0  0.7360209051425032  0.07889250146907051  0.9842489788834998  1.0000
  O   O8        1.0  0.7623408702674157  0.9184652267039863  0.4848870889849621  1.0000
  O   O9        1.0  0.08619220387321751  0.6510525911707247  0.05781070979361401  1.0000
  O   O10       1.0  0.41357743058771496  0.34944634416098813  0.5575710400623777  1.0000
  O   O11       1.0  0.5869895300323691  0.8489091604703417  0.9423064713081574  1.0000
  O   O12       1.0  0.9090766122617496  0.155918284767445  0.4378688266734372  1.0000
  O   O13       1.0  0.9138060649885773  0.34895246499331023  0.942191063032965  1.0000
  O   O14       1.0  0.5864246442422499  0.6505485663037903  0.4424268255328131  1.0000
  O   O15       1.0  0.41300369612095994  0.15109336974793314  0.0576972473508377  1.0000
  O   O16       1.0  0.09093928848251662  0.8440816963480485  0.562132916784961  1.0000
  O   O17       1.0  0.38375049454723614  0.6763363532422416  0.9798602405332206  1.0000
  O   O18       1.0  0.11748662028325901  0.3237301370631869  0.48019442039671395  1.0000
  O   O19       1.0  0.8835132875343917  0.8238913986038625  0.020352938551759802  1.0000
  O   O20       1.0  0.6170277135867083  0.17565682601689764  0.5220795689101935  1.0000
  O   O21       1.0  0.6162440019864804  0.3236670140238758  0.0201408864898909  1.0000
  O   O22       1.0  0.8825103585512297  0.6762783129694372  0.5198131897659054  1.0000
  O   O23       1.0  0.11647488369833782  0.1761086125079814  0.9796553173256941  1.0000
  O   O24       1.0  0.38296565433491037  0.8243414048915981  0.4778949901882258  1.0000
