data_image0
_chemical_formula_structural       Zn4H44C56N4O20
_chemical_formula_sum              "Zn4 H44 C56 N4 O20"
_cell_length_a       11.767676489007947
_cell_length_b       11.767659906854055
_cell_length_c       14.119421760547661
_cell_angle_alpha    69.28923505719371
_cell_angle_beta     69.28919483615677
_cell_angle_gamma    69.90690540579618

_space_group_name_H-M_alt    "P 1"
_space_group_IT_number       1

loop_
  _space_group_symop_operation_xyz
  'x, y, z'

loop_
  _atom_site_type_symbol
  _atom_site_label
  _atom_site_symmetry_multiplicity
  _atom_site_fract_x
  _atom_site_fract_y
  _atom_site_fract_z
  _atom_site_occupancy
  Zn  Zn1       1.0  0.002975744841606225  0.6317901029753801  0.9600757749662492  1.0000
  Zn  Zn2       1.0  0.6317905489112405  0.0029750945078035  0.46007561665795993  1.0000
  Zn  Zn3       1.0  0.9970257492180323  0.3682090100527163  0.039923998252184796  1.0000
  Zn  Zn4       1.0  0.368208222975305  0.9970240053978117  0.5399249587999435  1.0000
  H   H1        1.0  0.20666098783868841  0.7625290042977114  0.871356447511964  1.0000
  H   H2        1.0  0.7625248251298371  0.2066621645158904  0.3713571451019034  1.0000
  H   H3        1.0  0.7933408885520093  0.23747574536036356  0.1286422686442065  1.0000
  H   H4        1.0  0.2374734203397394  0.7933425662892972  0.6286433497489341  1.0000
  H   H5        1.0  0.23009692837140233  0.9825798077966043  0.8000444858499519  1.0000
  H   H6        1.0  0.9825755239171483  0.23009914775882118  0.3000455215958483  1.0000
  H   H7        1.0  0.7699031332372286  0.0174249331131477  0.19995476513253138  1.0000
  H   H8        1.0  0.017422965496045578  0.7699046502650332  0.6999523422998095  1.0000
  H   H9        1.0  0.8244377684586933  0.10661426558013429  0.9009036697961222  1.0000
  H   H10       1.0  0.10661314180301658  0.8244407312137201  0.4009042709844195  1.0000
  H   H11       1.0  0.17556234524953837  0.8933867235551746  0.09909383328334088  1.0000
  H   H12       1.0  0.893384204417451  0.1755640033547863  0.599092237027307  1.0000
  H   H13       1.0  0.8193100014179748  0.8818893838363737  0.9646536239193464  1.0000
  H   H14       1.0  0.8818891956467916  0.8193109008940598  0.46465205410176935  1.0000
  H   H15       1.0  0.18069192028738  0.11811160726603018  0.0353468895440301  1.0000
  H   H16       1.0  0.11810971869814316  0.1806947724916057  0.5353479681229061  1.0000
  H   H17       1.0  0.5520937403218154  0.5175896694607475  0.6082723687006251  1.0000
  H   H18       1.0  0.5175901767764799  0.5520925035186864  0.10827126834954011  1.0000
  H   H19       1.0  0.44790913680320427  0.48240757017263286  0.39172825657270494  1.0000
  H   H20       1.0  0.4824090707844133  0.4479047186180479  0.8917304265764018  1.0000
  H   H21       1.0  0.2365463079450549  0.2665739968319939  0.7313925818293754  1.0000
  H   H22       1.0  0.26657584677483465  0.2365432220105816  0.23139443184102504  1.0000
  H   H23       1.0  0.7634561388202811  0.7334213620145889  0.2686087212831085  1.0000
  H   H24       1.0  0.7334243108910669  0.7634540072128146  0.7686055775876781  1.0000
  H   H25       1.0  0.3408186181056294  0.5832599002713934  0.7283367211447  1.0000
  H   H26       1.0  0.5832604039698451  0.3408182230403014  0.22833665768194325  1.0000
  H   H27       1.0  0.6591837860590175  0.41673921984335743  0.27166136657649537  1.0000
  H   H28       1.0  0.4167418083507782  0.6591780780813465  0.7716623130914115  1.0000
  H   H29       1.0  0.5974976868462177  0.3307770628019141  0.5423130943309289  1.0000
  H   H30       1.0  0.3307758895060429  0.5974946424022107  0.04231454572960305  1.0000
  H   H31       1.0  0.40250586051115533  0.6692211207681852  0.4576863492741978  1.0000
  H   H32       1.0  0.6692228783095331  0.4025044534346661  0.9576881568544238  1.0000
  H   H33       1.0  0.8773606989358594  0.2807841340304478  0.7610949879043362  1.0000
  H   H34       1.0  0.28078141807259965  0.8773643474010201  0.26109437988694156  1.0000
  H   H35       1.0  0.12263735876066303  0.719217781850368  0.23890426287252356  1.0000
  H   H36       1.0  0.7192161653065483  0.12263944760492511  0.7389030423798317  1.0000
  H   H37       1.0  0.9727669321969826  0.3675304139262678  0.7678431064467617  1.0000
  H   H38       1.0  0.3675273979555697  0.9727710733494348  0.26784315434964173  1.0000
  H   H39       1.0  0.027229980949819252  0.6324724371429511  0.2321554974882076  1.0000
  H   H40       1.0  0.632471090100637  0.027232723318178397  0.7321554185880572  1.0000
  H   H41       1.0  0.883530726975543  0.2844044086855035  0.8862185502737107  1.0000
  H   H42       1.0  0.2844029889976412  0.8835330203747701  0.3862186689780742  1.0000
  H   H43       1.0  0.11646799959633812  0.7155984497757898  0.113780227876994  1.0000
  H   H44       1.0  0.7155945930245267  0.1164707732749264  0.61377946233074  1.0000
  C   C1        1.0  0.124871931004904  0.8420755712075658  0.8760858974374344  1.0000
  C   C2        1.0  0.8420725251413755  0.12487333297698196  0.37608611868065384  1.0000
  C   C3        1.0  0.8751295163830902  0.1579272990199669  0.12391278751584878  1.0000
  C   C4        1.0  0.15792500613817848  0.8751342138033991  0.623913051489133  1.0000
  C   C5        1.0  0.13782614977149882  0.9636115976800922  0.8377289509549543  1.0000
  C   C6        1.0  0.9636090157755672  0.1378293968317124  0.3377284424599765  1.0000
  C   C7        1.0  0.8621709978200158  0.036390311114068714  0.162271985319144  1.0000
  C   C8        1.0  0.036387894657259764  0.8621734515250097  0.662271579559075  1.0000
  C   C9        1.0  0.02894731384601807  0.06280334637353491  0.8439223221089307  1.0000
  C   C10       1.0  0.06280159232400709  0.0289490452941905  0.3439223979036186  1.0000
  C   C11       1.0  0.9710525559185896  0.9371985755431068  0.15607781192570502  1.0000
  C   C12       1.0  0.937195986984186  0.9710547456430092  0.6560771514892778  1.0000
  C   C13       1.0  0.9116628916109304  0.0339287775487378  0.8920123075940865  1.0000
  C   C14       1.0  0.033928708154455506  0.911665004870805  0.3920122176958146  1.0000
  C   C15       1.0  0.08833698358162681  0.9660731497928978  0.10798499027237801  1.0000
  C   C16       1.0  0.9660711190094627  0.0883406783140117  0.607984700947533  1.0000
  C   C17       1.0  0.9082530666110953  0.9086240824385854  0.9281504181565764  1.0000
  C   C18       1.0  0.9086236422422969  0.9082542283835477  0.42814958362006916  1.0000
  C   C19       1.0  0.09174795041720069  0.09137690700214308  0.07184894463586029  1.0000
  C   C20       1.0  0.0913764207233214  0.0917505138824524  0.5718489583203663  1.0000
  C   C21       1.0  0.4829838689898977  0.4630486989866611  0.6343953119585065  1.0000
  C   C22       1.0  0.46304815142131145  0.48298189110108325  0.13439614780358516  1.0000
  C   C23       1.0  0.5170187709764491  0.5369494802092802  0.36560439905978376  1.0000
  C   C24       1.0  0.5369524819189448  0.5170134603534252  0.8656049810931563  1.0000
  C   C25       1.0  0.16405366683474643  0.4612375394129984  0.8252748543285406  1.0000
  C   C26       1.0  0.4612395084521453  0.16405012946350434  0.3252745480120821  1.0000
  C   C27       1.0  0.8359508291573617  0.5387568859068494  0.17472824629676606  1.0000
  C   C28       1.0  0.5387563467032948  0.835946135614016  0.6747291308215183  1.0000
  C   C29       1.0  0.27891322866736346  0.42718493128170104  0.7401805014233034  1.0000
  C   C30       1.0  0.42718595093630535  0.2789115831606424  0.24018069887119253  1.0000
  C   C31       1.0  0.7210900788173475  0.5728141891384694  0.25981944601086576  1.0000
  C   C32       1.0  0.5728169289026894  0.7210856591852348  0.7598185083180481  1.0000
  C   C33       1.0  0.4425509010152594  0.18803193156976758  0.5800647663361431  1.0000
  C   C34       1.0  0.18803292788685863  0.44254598354216773  0.08006754134631681  1.0000
  C   C35       1.0  0.5574444798228197  0.811966212632882  0.41993708398737073  1.0000
  C   C36       1.0  0.8119673190513763  0.5574437272136237  0.9199367717388185  1.0000
  C   C37       1.0  0.4178655527198174  0.291261439774992  0.6292001786228667  1.0000
  C   C38       1.0  0.2912608377847973  0.4178628330399121  0.12920200776859056  1.0000
  C   C39       1.0  0.5821343677873967  0.7087367290109582  0.3707989165507969  1.0000
  C   C40       1.0  0.7087397955554593  0.5821325184145962  0.8707991211281505  1.0000
  C   C41       1.0  0.3043843122331111  0.32285371049952255  0.7033967968960865  1.0000
  C   C42       1.0  0.3228546111629384  0.304381413522286  0.20339816774993116  1.0000
  C   C43       1.0  0.6956183277332287  0.6771444686964186  0.29660291412219647  1.0000
  C   C44       1.0  0.6771464525370021  0.6956158187190198  0.7966022833076636  1.0000
  C   C45       1.0  0.36642422262691815  0.4994464120133981  0.7019364129600021  1.0000
  C   C46       1.0  0.49944664894346846  0.36642232521140267  0.20193692122408183  1.0000
  C   C47       1.0  0.6335793233734747  0.5005517702004597  0.2980637396871727  1.0000
  C   C48       1.0  0.5005544161134665  0.6335749083861444  0.7980628207914648  1.0000
  C   C49       1.0  0.5087429781529592  0.35865748319341867  0.5982083546856458  1.0000
  C   C50       1.0  0.35865703001121557  0.508741373047016  0.09820769989738665  1.0000
  C   C51       1.0  0.49125784567432607  0.6413406858979585  0.40179260020099145  1.0000
  C   C52       1.0  0.6413433648133663  0.491254916613805  0.9017932237863632  1.0000
  C   C53       1.0  0.9369223606520477  0.2834693494012726  0.8049899409614835  1.0000
  C   C54       1.0  0.28346703684140095  0.9369276906734925  0.3049887489218576  1.0000
  C   C55       1.0  0.0630745511377596  0.716533500311698  0.19500937201552662  1.0000
  C   C56       1.0  0.716530976897445  0.06307798511924999  0.6950079955057548  1.0000
  N   N1        1.0  0.012151968821861207  0.8136936134543901  0.9198418212287791  1.0000
  N   N2        1.0  0.813690990003451  0.012152987412541403  0.4198412819753227  1.0000
  N   N3        1.0  0.9878506231158396  0.1863083215847396  0.08015751056640129  1.0000
  N   N4        1.0  0.18630677843478324  0.9878536198052785  0.5801588024495103  1.0000
  O   O1        1.0  0.1257641189293821  0.5759772414106621  0.8271646846536738  1.0000
  O   O2        1.0  0.5759786725297076  0.1257586876416426  0.3271628929073244  1.0000
  O   O3        1.0  0.8742417107424812  0.4240190650014029  0.17283959784545289  1.0000
  O   O4        1.0  0.4240194798670983  0.8742357151965547  0.6728378253577959  1.0000
  O   O5        1.0  0.11731589000849134  0.3717473622880476  0.8912184351567304  1.0000
  O   O6        1.0  0.3717474204038708  0.11731530132946229  0.3912185533724468  1.0000
  O   O7        1.0  0.8826837933400425  0.628251746060471  0.10877974576188627  1.0000
  O   O8        1.0  0.6282513528396619  0.8826837999324014  0.6087813130434085  1.0000
  O   O9        1.0  0.5535348037348271  0.15518896919552108  0.5235389596862561  1.0000
  O   O10       1.0  0.15518735028118152  0.553529614575929  0.0235426508871441  1.0000
  O   O11       1.0  0.44646559651770434  0.844807325890294  0.47645912782931527  1.0000
  O   O12       1.0  0.8448080758715619  0.44646477107104926  0.9764609967435619  1.0000
  O   O13       1.0  0.35122920734143986  0.14265337577780463  0.5967467111469631  1.0000
  O   O14       1.0  0.14265376336206256  0.351223302835578  0.09674993198656519  1.0000
  O   O15       1.0  0.648769563188111  0.8573457227715691  0.4032545733529744  1.0000
  O   O16       1.0  0.857348491559243  0.6487692370178949  0.9032522541780708  1.0000
  O   O17       1.0  0.04604694534334897  0.17951700277815522  0.8018062390746508  1.0000
  O   O18       1.0  0.1795142933329359  0.046050743974966196  0.30180664891548764  1.0000
  O   O19       1.0  0.9539513055541846  0.820487733452019  0.19819141960800815  1.0000
  O   O20       1.0  0.8204857723466572  0.9539540010035311  0.6981904749408655  1.0000
