data_image0
_chemical_formula_structural       Ni2H24C32N4O10
_chemical_formula_sum              "Ni2 H24 C32 N4 O10"
_cell_length_a       7.863806178845182
_cell_length_b       9.683384425339465
_cell_length_c       11.248124299107822
_cell_angle_alpha    69.3165318327744
_cell_angle_beta     70.20150425978075
_cell_angle_gamma    91.11498354582123

_space_group_name_H-M_alt    "P 1"
_space_group_IT_number       1

loop_
  _space_group_symop_operation_xyz
  'x, y, z'

loop_
  _atom_site_type_symbol
  _atom_site_label
  _atom_site_symmetry_multiplicity
  _atom_site_fract_x
  _atom_site_fract_y
  _atom_site_fract_z
  _atom_site_occupancy
  Ni  Ni1       1.0  0.8376265224507052  0.24993607606649693  0.20719483873267547  1.0000
  Ni  Ni2       1.0  0.1623694452404721  0.7500610088025542  0.7928051406217591  1.0000
  H   H1        1.0  0.9785437149983521  0.42945327147823786  0.26490642730468755  1.0000
  H   H2        1.0  0.021450297721450795  0.5705404672733394  0.7350977149900187  1.0000
  H   H3        1.0  0.11379022174388351  0.446189106457446  0.1121135090199417  1.0000
  H   H4        1.0  0.8862007313012797  0.553810168642606  0.8878878673686825  1.0000
  H   H5        1.0  0.6559258748396034  0.04885792925194471  0.51858999756665  1.0000
  H   H6        1.0  0.3440710461496296  0.95113694658739  0.48141221723611943  1.0000
  H   H7        1.0  0.7060982326538507  0.8026603462471228  0.6664094830182137  1.0000
  H   H8        1.0  0.2939085678847277  0.1973368834327545  0.33359322660170676  1.0000
  H   H9        1.0  0.9441370910647676  0.6686747995856095  0.5580617209914749  1.0000
  H   H10       1.0  0.05587031047780751  0.33132576318257634  0.441937149595283  1.0000
  H   H11       1.0  0.1855117976027145  0.6661512924483689  0.34200666291437887  1.0000
  H   H12       1.0  0.8144917425571023  0.3338503490246936  0.6579927866363916  1.0000
  H   H13       1.0  0.3571074442598317  0.7925169798472497  0.09148440111832193  1.0000
  H   H14       1.0  0.6428958953805974  0.20748354383345455  0.9085154411897703  1.0000
  H   H15       1.0  0.40567395409931345  0.0088088302628577  0.8680549561341947  1.0000
  H   H16       1.0  0.5943311407320022  0.9911939487946527  0.1319446636725273  1.0000
  H   H17       1.0  0.31701287474457035  0.2546571743274698  0.7496355648424639  1.0000
  H   H18       1.0  0.6829922200867458  0.7453456047300407  0.2503640549642581  1.0000
  H   H19       1.0  0.07147075173791961  0.3553751452034959  0.8863787419869806  1.0000
  H   H20       1.0  0.9285283252962557  0.6446242148344439  0.11362157787937117  1.0000
  H   H21       1.0  0.3828314502461795  0.35107189543691664  0.0341998029264303  1.0000
  H   H22       1.0  0.6171521325122598  0.6489240017177806  0.965809692792078  1.0000
  H   H23       1.0  0.3757215533626024  0.3742691667221934  0.5007353870642743  1.0000
  H   H24       1.0  0.6242810822438898  0.6257424614833269  0.4992549670420272  1.0000
  C   C1        1.0  0.7570958147027085  0.9870486708727526  0.4754608053649605  1.0000
  C   C2        1.0  0.24290576993156074  0.012949604194069804  0.5245401463648918  1.0000
  C   C3        1.0  0.7871230115735129  0.8492115163446313  0.5573039270926969  1.0000
  C   C4        1.0  0.21288283566701693  0.15078792236495533  0.4426965470788956  1.0000
  C   C5        1.0  0.9173330898871513  0.7753876670226206  0.4973448328810546  1.0000
  C   C6        1.0  0.08267160409010903  0.22461288321308365  0.5026564593607148  1.0000
  C   C7        1.0  0.1572354554226862  0.773590629938596  0.28342863709497823  1.0000
  C   C8        1.0  0.842767683698355  0.22640877594975006  0.7165715979704358  1.0000
  C   C9        1.0  0.25107540672510004  0.8429206722217658  0.14550068709487352  1.0000
  C   C10       1.0  0.7489281332499901  0.15708096248837222  0.8544978755354932  1.0000
  C   C11       1.0  0.30207686923223054  0.058904827801328  0.9247098470653653  1.0000
  C   C12       1.0  0.6979293788623481  0.9410968397300579  0.07528895467118688  1.0000
  C   C13       1.0  0.25214757775182767  0.192852198763255  0.8595894784911876  1.0000
  C   C14       1.0  0.7478573163753736  0.8071494557389727  0.1404096471524666  1.0000
  C   C15       1.0  0.1127401034517774  0.2506142939854357  0.9359714346329255  1.0000
  C   C16       1.0  0.8872628351498689  0.7493839941105521  0.06402919318981747  1.0000
  C   C17       1.0  0.018398943556739843  0.840039094264583  0.3551602721509255  1.0000
  C   C18       1.0  0.9816071040184513  0.15996145547444482  0.6448389223429486  1.0000
  C   C19       1.0  0.9786798721074634  0.9789603835453637  0.2808824182512592  1.0000
  C   C20       1.0  0.0213234677176928  0.0210401468982582  0.7191183109772297  1.0000
  C   C21       1.0  0.2126477613239999  0.9831560326194762  0.06763592544904645  1.0000
  C   C22       1.0  0.7873542245337719  0.0168444847949871  0.9323651276865517  1.0000
  C   C23       1.0  0.07483176684677062  0.050241458139126394  0.136186286347332  1.0000
  C   C24       1.0  0.9251702191957281  0.9497590660382685  0.8638156537086557  1.0000
  C   C25       1.0  0.6305066288367698  0.3536033213913683  0.08255691344968595  1.0000
  C   C26       1.0  0.36948236923701927  0.6463926075912027  0.9174486258792028  1.0000
  C   C27       1.0  0.49549583397824654  0.4253877825986976  0.026422052960370496  1.0000
  C   C28       1.0  0.5044873473719633  0.5746058654454418  0.9735864544320021  1.0000
  C   C29       1.0  0.6749413021239618  0.40963485360919794  0.39317048875094673  1.0000
  C   C30       1.0  0.3250688564675457  0.5903735264459016  0.6068226478662453  1.0000
  C   C31       1.0  0.5023481827290439  0.4439630546948194  0.4778091120412711  1.0000
  C   C32       1.0  0.4976544525079944  0.5560485599848591  0.5221794682242447  1.0000
  N   N1        1.0  0.8501845415763897  0.050360031894029995  0.34089231531805797  1.0000
  N   N2        1.0  0.1498172433925404  0.9496393542022332  0.6591073567340757  1.0000
  N   N3        1.0  0.025629654476887306  0.18107704654168802  0.07068918112649668  1.0000
  N   N4        1.0  0.9743709770440532  0.8189234443177683  0.9293104220754242  1.0000
  O   O1        1.0  0.053560563589577684  0.37364009386381264  0.20838149709300063  1.0000
  O   O2        1.0  0.9464375101087442  0.6263536501606312  0.7916172388784019  1.0000
  O   O3        1.0  0.783126373565146  0.431519128528123  0.05594654277478381  1.0000
  O   O4        1.0  0.21685801164030494  0.5684812533218633  0.9440631557552166  1.0000
  O   O5        1.0  0.5933783975065554  0.21559914998415053  0.15998921943138802  1.0000
  O   O6        1.0  0.4066179213703265  0.784392352189336  0.8400115128821708  1.0000
  O   O7        1.0  0.6513867846030549  0.30212390840026876  0.3558474329886464  1.0000
  O   O8        1.0  0.34860762823190333  0.6978720321214171  0.6441514891894329  1.0000
  O   O9        1.0  0.8277304120209977  0.48602796177427615  0.36302097467001454  1.0000
  O   O10       1.0  0.1722680629008266  0.5139680245978155  0.6369778627071269  1.0000
