data_image0
_chemical_formula_structural       Tl4H32C32N4O8
_chemical_formula_sum              "Tl4 H32 C32 N4 O8"
_cell_length_a       7.897945845703087
_cell_length_b       10.212474848188956
_cell_length_c       11.448829912973368
_cell_angle_alpha    100.80436454397594
_cell_angle_beta     110.05254799400056
_cell_angle_gamma    90.07061756574095

_space_group_name_H-M_alt    "P 1"
_space_group_IT_number       1

loop_
  _space_group_symop_operation_xyz
  'x, y, z'

loop_
  _atom_site_type_symbol
  _atom_site_label
  _atom_site_symmetry_multiplicity
  _atom_site_fract_x
  _atom_site_fract_y
  _atom_site_fract_z
  _atom_site_occupancy
  Tl  Tl1       1.0  0.24530639530286183  0.9405064427730495  0.9693509433253598  1.0000
  Tl  Tl2       1.0  0.7245388904457288  0.44073558763033555  0.9701452132074239  1.0000
  Tl  Tl3       1.0  0.7547023739635533  0.05949559608818327  0.03065166239842647  1.0000
  Tl  Tl4       1.0  0.27546438021817476  0.5592654170734477  0.029854197951045994  1.0000
  H   H1        1.0  0.405999606294536  0.24890367856784928  0.5374091824031524  1.0000
  H   H2        1.0  0.13045618290720282  0.7489246624670615  0.5368115830091398  1.0000
  H   H3        1.0  0.5939864473852341  0.7511003215718546  0.4625910555414167  1.0000
  H   H4        1.0  0.8695302598451633  0.2510692809023213  0.46318103108596637  1.0000
  H   H5        1.0  0.6414326305000344  0.24144351356692076  0.6050526738333986  1.0000
  H   H6        1.0  0.9628318112173061  0.7412585830046866  0.604932197263949  1.0000
  H   H7        1.0  0.3585631324595441  0.7585635118514278  0.3949503109731296  1.0000
  H   H8        1.0  0.03715880467193242  0.25873641948045645  0.3950659265983703  1.0000
  H   H9        1.0  0.5508973222325791  0.3119727054148028  0.4673454357395316  1.0000
  H   H10       1.0  0.9159336802147708  0.8119144873121159  0.4672046005881685  1.0000
  H   H11       1.0  0.44909772676708565  0.6880413114438538  0.5326584948701766  1.0000
  H   H12       1.0  0.08405287588731619  0.18808048424616436  0.5327908240570807  1.0000
  H   H13       1.0  0.9729234274732049  0.5310872111031983  0.7130029356224841  1.0000
  H   H14       1.0  0.7392574374119151  0.030859956195392595  0.712942346100654  1.0000
  H   H15       1.0  0.027072905772826106  0.4689117562125561  0.286992785622438  1.0000
  H   H16       1.0  0.26074196225962964  0.9691430258675952  0.28705560293067134  1.0000
  H   H17       1.0  0.8553074745155698  0.3808442214657575  0.6221604431758792  1.0000
  H   H18       1.0  0.7661504386972737  0.8805567646850246  0.6220864356244605  1.0000
  H   H19       1.0  0.1446813661879958  0.6191607858012489  0.3778406053212394  1.0000
  H   H20       1.0  0.23383780529818668  0.11944217925038463  0.3779073943945974  1.0000
  H   H21       1.0  0.5716406792978005  0.7875883231907892  0.8555434107190081  1.0000
  H   H22       1.0  0.2829739204828954  0.2874724911249943  0.8553659250917534  1.0000
  H   H23       1.0  0.4283656725892442  0.21241759941062807  0.14444964034909452  1.0000
  H   H24       1.0  0.7170337690812688  0.712517565348243  0.14463539570697045  1.0000
  H   H25       1.0  0.2783865069567  0.647617293207702  0.7593293531814425  1.0000
  H   H26       1.0  0.48029486489156176  0.1473150835940942  0.7594823000920813  1.0000
  H   H27       1.0  0.7216181459182139  0.3523978464453492  0.2406857320230814  1.0000
  H   H28       1.0  0.5197057136217964  0.8526709464417268  0.24051584730730724  1.0000
  H   H29       1.0  0.2682782400609796  0.421820515165649  0.6259883109290955  1.0000
  H   H30       1.0  0.35715713374231944  0.9216108646253007  0.6258934693447173  1.0000
  H   H31       1.0  0.7317286868840965  0.5781887901712253  0.37404035265360863  1.0000
  H   H32       1.0  0.6428408840824533  0.0783770985747196  0.37409914712147707  1.0000
  C   C1        1.0  0.535685742724766  0.3035852112479205  0.5578314331099891  1.0000
  C   C2        1.0  0.021420158231386228  0.8035028937939402  0.5575538446877389  1.0000
  C   C3        1.0  0.464303022533727  0.6964188159219233  0.44217118884733964  1.0000
  C   C4        1.0  0.9785690715447687  0.19649205670274483  0.44243957995991684  1.0000
  C   C5        1.0  0.7095044534773224  0.5208832256559931  0.6895278659596402  1.0000
  C   C6        1.0  0.979305873929114  0.020703654984430404  0.6893858502560378  1.0000
  C   C7        1.0  0.2904947577636676  0.4791168642072279  0.31047918746267567  1.0000
  C   C8        1.0  0.020694579387274807  0.9792963041186553  0.31060924314159893  1.0000
  C   C9        1.0  0.5446206019110348  0.4383232991114951  0.639864014943889  1.0000
  C   C10       1.0  0.09457252605581351  0.938201527710838  0.6396257009065992  1.0000
  C   C11       1.0  0.45537077673832016  0.561679746136278  0.3601399340802018  1.0000
  C   C12       1.0  0.9054274215236403  0.061792483480815  0.36037269563782104  1.0000
  C   C13       1.0  0.5618414003768208  0.6900418301758081  0.7944718596137792  1.0000
  C   C14       1.0  0.23181395466841082  0.1899355782619736  0.794306814068868  1.0000
  C   C15       1.0  0.43816456706817775  0.3099582984077216  0.2055385234342282  1.0000
  C   C16       1.0  0.7681951661301767  0.8100554718234966  0.2056941252760184  1.0000
  C   C17       1.0  0.719076031129731  0.6470019818790931  0.7717762698464413  1.0000
  C   C18       1.0  0.05185104796888142  0.14688441673483515  0.7716084318109466  1.0000
  C   C19       1.0  0.28092336854182065  0.35300100018389463  0.2282216791848839  1.0000
  C   C20       1.0  0.9481571245894216  0.8531115587947937  0.2283869554347788  1.0000
  C   C21       1.0  0.8915325971087854  0.7334803101221825  0.837301710764848  1.0000
  C   C22       1.0  0.9447649782395188  0.23353303096364897  0.8369563003284314  1.0000
  C   C23       1.0  0.10846796197639459  0.26652066755146114  0.16269531638086224  1.0000
  C   C24       1.0  0.05525174418495032  0.7664679742339756  0.1630427556648755  1.0000
  C   C25       1.0  0.3994778414454103  0.6118364904544862  0.7423913940546356  1.0000
  C   C26       1.0  0.34219016202322905  0.11160723839245888  0.7423577259560618  1.0000
  C   C27       1.0  0.6005249044176183  0.38817263006198033  0.25762054147786273  1.0000
  C   C28       1.0  0.6578141665518303  0.8883757764769057  0.2576381962182595  1.0000
  C   C29       1.0  0.3939507531269583  0.48546130098503676  0.6666503048285577  1.0000
  C   C30       1.0  0.27207729233035854  0.9852754858038965  0.666541457857747  1.0000
  C   C31       1.0  0.6060454552863419  0.5145507114842757  0.3333527038955354  1.0000
  C   C32       1.0  0.72792098215335  0.014715456161020797  0.33344994543609374  1.0000
  N   N1        1.0  0.8530826543530735  0.47984358662390747  0.6549223740734647  1.0000
  N   N2        1.0  0.8012792675340847  0.9795335055441825  0.6549479454170495  1.0000
  N   N3        1.0  0.14690741362827  0.5201603867325774  0.3450753022757524  1.0000
  N   N4        1.0  0.1987171487379484  0.020466451487081396  0.3450470791697242  1.0000
  O   O1        1.0  0.040135824066396715  0.6878081508632405  0.8295754542090068  1.0000
  O   O2        1.0  0.788579189588056  0.18778705209224006  0.8295526205458119  1.0000
  O   O3        1.0  0.9598645917095752  0.31219087623441055  0.1704255966592001  1.0000
  O   O4        1.0  0.2114321475836292  0.8122139471368395  0.17044605143231448  1.0000
  O   O5        1.0  0.8858401803087476  0.8501993425234533  0.8984606461378919  1.0000
  O   O6        1.0  0.01135651435424731  0.3504770755881382  0.8975799230409507  1.0000
  O   O7        1.0  0.11416861170045683  0.1498027251928207  0.10154458999210901  1.0000
  O   O8        1.0  0.9886562161472127  0.6495248691614465  0.10241398347299227  1.0000
