data_image0
_chemical_formula_structural       Zn2H19C40N2O8F3
_chemical_formula_sum              "Zn2 H19 C40 N2 O8 F3"
_cell_length_a       9.705890058991692
_cell_length_b       11.057889996708365
_cell_length_c       14.386245246173983
_cell_angle_alpha    88.38675805584691
_cell_angle_beta     79.46928922962068
_cell_angle_gamma    91.08362787932329

_space_group_name_H-M_alt    "P 1"
_space_group_IT_number       1

loop_
  _space_group_symop_operation_xyz
  'x, y, z'

loop_
  _atom_site_type_symbol
  _atom_site_label
  _atom_site_symmetry_multiplicity
  _atom_site_fract_x
  _atom_site_fract_y
  _atom_site_fract_z
  _atom_site_occupancy
  Zn  Zn1       1.0  0.1307283752055  0.47318652124037197  0.5231147300786746  1.0000
  Zn  Zn2       1.0  0.8527452303842653  0.47349365089577594  0.4937407267742272  1.0000
  H   H1        1.0  0.7633332890489228  0.6952384875022302  0.10467854995210503  1.0000
  H   H2        1.0  0.38226976863554546  0.5857291124419176  0.40654085833466524  1.0000
  H   H3        1.0  0.9270520069789612  0.44053673512195246  0.1890713701612016  1.0000
  H   H4        1.0  0.20258041157756423  0.4855596015403946  0.8788623160355444  1.0000
  H   H5        1.0  0.6644088834852654  0.49829602706925863  0.7704586327520744  1.0000
  H   H6        1.0  0.014563164546956399  0.4481891765971751  0.014303783392712403  1.0000
  H   H7        1.0  0.7814997845593153  0.856021699839772  0.5109776712120537  1.0000
  H   H8        1.0  0.646504922892575  0.5820571793476857  0.3943402641457824  1.0000
  H   H9        1.0  0.9623671664689584  0.6910254088318198  0.9736626601031094  1.0000
  H   H10       1.0  0.06510865134413281  0.631210487881809  0.8091686812808876  1.0000
  H   H11       1.0  0.521563946614677  0.6413357174377196  0.1739022294411683  1.0000
  H   H12       1.0  0.2589450233040509  0.2059629361552382  0.4847256916138392  1.0000
  H   H13       1.0  0.4817196622656468  0.10247747526154428  0.4840448233545658  1.0000
  H   H14       1.0  0.48193333794682053  0.8771764704517435  0.5051178728017335  1.0000
  H   H15       1.0  0.2622528955093486  0.7582400468248665  0.5108653759529888  1.0000
  H   H16       1.0  0.7195764647711939  0.2997123292490471  0.6256900989071427  1.0000
  H   H17       1.0  0.5624260706778017  0.18228890339736376  0.7527793484337695  1.0000
  H   H18       1.0  0.30344687866608683  0.20565178713850676  0.7762544782087064  1.0000
  H   H19       1.0  0.19992330820198842  0.34191503078746893  0.6689566455608402  1.0000
  C   C1        1.0  0.9870556545040472  0.23932674399907228  0.5140946321877706  1.0000
  C   C2        1.0  0.2254168166203243  0.5029968940399314  0.026000230786777906  1.0000
  C   C3        1.0  0.3207138793759938  0.5356556309316858  0.08706276559401262  1.0000
  C   C4        1.0  0.9291289915150713  0.5152089662741303  0.6871124988669308  1.0000
  C   C5        1.0  0.0840414817759694  0.4701173879829383  0.06329278920707541  1.0000
  C   C6        1.0  0.0355627976596793  0.4654465134062277  0.1592850608601992  1.0000
  C   C7        1.0  0.26462357790322244  0.5252559516455051  0.18531126269843415  1.0000
  C   C8        1.0  0.2594193148956662  0.1080821486036569  0.49087765326959953  1.0000
  C   C9        1.0  0.38387266633296957  0.05005384412216069  0.490813910386244  1.0000
  C   C10       1.0  0.38440751583004845  0.9229753224933858  0.5011266649049376  1.0000
  C   C11       1.0  0.26201048666223414  0.8561790594420486  0.5052623034055728  1.0000
  C   C12       1.0  0.6626548897854362  0.5769528526188453  0.908054564359823  1.0000
  C   C13       1.0  0.13194190099989103  0.9122219661038571  0.5023004642095688  1.0000
  C   C14       1.0  0.129358259402288  0.042979772332415705  0.5006456869599205  1.0000
  C   C15       1.0  0.9980277038934563  0.1041746705452695  0.5082602860666513  1.0000
  C   C16       1.0  0.9917405993789432  0.7093506120552177  0.49620639633017305  1.0000
  C   C17       1.0  0.878087344946536  0.032389804365436696  0.5131780872562006  1.0000
  C   C18       1.0  0.879447879657171  0.906472099109784  0.5086849355241301  1.0000
  C   C19       1.0  0.0033889248957379076  0.8450630385204004  0.5026600672103784  1.0000
  C   C20       1.0  0.6068686897038518  0.3087887439537839  0.6356684323339652  1.0000
  C   C21       1.0  0.5183077340515893  0.24415474560468908  0.7062748047361753  1.0000
  C   C22       1.0  0.3713156964299102  0.25714855171960227  0.7194630907409449  1.0000
  C   C23       1.0  0.7526476753753428  0.6278214891607516  0.9660921593736804  1.0000
  C   C24       1.0  0.31273477724376164  0.3328403826712433  0.6606337296841005  1.0000
  C   C25       1.0  0.4007827077997064  0.3986046888927675  0.5863438053487898  1.0000
  C   C26       1.0  0.5504184830042861  0.38905817304987517  0.5749407403989438  1.0000
  C   C27       1.0  0.5767011426932245  0.5277274402899437  0.4483809443216417  1.0000
  C   C28       1.0  0.0719925072793615  0.47524840558600084  0.3270423115348323  1.0000
  C   C29       1.0  0.42995858249116037  0.5319650181731674  0.4562938528404105  1.0000
  C   C30       1.0  0.86817120828767  0.5581965918272402  0.7831281790081237  1.0000
  C   C31       1.0  0.12695790940696844  0.49008390476268454  0.22276040137683142  1.0000
  C   C32       1.0  0.8968263406457524  0.6493870492611649  0.9286913175512412  1.0000
  C   C33       1.0  0.9543376033611821  0.6156463528744851  0.8386667494640749  1.0000
  C   C34       1.0  0.514847018062575  0.5582624999986406  0.9470517724719233  1.0000
  C   C35       1.0  0.725451026464306  0.5418362045297442  0.8165837142750264  1.0000
  C   C36       1.0  0.4644561210097748  0.5711590308929857  0.04595090724068032  1.0000
  C   C37       1.0  0.5592849997323484  0.6229211783023345  0.10022447817306811  1.0000
  C   C38       1.0  0.695405829165388  0.6533941424816659  0.0613739141802583  1.0000
  C   C39       1.0  0.412217300554893  0.5298298997361287  0.8909357868525164  1.0000
  C   C40       1.0  0.2745017151373474  0.5046780179848438  0.9268585429893934  1.0000
  N   N1        1.0  0.635440921654336  0.45761935159261924  0.505725891048499  1.0000
  N   N2        1.0  0.3445973118344838  0.4697078261508025  0.5241528315279993  1.0000
  O   O1        1.0  0.0748167161553468  0.2951403922382027  0.5547048027986821  1.0000
  O   O2        1.0  0.8902958491360735  0.2897715233893051  0.4795765612368401  1.0000
  O   O3        1.0  0.06180704762668652  0.5243531130795419  0.6601953278988335  1.0000
  O   O4        1.0  0.8441068130094679  0.4720483850884492  0.6380664817569439  1.0000
  O   O5        1.0  0.10419384474248262  0.6492569445277069  0.4829380787677098  1.0000
  O   O6        1.0  0.8690444820925549  0.6624627547668496  0.5036578399747569  1.0000
  O   O7        1.0  0.15591321917061413  0.43978824256367227  0.3798546553868506  1.0000
  O   O8        1.0  0.942381908853612  0.49738286825989775  0.3538038185704553  1.0000
  F   F1        1.0  0.7485288296231759  0.08197772201235409  0.5252228661950086  1.0000
  F   F2        1.0  0.3506408251506983  0.5505906069037252  0.24780859445593256  1.0000
  F   F3        1.0  0.4498427821042553  0.5328162105147028  0.7945062145123176  1.0000
