data_image0
_chemical_formula_structural       Al2H17C24S2N3O10
_chemical_formula_sum              "Al2 H17 C24 S2 N3 O10"
_cell_length_a       6.648819736122152
_cell_length_b       12.687187386697563
_cell_length_c       16.969590842659198
_cell_angle_alpha    85.95293421391017
_cell_angle_beta     82.12885583096195
_cell_angle_gamma    75.96216282231397

_space_group_name_H-M_alt    "P 1"
_space_group_IT_number       1

loop_
  _space_group_symop_operation_xyz
  'x, y, z'

loop_
  _atom_site_type_symbol
  _atom_site_label
  _atom_site_symmetry_multiplicity
  _atom_site_fract_x
  _atom_site_fract_y
  _atom_site_fract_z
  _atom_site_occupancy
  Al  Al1       1.0  0.5011982177392085  0.4983678080857317  0.50068812085118  1.0000
  Al  Al2       1.0  0.003368019684522523  0.4938880104370256  0.5023576152411096  1.0000
  H   H1        1.0  0.20319847125407625  0.6242938217584068  0.45297044441448253  1.0000
  H   H2        1.0  0.7433164919019786  0.43230873683531007  0.5956747944218322  1.0000
  H   H3        1.0  0.9505357018741806  0.40716851451009717  0.7454601258618822  1.0000
  H   H4        1.0  0.895565754675701  0.4052431593284781  0.8947588951794074  1.0000
  H   H5        1.0  0.3007018120812148  0.6233074915327705  0.8898133453297773  1.0000
  H   H6        1.0  0.6717116930612901  0.3985757508070762  0.11182371417127972  1.0000
  H   H7        1.0  0.17488339999361807  0.555461590724562  0.11496092985884591  1.0000
  H   H8        1.0  0.10971403333928718  0.5521976187006317  0.2643840545612122  1.0000
  H   H9        1.0  0.2678594671939508  0.8473697858321498  0.5416703825829075  1.0000
  H   H10       1.0  0.5637308160196071  0.5939746662080835  0.7126965036499513  1.0000
  H   H11       1.0  0.4166729076105753  0.7076639272301932  0.7673725430501648  1.0000
  H   H12       1.0  0.34720288611408995  0.6807346728694128  0.6742574855940262  1.0000
  H   H13       1.0  0.4307054443175387  0.4381933048246653  0.30732634587259616  1.0000
  H   H14       1.0  0.6165232228619928  0.3136760320525767  0.31105825071954746  1.0000
  H   H15       1.0  0.4787996088675115  0.34899880669421884  0.2265684609147129  1.0000
  H   H16       1.0  0.9275143930655501  0.10921320935252511  0.4448298737042363  1.0000
  H   H17       1.0  0.76777058130871  0.2383700643929814  0.4511966693298675  1.0000
  C   C1        1.0  0.6545232216084784  0.6938550058393532  0.5026897436364735  1.0000
  C   C2        1.0  0.8163475009605108  0.48520185044485936  0.3594222390992883  1.0000
  C   C3        1.0  0.3535446621209246  0.3013814952644438  0.49653239251713194  1.0000
  C   C4        1.0  0.1920206937293045  0.5058297105948384  0.6460237387222633  1.0000
  C   C5        1.0  0.16245799474338432  0.5129143140182536  0.7343371671441332  1.0000
  C   C6        1.0  0.02781851552211388  0.45369803239500317  0.7780492216834958  1.0000
  C   C7        1.0  0.996349942077977  0.4523743844843365  0.8604045170592441  1.0000
  C   C8        1.0  0.09713739801188129  0.5142979495640034  0.900312625882762  1.0000
  C   C9        1.0  0.2282157177885012  0.5748864447801054  0.8566923443653636  1.0000
  C   C10       1.0  0.2652913908519919  0.5751715791501795  0.7734998939965294  1.0000
  C   C11       1.0  0.7633779269854344  0.43390077079020284  0.1467067892189675  1.0000
  C   C12       1.0  0.9229605414059348  0.4783712362242696  0.1052991411903506  1.0000
  C   C13       1.0  0.04994526718034111  0.5220652763614524  0.1474076016305759  1.0000
  C   C14       1.0  0.012584998232355803  0.5204746122316379  0.22972801783488714  1.0000
  C   C15       1.0  0.8484619830034745  0.4787036215177524  0.2711362417850154  1.0000
  C   C16       1.0  0.7206209710194713  0.4336336757443817  0.22969741364912724  1.0000
  C   C17       1.0  0.6130194275083056  0.11903261870692458  0.4730998132102329  1.0000
  C   C18       1.0  0.4045776506527972  0.8794021988495049  0.5216549893942641  1.0000
  C   C19       1.0  0.41204195011270883  0.18432194271048996  0.4950432354119698  1.0000
  C   C20       1.0  0.6008815045100704  0.8131698317365021  0.5015655672567547  1.0000
  C   C21       1.0  0.40918916858929316  0.9900792972516825  0.5123288211195813  1.0000
  C   C22       1.0  0.6082442405887177  0.0068809798088836  0.4839567829732374  1.0000
  C   C23       1.0  0.40487090129011694  0.6431667286745295  0.7296283519335276  1.0000
  C   C24       1.0  0.551931566438391  0.38130652880541765  0.27062146727097064  1.0000
  S   S1        1.0  0.2241504974746106  0.11040204034140541  0.5275259151021814  1.0000
  S   S2        1.0  0.7915401353952587  0.8852833386611607  0.47066522700824004  1.0000
  N   N1        1.0  0.0758777441535869  0.5215516150249044  0.9839723008711801  1.0000
  N   N2        1.0  0.9439374382182706  0.47316469277519957  0.021635175198980512  1.0000
  N   N3        1.0  0.7823746269017207  0.1578822255605417  0.44300943718136665  1.0000
  O   O1        1.0  0.5008027979348313  0.6484276080091931  0.5142999571088183  1.0000
  O   O2        1.0  0.9791073821937173  0.47019445797864995  0.3946489279013719  1.0000
  O   O3        1.0  0.1595681544410112  0.3475075672903927  0.5126960021950354  1.0000
  O   O4        1.0  0.37849412008377925  0.4896169039711823  0.6106972433010824  1.0000
  O   O5        1.0  0.5016461069086803  0.3518261152767296  0.482777785182236  1.0000
  O   O6        1.0  0.02799929626184655  0.5137668254642378  0.6125769474290905  1.0000
  O   O7        1.0  0.8480999116513459  0.6458440090436853  0.4911988859076785  1.0000
  O   O8        1.0  0.6292836859192333  0.5083148052909863  0.3938867286865175  1.0000
  O   O9        1.0  0.23906380992991666  0.5472190501558387  0.4671047498278895  1.0000
  O   O10       1.0  0.7590861583659743  0.4497509706576111  0.538917026846306  1.0000
