data_image0
_chemical_formula_structural       Ag3H18C45S12N6O9F9
_chemical_formula_sum              "Ag3 H18 C45 S12 N6 O9 F9"
_cell_length_a       11.591686216058719
_cell_length_b       12.342679352072556
_cell_length_c       13.933
_cell_angle_alpha    80.38809870869866
_cell_angle_beta     77.89791022734953
_cell_angle_gamma    64.40456104233424

_space_group_name_H-M_alt    "P 1"
_space_group_IT_number       1

loop_
  _space_group_symop_operation_xyz
  'x, y, z'

loop_
  _atom_site_type_symbol
  _atom_site_label
  _atom_site_symmetry_multiplicity
  _atom_site_fract_x
  _atom_site_fract_y
  _atom_site_fract_z
  _atom_site_occupancy
  Ag  Ag1       1.0  0.3290534416465434  0.1368661006216882  0.31668497136401896  1.0000
  Ag  Ag2       1.0  0.08961537581259899  0.1463876362522072  0.5775233019057708  1.0000
  Ag  Ag3       1.0  0.8322916611305473  0.0555800142175045  0.5593491432443329  1.0000
  H   H1        1.0  0.9885642059374005  0.5973580066572666  0.20485538502113343  1.0000
  H   H2        1.0  0.8626054438537449  0.7259749352031903  0.058645237964619  1.0000
  H   H3        1.0  0.015249881511635961  0.4503725128311444  0.7958118046644387  1.0000
  H   H4        1.0  0.8887266036795153  0.57726349960258  0.6544134646321567  1.0000
  H   H5        1.0  0.6302787179441153  0.9794367889289574  0.7763400135714279  1.0000
  H   H6        1.0  0.48516730175172273  0.1066386741731051  0.6401128511695262  1.0000
  H   H7        1.0  0.46324531471476865  0.7009794388358941  0.6631206990898874  1.0000
  H   H8        1.0  0.5956760614456301  0.559956289321633  0.8016648358398586  1.0000
  H   H9        1.0  0.44786882991024857  0.805316857309677  0.08372570523502539  1.0000
  H   H10       1.0  0.5789497092864053  0.6666761206314646  0.21890736389291737  1.0000
  H   H11       1.0  0.863723592843705  0.2893874129188561  0.0625996113338161  1.0000
  H   H12       1.0  0.00494630525145819  0.1457501018558816  0.19719749736474065  1.0000
  H   H13       1.0  0.7011632279647912  0.0978863278496078  0.21887366962893404  1.0000
  H   H14       1.0  0.5725669809559264  0.2338849488542323  0.07707655636411202  1.0000
  H   H15       1.0  0.2971654036174768  0.6291589798124804  0.20489202582830052  1.0000
  H   H16       1.0  0.17958724921133032  0.755847073742089  0.058605671128333425  1.0000
  H   H17       1.0  0.334196073268437  0.4710513512702974  0.801787922833512  1.0000
  H   H18       1.0  0.21120505413997384  0.5915237102722486  0.6539817667388732  1.0000
  C   C1        1.0  0.16371171184518118  0.35727355430272206  0.17198053841951122  1.0000
  C   C2        1.0  0.08174862049989425  0.4472714084620435  0.11245091861435702  1.0000
  C   C3        1.0  0.9984677408504296  0.5645939688128507  0.13452705747138796  1.0000
  C   C4        1.0  0.9325078319987128  0.6323827216326379  0.056405539935475764  1.0000
  C   C5        1.0  0.9650893267642289  0.5679069834834181  0.9741689122099045  1.0000
  C   C6        1.0  0.9171227881271377  0.6084648116919382  0.8819500663004689  1.0000
  C   C7        1.0  0.946503460240045  0.5441703244814136  0.8003863192328569  1.0000
  C   C8        1.0  0.8778517374098914  0.6128887773897631  0.7237006554478712  1.0000
  C   C9        1.0  0.7960372013434096  0.7307397608752879  0.7455157878171478  1.0000
  C   C10       1.0  0.7098213868897645  0.8259118333742136  0.6868575963887126  1.0000
  C   C11       1.0  0.6299180509162738  0.9440378493786596  0.7099487280995194  1.0000
  C   C12       1.0  0.5539577649051636  0.012769624591697898  0.6372173563180682  1.0000
  C   C13       1.0  0.5762339697257701  0.9470586983569902  0.557889577370787  1.0000
  C   C14       1.0  0.5164978305503141  0.9886995234679004  0.474134169000351  1.0000
  C   C15       1.0  0.17391343180079838  0.8531445614774071  0.3700338116792139  1.0000
  C   C16       1.0  0.2969156671101485  0.9399376104817989  0.7062688241074186  1.0000
  C   C17       1.0  0.3792124471981494  0.8444400076899825  0.7623285158083846  1.0000
  C   C18       1.0  0.45877033228066466  0.728619756114675  0.7344169992865661  1.0000
  C   C19       1.0  0.5287682569925422  0.6538875593745317  0.8085785928022917  1.0000
  C   C20       1.0  0.5029422234610692  0.7114099343977998  0.893707832339935  1.0000
  C   C21       1.0  0.5557142704371997  0.6622187903329859  0.9836804887612872  1.0000
  C   C22       1.0  0.5235610172849904  0.7157130661364944  0.07155631653437672  1.0000
  C   C23       1.0  0.5940814664021302  0.6396913726682811  0.14516007342127324  1.0000
  C   C24       1.0  0.6813794130764848  0.5270146075223678  0.11441365644377308  1.0000
  C   C25       1.0  0.769814265953805  0.4265465809787372  0.1680960083354037  1.0000
  C   C26       1.0  0.8559093889343002  0.3138644053570374  0.13589795193534843  1.0000
  C   C27       1.0  0.9302880670446925  0.2364540231047627  0.2067919912112473  1.0000
  C   C28       1.0  0.9006078970617679  0.2899203447833898  0.2944724131280268  1.0000
  C   C29       1.0  0.9527048318120637  0.2390194903714331  0.381038354021534  1.0000
  C   C30       1.0  0.08090731880101734  0.4961280047743273  0.43947208863458803  1.0000
  C   C31       1.0  0.6493230187029226  0.2013661859119296  0.3955343111445658  1.0000
  C   C32       1.0  0.5928925444374329  0.2487105542431252  0.3105180101558105  1.0000
  C   C33       1.0  0.6276262589744875  0.18954790331191157  0.22497267861543693  1.0000
  C   C34       1.0  0.5588241344654962  0.2622142000492644  0.15000447681160273  1.0000
  C   C35       1.0  0.47185604073960247  0.37717598946714753  0.17718663393008435  1.0000
  C   C36       1.0  0.38938688353604056  0.4735104125132565  0.11670537581102994  1.0000
  C   C37       1.0  0.30830909072276563  0.5921495219710451  0.13620767412098905  1.0000
  C   C38       1.0  0.24438601183084782  0.6605956475983561  0.05692095324489093  1.0000
  C   C39       1.0  0.275518638019342  0.5951324976189056  0.9758187592444402  1.0000
  C   C40       1.0  0.22990484539388234  0.6330391926941985  0.8823393069574552  1.0000
  C   C41       1.0  0.26471169320712545  0.5649393375169396  0.8020025422236543  1.0000
  C   C42       1.0  0.20065240586581715  0.6294592612183862  0.7222107279372737  1.0000
  C   C43       1.0  0.11708165914865992  0.7479477791002295  0.7416691624406228  1.0000
  C   C44       1.0  0.03578113606759092  0.8334819907393225  0.6790525492714893  1.0000
  C   C45       1.0  0.7908590229151784  0.2545619838014588  0.8534666601606277  1.0000
  S   S1        1.0  0.07762761021392348  0.4220171110031643  0.994698939546723  1.0000
  S   S2        1.0  0.8053290069262572  0.7552086375998001  0.8618195769608407  1.0000
  S   S3        1.0  0.6925670121492258  0.8012211271426324  0.5731453647343018  1.0000
  S   S4        1.0  0.25358789704237944  0.9157013842159145  0.25810371988318087  1.0000
  S   S5        1.0  0.39124874417660044  0.8596010625773686  0.8810476290097642  1.0000
  S   S6        1.0  0.6741689688350688  0.5169006247937062  0.9936548155907873  1.0000
  S   S7        1.0  0.7813028430339343  0.435898588368083  0.287970864441384  1.0000
  S   S8        1.0  0.1743189459659646  0.3797531794313542  0.5321932370342921  1.0000
  S   S9        1.0  0.4735239495785777  0.3933758557046971  0.2974981426279157  1.0000
  S   S10       1.0  0.3855411413744959  0.4482840691792589  0.9989163207409465  1.0000
  S   S11       1.0  0.11759720050250871  0.7781156903152109  0.8588825428537492  1.0000
  S   S12       1.0  0.8444482754259254  0.1190052183190389  0.7855497726979339  1.0000
  N   N1        1.0  0.23445208344564614  0.2821193404515796  0.2208909589577672  1.0000
  N   N2        1.0  0.46561846523773903  0.025963971532291897  0.4042469972321073  1.0000
  N   N3        1.0  0.228974017134874  0.0195336210652783  0.6583155064642912  1.0000
  N   N4        1.0  0.9921832379825091  0.1979458634716877  0.4554908366217846  1.0000
  N   N5        1.0  0.7018397259954057  0.1572022755946421  0.46427822337496155  1.0000
  N   N6        1.0  0.9675782947141939  0.9029795521602891  0.625544050639299  1.0000
  O   O1        1.0  0.19347916626071537  0.0454182389527702  0.2718176656883315  1.0000
  O   O2        1.0  0.39032374107837575  0.8559462861865654  0.2675817650463659  1.0000
  O   O3        1.0  0.21568119756945947  0.8849635695518926  0.17661661715916213  1.0000
  O   O4        1.0  0.07178995299591404  0.3562094940655811  0.6019400166053402  1.0000
  O   O5        1.0  0.2621287847524627  0.2792121114646662  0.47377406514324605  1.0000
  O   O6        1.0  0.23532569007176818  0.4411169922599143  0.5703855761530505  1.0000
  O   O7        1.0  0.8581072402855411  0.170622059026158  0.6823679853338123  1.0000
  O   O8        1.0  0.7371982318627417  0.0828722575542997  0.8140928319344455  1.0000
  O   O9        1.0  0.9656901266606608  0.0372826868684299  0.8196030650824399  1.0000
  F   F1        1.0  0.2146236004725495  0.7318813712653095  0.37008876792678796  1.0000
  F   F2        1.0  0.20122002047565948  0.8740614608509745  0.4536296354977338  1.0000
  F   F3        1.0  0.04260845073428492  0.9044403806214589  0.37450505262138023  1.0000
  F   F4        1.0  0.007902177861254158  0.457208648981819  0.40082925442949613  1.0000
  F   F5        1.0  0.9984110341763637  0.6002544146926141  0.48118428582090195  1.0000
  F   F6        1.0  0.1602958245859796  0.5240767191726903  0.3626937112512394  1.0000
  F   F7        1.0  0.8802892676275675  0.3018693805481405  0.8352291409074937  1.0000
  F   F8        1.0  0.7701091688338692  0.22614345975601677  0.9528296842405484  1.0000
  F   F9        1.0  0.6777367245125773  0.3424867239902696  0.8280673081347842  1.0000
