data_image0
_chemical_formula_structural       Cu4H24C36Br2N10
_chemical_formula_sum              "Cu4 H24 C36 Br2 N10"
_cell_length_a       8.091678260955808
_cell_length_b       10.904093019198907
_cell_length_c       11.41075949104589
_cell_angle_alpha    61.55011456034833
_cell_angle_beta     76.94971776170165
_cell_angle_gamma    66.99058609456014

_space_group_name_H-M_alt    "P 1"
_space_group_IT_number       1

loop_
  _space_group_symop_operation_xyz
  'x, y, z'

loop_
  _atom_site_type_symbol
  _atom_site_label
  _atom_site_symmetry_multiplicity
  _atom_site_fract_x
  _atom_site_fract_y
  _atom_site_fract_z
  _atom_site_occupancy
  Cu  Cu1       1.0  0.22401876451595376  0.45300884629669  0.316455079638459  1.0000
  Cu  Cu2       1.0  0.7759809703153805  0.5469907731207473  0.6835452089300985  1.0000
  Cu  Cu3       1.0  0.6173853908629637  0.3333487183801792  0.3491366372502398  1.0000
  Cu  Cu4       1.0  0.3826151953479238  0.666651988217666  0.6508638966291967  1.0000
  H   H1        1.0  0.1485540896509079  0.15798765973921292  0.3826530703636379  1.0000
  H   H2        1.0  0.8514481995904434  0.8420119282009395  0.6173476932139651  1.0000
  H   H3        1.0  0.07080846635843603  0.9589457999274202  0.8115629783626802  1.0000
  H   H4        1.0  0.9291899945490343  0.04105383297451941  0.18843751137833914  1.0000
  H   H5        1.0  0.47390533254594674  0.9571380960225183  0.40274902381463573  1.0000
  H   H6        1.0  0.5260931215278931  0.04286483440620259  0.5972508494959853  1.0000
  H   H7        1.0  0.09483725585844406  0.9474189683427806  0.5927122514286794  1.0000
  H   H8        1.0  0.9051603402735537  0.05258287941381922  0.4072864992170863  1.0000
  H   H9        1.0  0.4838972463411082  0.056294092446400185  0.1563400229555967  1.0000
  H   H10       1.0  0.5161097163227595  0.9437032492021659  0.843660121491915  1.0000
  H   H11       1.0  0.39614022210834327  0.9283261359920729  0.05590123422373238  1.0000
  H   H12       1.0  0.6038675853727897  0.07167229734518087  0.9440982781806824  1.0000
  H   H13       1.0  0.10850201986112044  0.1756707867888636  0.8107318494547116  1.0000
  H   H14       1.0  0.8914989888940853  0.8243288191440784  0.18926823794138403  1.0000
  H   H15       1.0  0.30980197931884873  0.7018386469099128  0.21145347067742642  1.0000
  H   H16       1.0  0.6902011481775006  0.2981620372272147  0.7885457835031033  1.0000
  H   H17       1.0  0.35845843981374503  0.3526024171697841  0.9031660435824165  1.0000
  H   H18       1.0  0.6415378955189442  0.6473994350547442  0.09683466294377027  1.0000
  H   H19       1.0  0.22395916864365972  0.268201235490139  0.1370708453710846  1.0000
  H   H20       1.0  0.7760367378537939  0.7317984288890854  0.862929169360882  1.0000
  H   H21       1.0  0.896710269973262  0.2818516460653555  0.17128693043485296  1.0000
  H   H22       1.0  0.10328520741759924  0.7181491234870594  0.8287126534264714  1.0000
  H   H23       1.0  0.7224928974953572  0.38955929804848216  0.9734573741291258  1.0000
  H   H24       1.0  0.2775017151200388  0.6104436863585933  0.026540470636952307  1.0000
  C   C1        1.0  0.1378463342509804  0.15763682164549664  0.4798938352144617  1.0000
  C   C2        1.0  0.8621533940180796  0.8423628022802279  0.5201055760001195  1.0000
  C   C3        1.0  0.09422976486735732  0.048236384056515605  0.7178688287013273  1.0000
  C   C4        1.0  0.905769540857385  0.951764340534112  0.2821310289965878  1.0000
  C   C5        1.0  0.43749991022657064  0.9041057270569154  0.3565814889068833  1.0000
  C   C6        1.0  0.5624998311670452  0.09589388785224173  0.6434196770156505  1.0000
  C   C7        1.0  0.10637937557950043  0.0416179220495749  0.5966547707244417  1.0000
  C   C8        1.0  0.8936186562213778  0.9583828160255551  0.4033452881459353  1.0000
  C   C9        1.0  0.44299141209670284  0.9591542763288746  0.21813035440442957  1.0000
  C   C10       1.0  0.557012982761229  0.0408463988320449  0.781867821249662  1.0000
  C   C11       1.0  0.3960622453770457  0.887060892618244  0.16372435761948623  1.0000
  C   C12       1.0  0.6039442947425044  0.11293754969522504  0.8362762333113665  1.0000
  C   C13       1.0  0.18586508343521055  0.4063259213516234  0.5840674799712887  1.0000
  C   C14       1.0  0.8141329483656606  0.5936748167235065  0.4159325788990954  1.0000
  C   C15       1.0  0.18916926160898126  0.45416998458018304  0.6782332204893678  1.0000
  C   C16       1.0  0.810828770191897  0.5458307534949469  0.3217668383810164  1.0000
  C   C17       1.0  0.14840678995751946  0.2812500048497526  0.595853409038476  1.0000
  C   C18       1.0  0.8515929383115335  0.7187496190759718  0.4041460021760983  1.0000
  C   C19       1.0  0.34520740943786893  0.7137916581318607  0.3868006952761718  1.0000
  C   C20       1.0  0.6547918962868737  0.28620906645876687  0.6131991624217434  1.0000
  C   C21       1.0  0.2882854611770256  0.5900354436378381  0.4844143559600908  1.0000
  C   C22       1.0  0.7117146959272701  0.4099663681331975  0.5155857470487035  1.0000
  C   C23       1.0  0.11452419432863793  0.168921619707028  0.7176681502277377  1.0000
  C   C24       1.0  0.8854768209888421  0.831077981717627  0.2823328145223341  1.0000
  C   C25       1.0  0.34794412871533376  0.7621341287261173  0.2486704547655307  1.0000
  C   C26       1.0  0.6520573023128264  0.2378676695604228  0.7513294470708018  1.0000
  C   C27       1.0  0.1148223282531902  0.4085072602428356  0.8163608890404391  1.0000
  C   C28       1.0  0.8851774131404254  0.5914923546663218  0.18364027688209464  1.0000
  C   C29       1.0  0.21930454169519456  0.35506978413541657  0.9234947190783841  1.0000
  C   C30       1.0  0.7806909488202225  0.6449309764004241  0.07650661949089964  1.0000
  C   C31       1.0  0.14399863771407692  0.30765565854500215  0.053305453696417246  1.0000
  C   C32       1.0  0.8560002588622668  0.6923428646754672  0.9466963442692132  1.0000
  C   C33       1.0  0.9646734242801572  0.3149862866366391  0.0724759205048144  1.0000
  C   C34       1.0  0.03532291788616957  0.685012268061108  0.9275254024517636  1.0000
  C   C35       1.0  0.8656862504684358  0.3744922121881232  0.961629078532397  1.0000
  C   C36       1.0  0.13431348436289892  0.6255074072293142  0.038371210036160605  1.0000
  Br  Br1       1.0  0.490887566535136  0.30284162860518654  0.20977878548416834  1.0000
  Br  Br2       1.0  0.5091155609612059  0.6971590555319482  0.7902204686963613  1.0000
  N   N1        1.0  0.2477262611730567  0.4944955935954738  0.4620820461187023  1.0000
  N   N2        1.0  0.7522726154450864  0.505506236168344  0.5379173807085849  1.0000
  N   N3        1.0  0.25983433528548977  0.5664596344424808  0.6153049314009921  1.0000
  N   N4        1.0  0.7401649704392527  0.4335410901481466  0.3846949262969305  1.0000
  N   N5        1.0  0.38906612605515534  0.7850933229909032  0.4396444114333137  1.0000
  N   N6        1.0  0.610932328018677  0.21490960743782492  0.5603554618773074  1.0000
  N   N7        1.0  0.15933793784137862  0.2744547071003253  0.47826110963569596  1.0000
  N   N8        1.0  0.8406613678833641  0.7255460174903021  0.5217387480622264  1.0000
  N   N9        1.0  0.9360125037018109  0.42321391922136103  0.8350189215879099  1.0000
  N   N10       1.0  0.06398424105063333  0.5767868413548386  0.16497958374697666  1.0000
