data_image0
_chemical_formula_structural       Nd2H14C14N4O16
_chemical_formula_sum              "Nd2 H14 C14 N4 O16"
_cell_length_a       7.910997466881576
_cell_length_b       8.724027718827932
_cell_length_c       8.668061319733365
_cell_angle_alpha    115.90104633422979
_cell_angle_beta     100.73039033797401
_cell_angle_gamma    96.82168723462158

_space_group_name_H-M_alt    "P 1"
_space_group_IT_number       1

loop_
  _space_group_symop_operation_xyz
  'x, y, z'

loop_
  _atom_site_type_symbol
  _atom_site_label
  _atom_site_symmetry_multiplicity
  _atom_site_fract_x
  _atom_site_fract_y
  _atom_site_fract_z
  _atom_site_occupancy
  Nd  Nd1       1.0  0.1608826057027599  0.41510118107962063  0.17280754336322704  1.0000
  Nd  Nd2       1.0  0.8391177755678072  0.5848975960306007  0.8271920364704287  1.0000
  H   H1        1.0  0.1767761375412888  0.0660576933297321  0.45505854223448244  1.0000
  H   H2        1.0  0.823221670121555  0.9339410810278534  0.5449405750475336  1.0000
  H   H3        1.0  0.5312519859629957  0.9144875985763858  0.749455552440594  1.0000
  H   H4        1.0  0.46874772777403717  0.08551378013220301  0.2505427266607683  1.0000
  H   H5        1.0  0.4915864152770482  0.1510958904396418  0.03419247664109545  1.0000
  H   H6        1.0  0.50841458526385  0.8489054896452686  0.9658060337360866  1.0000
  H   H7        1.0  0.9769734808018882  0.28983645783104345  0.38573927847576084  1.0000
  H   H8        1.0  0.023025899577305626  0.7101636328447753  0.6142618444032452  1.0000
  H   H9        1.0  0.8417981100252662  0.3826449453415888  0.33691578425336394  1.0000
  H   H10       1.0  0.15820128221526622  0.6173551386069459  0.6630841841009384  1.0000
  H   H11       1.0  0.3279383392310038  0.808089438134779  0.37872363106770734  1.0000
  H   H12       1.0  0.6720607552357052  0.19190933759912807  0.6212757174901284  1.0000
  H   H13       1.0  0.22601178968447747  0.7678029975657522  0.1842476078826678  1.0000
  H   H14       1.0  0.7739872929208926  0.2321957848954384  0.8157528951998715  1.0000
  C   C1        1.0  0.1037375252579835  0.3302590437667022  0.7398443329052784  1.0000
  C   C2        1.0  0.8962602824048601  0.6697397305908834  0.2601547843767378  1.0000
  C   C3        1.0  0.22498346371693856  0.2115622539057398  0.7412762372430494  1.0000
  C   C4        1.0  0.7750149394935519  0.7884391368811026  0.25872411963189285  1.0000
  C   C5        1.0  0.24631949286521151  0.08220216161078038  0.5842127750122332  1.0000
  C   C6        1.0  0.7536799112366596  0.917797915610464  0.41578603881736603  1.0000
  C   C7        1.0  0.4398739133426304  0.9981985079802697  0.7464770700969225  1.0000
  C   C8        1.0  0.5601270753369292  0.0018028788319242  0.253522594804963  1.0000
  C   C9        1.0  0.41876317065910473  0.12844307927944948  0.9038456269061258  1.0000
  C   C10       1.0  0.5812362334427662  0.8715569979417949  0.09615318692346621  1.0000
  C   C11       1.0  0.0726112252776616  0.995985331738737  0.07232334094596371  1.0000
  C   C12       1.0  0.9273940054345431  0.004012142662141101  0.9276765441945046  1.0000
  C   C13       1.0  0.5576626911186721  0.47538156435790296  0.4334943373684013  1.0000
  C   C14       1.0  0.44233897695576013  0.5246172141286393  0.5665054737410813  1.0000
  N   N1        1.0  0.307852814659455  0.23171413015672468  0.9012219547105931  1.0000
  N   N2        1.0  0.6921468990775848  0.7682872485518712  0.09877632439076922  1.0000
  N   N3        1.0  0.3510179555221952  0.9732215493057054  0.5871083157326921  1.0000
  N   N4        1.0  0.6489798640019872  0.026777218324596692  0.41288964702462055  1.0000
  O   O1        1.0  0.0072502245370032045  0.30605930355604016  0.5954498628454702  1.0000
  O   O2        1.0  0.9927478808996638  0.6939407790161739  0.40454987423301253  1.0000
  O   O3        1.0  0.10118025338318401  0.4514048082554538  0.8922572858980474  1.0000
  O   O4        1.0  0.89881627933714  0.5485939579985271  0.10774044558344534  1.0000
  O   O5        1.0  0.19147167282707037  0.13310708429335694  0.1744177979895554  1.0000
  O   O6        1.0  0.8085325569937538  0.8668917036731115  0.8255836301962634  1.0000
  O   O7        1.0  0.059676132885456916  0.8517207475203817  0.077348275988406  1.0000
  O   O8        1.0  0.9403270960439867  0.14827935401167738  0.9226546952427628  1.0000
  O   O9        1.0  0.4861237312703039  0.4375566132269099  0.27489877267370844  1.0000
  O   O10       1.0  0.5138759587440519  0.5624447789362464  0.7251018154770537  1.0000
  O   O11       1.0  0.7167912434965017  0.4766152596851042  0.4963916329113758  1.0000
  O   O12       1.0  0.28321188972437733  0.5233900733291391  0.5036135862298394  1.0000
  O   O13       1.0  0.9243690754744165  0.31018395084294775  0.28536556269749275  1.0000
  O   O14       1.0  0.0756300071309539  0.6898148316182428  0.7146349403850465  1.0000
  O   O15       1.0  0.297611258640231  0.7179019632153256  0.24886204496862532  1.0000
  O   O16       1.0  0.7023862393874509  0.2820955096549227  0.7511376070416278  1.0000
