data_image0
_chemical_formula_structural       Zn2H38C44N6O12
_chemical_formula_sum              "Zn2 H38 C44 N6 O12"
_cell_length_a       9.605072951809305
_cell_length_b       14.125062121587895
_cell_length_c       14.475
_cell_angle_alpha    99.66893222617837
_cell_angle_beta     103.35451319931744
_cell_angle_gamma    107.15371374055053

_space_group_name_H-M_alt    "P 1"
_space_group_IT_number       1

loop_
  _space_group_symop_operation_xyz
  'x, y, z'

loop_
  _atom_site_type_symbol
  _atom_site_label
  _atom_site_symmetry_multiplicity
  _atom_site_fract_x
  _atom_site_fract_y
  _atom_site_fract_z
  _atom_site_occupancy
  Zn  Zn1       1.0  0.3734803165231426  0.5407829712947034  0.6739957734671975  1.0000
  Zn  Zn2       1.0  0.6265190052254255  0.4592146407621983  0.32600925797891017  1.0000
  H   H1        1.0  0.4194317861451111  0.846071687138128  0.5929853238804839  1.0000
  H   H2        1.0  0.5805550921264669  0.1539266909480617  0.4070089449399318  1.0000
  H   H3        1.0  0.5498987459281324  0.029782452647140207  0.599335115760212  1.0000
  H   H4        1.0  0.450093361239425  0.9702136273511855  0.4006561236009675  1.0000
  H   H5        1.0  0.9487714803308124  0.034978429300494406  0.8129558904948908  1.0000
  H   H6        1.0  0.05121781382025157  0.9650184167271265  0.18703918834994943  1.0000
  H   H7        1.0  0.8118333967025394  0.852108763948543  0.8110412610069203  1.0000
  H   H8        1.0  0.18814987427853683  0.1478888481083587  0.1889578561579057  1.0000
  H   H9        1.0  0.5477599945066914  0.3161732259816362  0.8109959681916835  1.0000
  H   H10       1.0  0.4522449532748639  0.6838228540166968  0.18900207513338074  1.0000
  H   H11       1.0  0.683270703251175  0.18848074002358572  0.8256281834079926  1.0000
  H   H12       1.0  0.3167275815036562  0.8115107437990262  0.17436394033057923  1.0000
  H   H13       1.0  0.8177642083983301  0.23765522406974784  0.5693628318134287  1.0000
  H   H14       1.0  0.18224779954694278  0.762346218133594  0.430635099897458  1.0000
  H   H15       1.0  0.6764238557693432  0.3608357975276846  0.5520634511361067  1.0000
  H   H16       1.0  0.32359521233966154  0.6391710068806589  0.44794127742348167  1.0000
  H   H17       1.0  0.4121709088720636  0.685749417673364  0.8636649267640948  1.0000
  H   H18       1.0  0.5878265154938873  0.3142527905592587  0.13633504039390226  1.0000
  H   H19       1.0  0.2865872319398904  0.6855877854938159  0.0002849277527872425  1.0000
  H   H20       1.0  0.7134144726307312  0.3144144227388068  0.9997184588036561  1.0000
  H   H21       1.0  0.9382535404475902  0.4012652912340826  0.8208166589032686  1.0000
  H   H22       1.0  0.06175220160798034  0.5987323208228191  0.1791928107942056  1.0000
  H   H23       1.0  0.07301221974724109  0.4160351019156749  0.6905416755646527  1.0000
  H   H24       1.0  0.9269860319501646  0.5839625101412338  0.3094645735707005  1.0000
  H   H25       1.0  0.31402545870918175  0.4562547035974448  0.4592002375838291  1.0000
  H   H26       1.0  0.6859802502889495  0.543749036693754  0.5408047046606939  1.0000
  H   H27       1.0  0.8971003168352781  0.3932051310768473  0.4339481507453513  1.0000
  H   H28       1.0  0.10290150909519723  0.6067993752436394  0.5660528676703578  1.0000
  H   H29       1.0  0.8513489391362441  0.28799637071992384  0.3319139160883182  1.0000
  H   H30       1.0  0.14865649408474016  0.7120089016298436  0.6680870899069831  1.0000
  H   H31       1.0  0.9324986821419898  0.2801598911144795  0.45336833092547124  1.0000
  H   H32       1.0  0.06750782113015677  0.7198453812352952  0.546634911612017  1.0000
  H   H33       1.0  0.0026427653334125363  0.30446829847711143  0.24174476292487407  1.0000
  H   H34       1.0  0.9973631863844404  0.695540037989808  0.7582568247307647  1.0000
  H   H35       1.0  0.14903600159426844  0.4270214939490416  0.275744120658608  1.0000
  H   H36       1.0  0.8509728844999387  0.572988374576454  0.724258858681786  1.0000
  H   H37       1.0  0.19684316900593057  0.3182001394748896  0.29492457845412184  1.0000
  H   H38       1.0  0.8031623855749148  0.681807430962742  0.7050768227855997  1.0000
  C   C1        1.0  0.5300400750356005  0.7291013131094533  0.700028586351273  1.0000
  C   C2        1.0  0.46994399021948413  0.2708978310060246  0.29996883110651856  1.0000
  C   C3        1.0  0.6078657063940512  0.837879769943541  0.7016121522712665  1.0000
  C   C4        1.0  0.392117719004311  0.1621140119669278  0.2983835974354889  1.0000
  C   C5        1.0  0.5345320716012766  0.8881818491000858  0.6419487265236085  1.0000
  C   C6        1.0  0.4654562738584787  0.1118172950153919  0.3580465835623272  1.0000
  C   C7        1.0  0.6073608425176077  0.9900897892595567  0.6446787416298106  1.0000
  C   C8        1.0  0.39262884877046395  0.0099078227973521  0.35531306939950724  1.0000
  C   C9        1.0  0.7570393215124441  0.041522617498863205  0.7061282819947436  1.0000
  C   C10       1.0  0.24295092132992838  0.9584719304408936  0.29386380222386077  1.0000
  C   C11       1.0  0.8325735115233074  0.9925564035635193  0.7656075408169655  1.0000
  C   C12       1.0  0.16741578262775653  0.007440442464101701  0.2343861563353045  1.0000
  C   C13       1.0  0.7568948238789731  0.8914114285738464  0.7638044612728123  1.0000
  C   C14       1.0  0.2430876528280805  0.10858465142448642  0.2361908288287466  1.0000
  C   C15       1.0  0.5232848823338331  0.42095454199643717  0.6735017659867353  1.0000
  C   C16       1.0  0.47672379409809207  0.5790446021190405  0.32649804185491865  1.0000
  C   C17       1.0  0.6062806944853847  0.3470932321198887  0.6819765641081474  1.0000
  C   C18       1.0  0.39372770616938624  0.6529074440541649  0.3180227617157172  1.0000
  C   C19       1.0  0.6070917943360925  0.2978482733793301  0.7585680697749737  1.0000
  C   C20       1.0  0.3929124805313009  0.7021485726482908  0.2414286142701059  1.0000
  C   C21       1.0  0.6818853887214759  0.22768305481229592  0.7668246698744169  1.0000
  C   C22       1.0  0.3181166246837251  0.7723114931274608  0.2331719817658851  1.0000
  C   C23       1.0  0.7574745738763157  0.2073066757795488  0.6981515805901921  1.0000
  C   C24       1.0  0.24252823380290084  0.7926894042187771  0.3018440621893674  1.0000
  C   C25       1.0  0.7586952109614701  0.25598553887706293  0.6219451867401204  1.0000
  C   C26       1.0  0.24131465688147108  0.744015903326279  0.3780531078104162  1.0000
  C   C27       1.0  0.682122184018418  0.3255440622488309  0.6136169428224605  1.0000
  C   C28       1.0  0.3178884780985457  0.67445891201308  0.38638448794504404  1.0000
  C   C29       1.0  0.30604709684983805  0.6256222468824577  0.85757140827684  1.0000
  C   C30       1.0  0.6939491361050899  0.3743776632623082  0.1424307630185666  1.0000
  C   C31       1.0  0.23798968630819675  0.6247573998174971  0.9325593444953598  1.0000
  C   C32       1.0  0.7620108268513945  0.3752425103272686  0.0674448645059087  1.0000
  C   C33       1.0  0.10625829886079434  0.5419258869908248  0.920761195846481  1.0000
  C   C34       1.0  0.893743957264121  0.4580732571246529  0.07924522728438183  1.0000
  C   C35       1.0  0.042829085288708844  0.4650196106986756  0.832508316357945  1.0000
  C   C36       1.0  0.9571749138015307  0.5349787673875214  0.16750032090251923  1.0000
  C   C37       1.0  0.11668120867491895  0.4731525436381717  0.7608066250817629  1.0000
  C   C38       1.0  0.8833185102106569  0.526845834448018  0.23919928362654017  1.0000
  C   C39       1.0  0.20213774535780266  0.42740833873894973  0.4720263951621391  1.0000
  C   C40       1.0  0.797865823537997  0.572595401552249  0.5279768373831573  1.0000
  C   C41       1.0  0.9330913339865248  0.3310701975248592  0.4036338270494682  1.0000
  C   C42       1.0  0.06691743074782155  0.6689373729127794  0.5963673753539354  1.0000
  C   C43       1.0  0.11058468735496524  0.3544118759273616  0.2962206138763293  1.0000
  C   C44       1.0  0.8894207458660193  0.6455933964224059  0.7037824646578345  1.0000
  N   N1        1.0  0.2463118478079451  0.5512921270823057  0.7733203803318105  1.0000
  N   N2        1.0  0.7536857309752991  0.448706251003884  0.22668243698470286  1.0000
  N   N3        1.0  0.0429769603301864  0.5434602436525751  0.9999306656480016  1.0000
  N   N4        1.0  0.9570293002222456  0.45654043252147863  7.59314783707116e-05  1.0000
  N   N5        1.0  0.08539438526410954  0.371563271662069  0.392895839501449  1.0000
  N   N6        1.0  0.9146097021285585  0.6284435327462818  0.6071059021653227  1.0000
  O   O1        1.0  0.40569635597132964  0.6758944508968128  0.6303493003554408  1.0000
  O   O2        1.0  0.5943003071780383  0.3241000970429441  0.3696451495756747  1.0000
  O   O3        1.0  0.5858407494979687  0.6905348026289104  0.7661489119299603  1.0000
  O   O4        1.0  0.41413674103282727  0.30946817163300017  0.2338550340436782  1.0000
  O   O5        1.0  0.5264800677300272  0.4688083915519031  0.6066047585708318  1.0000
  O   O6        1.0  0.47353087016408335  0.5311930506514386  0.39339646336816975  1.0000
  O   O7        1.0  0.4495130996184429  0.4345515618397117  0.7351122511851145  1.0000
  O   O8        1.0  0.5504926424371277  0.5654460502171901  0.2648868558180624  1.0000
  O   O9        1.0  0.8384137480915895  0.140834484404877  0.7074137374591345  1.0000
  O   O10       1.0  0.16158279369792444  0.8591577654470157  0.29257686299613533  1.0000
  O   O11       1.0  0.18462361974236072  0.4471328268485024  0.5564297186391299  1.0000
  O   O12       1.0  0.8153798277935849  0.5528686153548392  0.4435731186617531  1.0000
