data_image0
_chemical_formula_structural       Zn8H24C32N32O8
_chemical_formula_sum              "Zn8 H24 C32 N32 O8"
_cell_length_a       8.065568022269309
_cell_length_b       9.58633010606112
_cell_length_c       16.057177553068883
_cell_angle_alpha    89.99984712341765
_cell_angle_beta     90.00033329448225
_cell_angle_gamma    110.88887011450281

_space_group_name_H-M_alt    "P 1"
_space_group_IT_number       1

loop_
  _space_group_symop_operation_xyz
  'x, y, z'

loop_
  _atom_site_type_symbol
  _atom_site_label
  _atom_site_symmetry_multiplicity
  _atom_site_fract_x
  _atom_site_fract_y
  _atom_site_fract_z
  _atom_site_occupancy
  Zn  Zn1       1.0  0.7170899150747303  0.008524079856542202  0.8089190423046374  1.0000
  Zn  Zn2       1.0  0.7829093451715821  0.4914754682276553  0.30891743006063876  1.0000
  Zn  Zn3       1.0  0.2829088721881945  0.9914758587445431  0.1910817686082567  1.0000
  Zn  Zn4       1.0  0.2170902069528467  0.5085233526576405  0.691084003628724  1.0000
  Zn  Zn5       1.0  0.7986475145597252  0.25702346059195946  0.6400767115755883  1.0000
  Zn  Zn6       1.0  0.7013493924271826  0.24297515827989713  0.1400765046790866  1.0000
  Zn  Zn7       1.0  0.20135079821947238  0.7429753614721903  0.3599234765630612  1.0000
  Zn  Zn8       1.0  0.29865015968685077  0.7570236626064287  0.8599230606869099  1.0000
  H   H1        1.0  0.6190403393789127  0.4891282019054446  0.0827012226059196  1.0000
  H   H2        1.0  0.8809608865094913  0.010870475911012506  0.5826995725699149  1.0000
  H   H3        1.0  0.3809589223504161  0.5108728532342964  0.9172970972089587  1.0000
  H   H4        1.0  0.11904037942311171  0.9891294603344323  0.4172999927976946  1.0000
  H   H5        1.0  0.6596342192563184  0.756079975903788  0.0981838639041044  1.0000
  H   H6        1.0  0.840366597177102  0.7439181370691731  0.5981842134952942  1.0000
  H   H7        1.0  0.34036551695674433  0.24392219577289614  0.9018150786850254  1.0000
  H   H8        1.0  0.1596334294345283  0.2560818003527103  0.4018184657427781  1.0000
  H   H9        1.0  0.8305199882320056  0.9411405083694081  0.9933244686177147  1.0000
  H   H10       1.0  0.6694819815707193  0.5588582862790404  0.49332321789314904  1.0000
  H   H11       1.0  0.16947803416248775  0.058860547948157205  0.0066744739698024  1.0000
  H   H12       1.0  0.3305163312223343  0.441140535783724  0.5066794613433174  1.0000
  H   H13       1.0  0.9159214882737886  0.5896492817823147  0.8531632556630979  1.0000
  H   H14       1.0  0.5840803453263633  0.9103530179832832  0.3531611931435563  1.0000
  H   H15       1.0  0.08407729898220852  0.4103506568194605  0.1468363097008876  1.0000
  H   H16       1.0  0.4159216854746716  0.08964580054568225  0.6468402405494231  1.0000
  H   H17       1.0  0.5683606748422178  0.7318160156440215  0.7944705018783222  1.0000
  H   H18       1.0  0.9316428002374479  0.7681829960924704  0.29446968100128856  1.0000
  H   H19       1.0  0.431641830432156  0.2681839194229171  0.20552968626554957  1.0000
  H   H20       1.0  0.06835675188005302  0.23181582479350746  0.7055305071391658  1.0000
  H   H21       1.0  0.590409475641593  0.9854899847022339  0.668664908908859  1.0000
  H   H22       1.0  0.9095904112404725  0.514506934715712  0.16866380696654906  1.0000
  H   H23       1.0  0.40959131581421093  0.014508835005585804  0.3313352792334001  1.0000
  H   H24       1.0  0.09040742705845876  0.48549077081114705  0.8313363811722991  1.0000
  C   C1        1.0  0.7705457452156139  0.5218063908631267  0.9682406072289707  1.0000
  C   C2        1.0  0.7294551806065426  0.9781935493308679  0.4682388602794987  1.0000
  C   C3        1.0  0.2294519868011023  0.47819689970717166  0.0317583353563364  1.0000
  C   C4        1.0  0.27054590122703104  0.0218030361242185  0.5317613278649702  1.0000
  C   C5        1.0  0.697363141138034  0.5696266073965363  0.0370668514747052  1.0000
  C   C6        1.0  0.802634516535676  0.9303715757408997  0.537066169757665  1.0000
  C   C7        1.0  0.3026378344167924  0.4303755631016416  0.9629327138906874  1.0000
  C   C8        1.0  0.19736627492358844  0.06962724396657193  0.4629346411590518  1.0000
  C   C9        1.0  0.7198097644740359  0.7200836996694452  0.04555891627488509  1.0000
  C   C10       1.0  0.7801914153329433  0.7799167047644248  0.5455584098986108  1.0000
  C   C11       1.0  0.2801874930624209  0.2799184743635692  0.9544400263106283  1.0000
  C   C12       1.0  0.21980908575201852  0.22008434919543168  0.4544430237903541  1.0000
  C   C13       1.0  0.8168616196085878  0.8244460860796893  0.9868663709872364  1.0000
  C   C14       1.0  0.6831365603161573  0.6755527192684029  0.4868649733206283  1.0000
  C   C15       1.0  0.18313592830563863  0.17555385370059182  0.0131325716004866  1.0000
  C   C16       1.0  0.31686222695716276  0.3244472193316455  0.5131377059156321  1.0000
  C   C17       1.0  0.8934578333736455  0.7777781393931636  0.9188333930620587  1.0000
  C   C18       1.0  0.6065442564869059  0.722222970976155  0.4188310744409307  1.0000
  C   C19       1.0  0.10654095387889134  0.22222179920895269  0.08116554952747629  1.0000
  C   C20       1.0  0.39345653498275374  0.27777584873027916  0.5811716047991524  1.0000
  C   C21       1.0  0.8670220333943133  0.6266077336151029  0.9089867885734507  1.0000
  C   C22       1.0  0.6329824255741912  0.8733933853225084  0.4089843051158155  1.0000
  C   C23       1.0  0.13297551451644551  0.3733922061655265  0.0910115312398219  1.0000
  C   C24       1.0  0.36701913074311676  0.12660431666951416  0.5910165058029122  1.0000
  C   C25       1.0  0.7438071938700899  0.3644794352614795  0.9545446383193692  1.0000
  C   C26       1.0  0.7561924474842386  0.13551995243317802  0.4545435178847796  1.0000
  C   C27       1.0  0.25619053814663323  0.6355238553088115  0.0454543042659381  1.0000
  C   C28       1.0  0.24380863434240752  0.8644766330226049  0.5454554247107807  1.0000
  C   C29       1.0  0.0034529272911713095  0.8860115053162333  0.8582148792504538  1.0000
  C   C30       1.0  0.49654972541461717  0.6139886360178225  0.3582132490173962  1.0000
  C   C31       1.0  0.9965470992996686  0.11398843210772473  0.14178406334089286  1.0000
  C   C32       1.0  0.5034498267132789  0.386010184867125  0.6417888074464172  1.0000
  N   N1        1.0  0.7505613582374054  0.3056904273438051  0.8792226159842469  1.0000
  N   N2        1.0  0.7494391587952264  0.19431015927731476  0.37922200451689747  1.0000
  N   N3        1.0  0.24943666415709495  0.6943106289737601  0.12077632660327708  1.0000
  N   N4        1.0  0.2505619230348799  0.80568642617812  0.6207775608531207  1.0000
  N   N5        1.0  0.7170352236445225  0.16067353486744204  0.8946693579439466  1.0000
  N   N6        1.0  0.7829642259355866  0.3393270357938506  0.3946692349466616  1.0000
  N   N7        1.0  0.2829645125720008  0.8393286368088939  0.1053302074196338  1.0000
  N   N8        1.0  0.2170368558945271  0.6606695496615844  0.6053303304233566  1.0000
  N   N9        1.0  0.6927740350444652  0.12904892385231653  0.9746186413003954  1.0000
  N   N10       1.0  0.8072241158696942  0.37094932621112525  0.4746185384698122  1.0000
  N   N11       1.0  0.3072257011720653  0.8709532478240265  0.025380924063192395  1.0000
  N   N12       1.0  0.19277525214184282  0.6290461438851837  0.5253810268986001  1.0000
  N   N13       1.0  0.7089774352128301  0.25632603980356816  0.0136838066979834  1.0000
  N   N14       1.0  0.7910213088785198  0.24367159922558565  0.5136840127117708  1.0000
  N   N15       1.0  0.29102106166192954  0.7436761330512809  0.9863151358893346  1.0000
  N   N16       1.0  0.20897681979471372  0.7563238720488885  0.4863155526548296  1.0000
  N   N17       1.0  0.9597973054891468  0.9917959980661096  0.8191781958108777  1.0000
  N   N18       1.0  0.540204914800924  0.5082052216895505  0.3191760262000258  1.0000
  N   N19       1.0  0.04020319558541981  0.008205055894784201  0.1808213695547138  1.0000
  N   N20       1.0  0.4597946373235118  0.49179359919573784  0.6808254074893368  1.0000
  N   N21       1.0  0.1007783008821335  0.07018132797286822  0.7713510931762357  1.0000
  N   N22       1.0  0.3992214883245708  0.4298194597549811  0.2713499189861963  1.0000
  N   N23       1.0  0.8992239140110031  0.9298208413471445  0.2286484721909687  1.0000
  N   N24       1.0  0.6007790127499959  0.5701815942059131  0.7286496463794021  1.0000
  N   N25       1.0  0.2260412156262603  0.015081842915158501  0.7805222966384378  1.0000
  N   N26       1.0  0.2739586756336224  0.4849189346374133  0.2805212915483537  1.0000
  N   N27       1.0  0.7739592854517668  0.9849192110453941  0.21947789150161154  1.0000
  N   N28       1.0  0.7260430647792475  0.5150821181453152  0.7194782738190567  1.0000
  N   N29       1.0  0.16865784923646746  0.8987880762930944  0.8342102686646766  1.0000
  N   N30       1.0  0.33134453636670014  0.6012120916726006  0.3342100451873335  1.0000
  N   N31       1.0  0.8313421773543722  0.10121186113086371  0.16578867392666297  1.0000
  N   N32       1.0  0.6686562550925642  0.3987867280348711  0.6657907657293832  1.0000
  O   O1        1.0  0.6835457217650002  0.06622837237164701  0.696115187371106  1.0000
  O   O2        1.0  0.8164547619450745  0.43377129850806284  0.19611501091419825  1.0000
  O   O3        1.0  0.31645306549792457  0.9337715662294316  0.3038856235417882  1.0000
  O   O4        1.0  0.18354154664125133  0.5662286424493461  0.8038857999950793  1.0000
  O   O5        1.0  0.5414175269599326  0.8116951094806881  0.8235913321604258  1.0000
  O   O6        1.0  0.9585837934852676  0.6883038723032939  0.32359071775110937  1.0000
  O   O7        1.0  0.4585845038376418  0.18830370904862553  0.176409478758103  1.0000
  O   O8        1.0  0.041414993774189744  0.3116960662981328  0.676409470387334  1.0000
