data_image0
_chemical_formula_structural       Hg4H40C44N8Cl8O4
_chemical_formula_sum              "Hg4 H40 C44 N8 Cl8 O4"
_cell_length_a       7.686488039732154
_cell_length_b       9.553475979
_cell_length_c       16.729
_cell_angle_alpha    90.0
_cell_angle_beta     101.47773392597496
_cell_angle_gamma    90.0

_space_group_name_H-M_alt    "P 1"
_space_group_IT_number       1

loop_
  _space_group_symop_operation_xyz
  'x, y, z'

loop_
  _atom_site_type_symbol
  _atom_site_label
  _atom_site_symmetry_multiplicity
  _atom_site_fract_x
  _atom_site_fract_y
  _atom_site_fract_z
  _atom_site_occupancy
  Hg  Hg1       1.0  0.7537129927438289  0.0406888551197966  0.004846856773127709  1.0000
  Hg  Hg2       1.0  0.7462854505920193  0.5406922057850494  0.4951528813501014  1.0000
  Hg  Hg3       1.0  0.2462850844586626  0.9593115657741293  0.9951536847450839  1.0000
  Hg  Hg4       1.0  0.253713954142583  0.45931135532716644  0.5048465860140186  1.0000
  H   H1        1.0  0.8067306425949283  0.7402865737607982  0.8786606610446911  1.0000
  H   H2        1.0  0.6932757659335778  0.2402853165744077  0.6213398053263574  1.0000
  H   H3        1.0  0.19326743460756296  0.25971384713312773  0.1213410760022384  1.0000
  H   H4        1.0  0.3067249663331354  0.7597119641012284  0.3786579901193222  1.0000
  H   H5        1.0  0.8586052872998737  0.6177824713196998  0.7524321292479286  1.0000
  H   H6        1.0  0.6414024487607366  0.1177812141333092  0.7475696540264778  1.0000
  H   H7        1.0  0.1413954449668324  0.3822189963136537  0.24757044831263642  1.0000
  H   H8        1.0  0.3586009385701914  0.8822171132817616  0.25242957969719276  1.0000
  H   H9        1.0  0.8638875375629811  0.3590065027157792  0.7482238242186057  1.0000
  H   H10       1.0  0.6361175434334145  0.8590046196838799  0.75177831407089  1.0000
  H   H11       1.0  0.1361145222358431  0.6409949649175744  0.2517788747165994  1.0000
  H   H12       1.0  0.3638845163654025  0.1409926609917562  0.24822139604250282  1.0000
  H   H13       1.0  0.820794517761378  0.2188554202256796  0.8682315179897344  1.0000
  H   H14       1.0  0.6792065806386918  0.7188535371937874  0.6317684628827678  1.0000
  H   H15       1.0  0.17920621450533505  0.7811439539288116  0.1317698640421128  1.0000
  H   H16       1.0  0.32079282409591064  0.2811426967424211  0.3682298089526342  1.0000
  H   H17       1.0  0.8039653932111506  0.24965049425388494  0.1714851286090706  1.0000
  H   H18       1.0  0.6960343776568081  0.7496486112219927  0.3285147308887915  1.0000
  H   H19       1.0  0.19603401152345165  0.7503520201188963  0.8285167298124989  1.0000
  H   H20       1.0  0.30396502707779405  0.2503518096719333  0.6714823454178855  1.0000
  H   H21       1.0  0.573752740000387  0.2560031558540672  0.1328484488530961  1.0000
  H   H22       1.0  0.9262457033354609  0.7560023195615955  0.3671506915057705  1.0000
  H   H23       1.0  0.4262466647342151  0.7439972650398587  0.8671534095684734  1.0000
  H   H24       1.0  0.0737537013991414  0.24399914807175802  0.6328463848009064  1.0000
  H   H25       1.0  0.55088334435262  0.44119334253470305  0.2253818330914825  1.0000
  H   H26       1.0  0.9491150989832278  0.9411935529816661  0.2746185027961019  1.0000
  H   H27       1.0  0.4491134053177604  0.5588070783592229  0.774619782580814  1.0000
  H   H28       1.0  0.05088563328348531  0.0588079146516876  0.725379890413933  1.0000
  H   H29       1.0  0.7826677955808563  0.44189047099502693  0.2589389554279649  1.0000
  H   H30       1.0  0.7173306477549917  0.9418906814419898  0.24106078269526424  1.0000
  H   H31       1.0  0.21732895408952405  0.5581109966383268  0.7410626602443315  1.0000
  H   H32       1.0  0.2826700845117217  0.0581128796702259  0.7589376105147778  1.0000
  H   H33       1.0  0.5679846129852636  0.6428393197930902  0.1445316086661705  1.0000
  H   H34       1.0  0.9320111752863696  0.1428380626066996  0.3554672889434301  1.0000
  H   H35       1.0  0.432012136685124  0.3571631945796909  0.8554694092417705  1.0000
  H   H36       1.0  0.06798822944823263  0.8571623582872263  0.6445309828919719  1.0000
  H   H37       1.0  0.7995606416723293  0.6484498431374561  0.18274598578310025  1.0000
  H   H38       1.0  0.7004391291956298  0.1484464924722033  0.31725506924348684  1.0000
  H   H39       1.0  0.200438763062273  0.35155371797475965  0.8172558726384693  1.0000
  H   H40       1.0  0.2995642581353054  0.851552881682288  0.6827453600089088  1.0000
  C   C1        1.0  0.7266605434195059  0.3864216551247779  0.07018566687110452  1.0000
  C   C2        1.0  0.7733392274484532  0.8864197720928785  0.42981419262676474  1.0000
  C   C3        1.0  0.2733375337829926  0.6135798125085756  0.929816070175832  1.0000
  C   C4        1.0  0.22666150481825306  0.1135796020616127  0.5701842005832702  1.0000
  C   C5        1.0  0.7470209033806015  0.6204485166476986  0.014718000835166806  1.0000
  C   C6        1.0  0.7529815225515792  0.1204535398978877  0.48528210141197553  1.0000
  C   C7        1.0  0.2529785013540007  0.3795487640279305  0.9852838575864026  1.0000
  C   C8        1.0  0.24701920971513405  0.8795489744748934  0.5147168895624219  1.0000
  C   C9        1.0  0.7779616942532146  0.5483459644966118  0.941792201978636  1.0000
  C   C10       1.0  0.7220447142752917  0.0483447073102212  0.5582094599211302  1.0000
  C   C11       1.0  0.22204036554560963  0.4516555031367417  0.05820930142784421  1.0000
  C   C12       1.0  0.2779573455235251  0.951652573365415  0.4417896524279  1.0000
  C   C13       1.0  0.806247420907127  0.6264379596656937  0.8742922532874928  1.0000
  C   C14       1.0  0.6937589876213794  0.1264367024793032  0.625708810847911  1.0000
  C   C15       1.0  0.1937533113595862  0.3735624612282251  0.1257091287443473  1.0000
  C   C16       1.0  0.3062417446453338  0.8735605781963329  0.37428958236212406  1.0000
  C   C17       1.0  0.8362483190463195  0.558495150009108  0.8050966488708937  1.0000
  C   C18       1.0  0.6637607445464013  0.05849598630157261  0.6949046580137905  1.0000
  C   C19       1.0  0.16375506828460837  0.4415042241453904  0.1949055736745819  1.0000
  C   C20       1.0  0.33624131525241563  0.9415012943740635  0.3050938565708847  1.0000
  C   C21       1.0  0.8396587490352374  0.4112806698459153  0.8029092075171462  1.0000
  C   C22       1.0  0.6603489870253797  0.9112787868140231  0.6970913802285353  1.0000
  C   C23       1.0  0.16034596582780136  0.588718704308576  0.19709194087424461  1.0000
  C   C24       1.0  0.3396530727734444  0.08871640038275791  0.3029077321205023  1.0000
  C   C25       1.0  0.8138714378111231  0.3326537908281466  0.8692519654844519  1.0000
  C   C26       1.0  0.6861296605889466  0.8326550480145372  0.6307480153880505  1.0000
  C   C27       1.0  0.1861266393913752  0.6673445365869171  0.1307497715624848  1.0000
  C   C28       1.0  0.3138710716777666  0.1673422326610918  0.3692497800576221  1.0000
  C   C29       1.0  0.7814491211044725  0.3996482545612281  0.9399375819307068  1.0000
  C   C30       1.0  0.7185533048277009  0.899646371529336  0.5600625203164357  1.0000
  C   C31       1.0  0.2185516111622405  0.6003532130721254  0.06006380010114041  1.0000
  C   C32       1.0  0.2814460999069013  0.1003509091463002  0.439935153754604  1.0000
  C   C33       1.0  0.6940311317037955  0.3211113951344373  0.1471282769032527  1.0000
  C   C34       1.0  0.8059673116320527  0.821109512102538  0.3528720589843388  1.0000
  C   C35       1.0  0.3059682730308069  0.678891119238351  0.8528741792826793  1.0000
  C   C36       1.0  0.19403209310254976  0.1788909087913879  0.6471262128510631  1.0000
  C   C37       1.0  0.6768422459519385  0.4446978261460686  0.20442574794012813  1.0000
  C   C38       1.0  0.8231561973839094  0.9446959431141764  0.2955733924187385  1.0000
  C   C39       1.0  0.3231558312505599  0.5553046882267125  0.7955753913424388  1.0000
  C   C40       1.0  0.1768432073506929  0.05530343104032201  0.7044242816523012  1.0000
  C   C41       1.0  0.6895945193943476  0.5795785756065258  0.15522464537915678  1.0000
  C   C42       1.0  0.8104025964093895  0.0795762716807076  0.3447725803119894  1.0000
  C   C43       1.0  0.3104035578081438  0.42042289202682787  0.8447752983746923  1.0000
  C   C44       1.0  0.18959680832521295  0.9204241492132184  0.65522509375905  1.0000
  N   N1        1.0  0.7542068346885102  0.3197925034527387  0.0056900235601702  1.0000
  N   N2        1.0  0.7457942637115595  0.819791667160267  0.494309957312332  1.0000
  N   N3        1.0  0.24578991498187724  0.6802079174411872  0.9943121898764887  1.0000
  N   N4        1.0  0.2542077960872646  0.1802066602547967  0.5056873617436182  1.0000
  N   N5        1.0  0.7220885228349019  0.5292743720834991  0.07658575292834509  1.0000
  N   N6        1.0  0.7779125755651679  0.029271021418246303  0.4234136301797946  1.0000
  N   N7        1.0  0.2779108818997003  0.47072814228928916  0.9234155077288619  1.0000
  N   N8        1.0  0.22208815670154544  0.9707273059968174  0.5765847630302403  1.0000
  Cl  Cl1       1.0  0.9980983787540156  0.0268017631030659  0.1166329994312179  1.0000
  Cl  Cl2       1.0  0.5019000645818323  0.5268051137683187  0.3833673364563737  1.0000
  Cl  Cl3       1.0  0.0019036810448085004  0.9731944708331355  0.8833661129178196  1.0000
  Cl  Cl4       1.0  0.4980980126206589  0.47319740060446247  0.6166332050618379  1.0000
  Cl  Cl5       1.0  0.5190053158108086  0.017614531126668  0.8889530072685972  1.0000
  Cl  Cl6       1.0  0.9809917999929356  0.5176157883130657  0.6110460117156293  1.0000
  Cl  Cl7       1.0  0.4809927613916899  0.9823858897672508  0.1110457409565271  1.0000
  Cl  Cl8       1.0  0.0190036221453411  0.482385679320288  0.3889542870533091  1.0000
  O   O1        1.0  0.7412235706590666  0.7484731228421921  0.024725945723346923  1.0000
  O   O2        1.0  0.7587815103373288  0.2484687254375118  0.4752749970374239  1.0000
  O   O3        1.0  0.25877848913975043  0.251529391530589  0.9752773509762136  1.0000
  O   O4        1.0  0.24121789439727345  0.7515275084986969  0.5247256658554207  1.0000
