data_image0
_chemical_formula_structural       Zn2H16C48N10O8
_chemical_formula_sum              "Zn2 H16 C48 N10 O8"
_cell_length_a       14.042223209226643
_cell_length_b       15.373338736457105
_cell_length_c       17.815917956065473
_cell_angle_alpha    90.2250064322316
_cell_angle_beta     90.08624059917416
_cell_angle_gamma    89.97294779606766

_space_group_name_H-M_alt    "P 1"
_space_group_IT_number       1

loop_
  _space_group_symop_operation_xyz
  'x, y, z'

loop_
  _atom_site_type_symbol
  _atom_site_label
  _atom_site_symmetry_multiplicity
  _atom_site_fract_x
  _atom_site_fract_y
  _atom_site_fract_z
  _atom_site_occupancy
  Zn  Zn1       1.0  0.39698226616216203  0.5009494774047666  0.49992261578363906  1.0000
  Zn  Zn2       1.0  0.6035132173009785  0.5008176689558043  0.5000475603997003  1.0000
  H   H1        1.0  0.35060042484985143  0.5202563826993511  0.739835828089767  1.0000
  H   H2        1.0  0.6480986536471178  0.5194627292888612  0.2613881760123604  1.0000
  H   H3        1.0  0.3504620291967909  0.45528907793696055  0.2643775164511838  1.0000
  H   H4        1.0  0.64778806351125  0.454565325704074  0.7340711603233318  1.0000
  H   H5        1.0  0.4264111919357489  0.059771560745353704  0.3936022829772271  1.0000
  H   H6        1.0  0.568505709949136  0.9410481896694306  0.39185522966982234  1.0000
  H   H7        1.0  0.42979241073971514  0.941435332998438  0.6076355592469085  1.0000
  H   H8        1.0  0.5719001938233249  0.060002643916767795  0.6068635723904522  1.0000
  H   H9        1.0  0.9317299090301744  0.3743357286405243  0.44487273361512797  1.0000
  H   H10       1.0  0.0688126312862209  0.5700946739672331  0.6057346119440015  1.0000
  H   H11       1.0  0.9323253603053844  0.6257290640085884  0.555227995383845  1.0000
  H   H12       1.0  0.06865673913123521  0.4296163880950416  0.3944743757545908  1.0000
  H   H13       1.0  0.7539659338446827  0.38025020942053084  0.4472892673435212  1.0000
  H   H14       1.0  0.24646475179319083  0.5690001368460855  0.6002187083007231  1.0000
  H   H15       1.0  0.754552528407217  0.62037375330096  0.5529615839181832  1.0000
  H   H16       1.0  0.2463346064237868  0.43133187781896254  0.3998919967711814  1.0000
  C   C1        1.0  0.5022701237666425  0.3305503783711572  0.4996051006088822  1.0000
  C   C2        1.0  0.5023160336625025  0.670646803890719  0.5004029493233305  1.0000
  C   C3        1.0  0.49836180246691  0.49611684848102305  0.3548617653837241  1.0000
  C   C4        1.0  0.49874455574537546  0.4975610929440962  0.6451394154990595  1.0000
  C   C5        1.0  0.41491788546019853  0.494146889677495  0.8475851259085802  1.0000
  C   C6        1.0  0.584688923656124  0.4936220187098854  0.1529291719945718  1.0000
  C   C7        1.0  0.41548280756966005  0.4573854643509137  0.1546606288939572  1.0000
  C   C8        1.0  0.5839120120204342  0.4569334562556763  0.8443401446632138  1.0000
  C   C9        1.0  0.4155315004531916  0.5024911828198171  0.7694621293623245  1.0000
  C   C10       1.0  0.5834501065144907  0.5017378128881945  0.23117026852541042  1.0000
  C   C11       1.0  0.4155433914090594  0.4664517507355868  0.2327948982890505  1.0000
  C   C12       1.0  0.5832157421734153  0.46630846880830756  0.7662551147037606  1.0000
  C   C13       1.0  0.49935696839423843  0.48918174002240283  0.7288907452909188  1.0000
  C   C14       1.0  0.4990923151963429  0.48848158812305087  0.27101584368249837  1.0000
  C   C15       1.0  0.4996903833315259  0.4716253791588371  0.8867967114490087  1.0000
  C   C16       1.0  0.5002397013350972  0.4716607063534326  0.11289826497336722  1.0000
  C   C17       1.0  0.500357122183452  0.46653203533281123  0.9655904582099314  1.0000
  C   C18       1.0  0.5002328673038363  0.46661483506373713  0.034071902533490614  1.0000
  C   C19       1.0  0.45924959506519514  0.0947402603159446  0.44021771407630444  1.0000
  C   C20       1.0  0.5382352798915379  0.9061981858465131  0.4393179572306139  1.0000
  C   C21       1.0  0.46116896067862  0.9063821361056981  0.5604897097491844  1.0000
  C   C22       1.0  0.540079296507706  0.09483199293828903  0.5599452799502986  1.0000
  C   C23       1.0  0.4579073107883716  0.18604669249121028  0.44074110484226753  1.0000
  C   C24       1.0  0.5408580601366211  0.8149413071543633  0.4398900810777207  1.0000
  C   C25       1.0  0.45985141020735654  0.8150816141769467  0.5600300949186378  1.0000
  C   C26       1.0  0.5426843261159463  0.1860864210229778  0.5593594596962462  1.0000
  C   C27       1.0  0.5010725186984574  0.2327212025330638  0.49985740706264187  1.0000
  C   C28       1.0  0.5011151560040902  0.7684712684500639  0.5001406061792864  1.0000
  C   C29       1.0  0.4995680297875964  0.0486937635600242  0.5000123474213893  1.0000
  C   C30       1.0  0.4995781423842942  0.9523262651419983  0.49995438890173466  1.0000
  C   C31       1.0  0.895877446552049  0.4307339047120351  0.4688466953477646  1.0000
  C   C32       1.0  0.10467296570489283  0.5398525647535238  0.5581961314073924  1.0000
  C   C33       1.0  0.8961891193128295  0.5694420179384494  0.5312923707012517  1.0000
  C   C34       1.0  0.1045813528767781  0.46006806025530983  0.44195746303878286  1.0000
  C   C35       1.0  0.7970733799715362  0.4331163555584183  0.47008220201910694  1.0000
  C   C36       1.0  0.20351292622276423  0.5388903500911725  0.5561650526597364  1.0000
  C   C37       1.0  0.7973831638125972  0.5673732967447692  0.5301180911403094  1.0000
  C   C38       1.0  0.20344167367483126  0.4614196405721387  0.4439028607182466  1.0000
  C   C39       1.0  0.9477797924380481  0.5000127740463755  0.5000576030268604  1.0000
  C   C40       1.0  0.05293621480873871  0.4999541022924702  0.5000532825947205  1.0000
  C   C41       1.0  0.3285280478110906  0.5098490662193242  0.8874197823108078  1.0000
  C   C42       1.0  0.6714105604267857  0.5087760880241702  0.11350730248059904  1.0000
  C   C43       1.0  0.3295683290495148  0.4322891962964589  0.11768766382678562  1.0000
  C   C44       1.0  0.6698081445441346  0.4313542272891837  0.881011017419816  1.0000
  C   C45       1.0  0.4121375405353049  0.23173513482705493  0.3808722648144141  1.0000
  C   C46       1.0  0.5829048516401372  0.7690225172143811  0.37829975186942744  1.0000
  C   C47       1.0  0.4161724079577809  0.769126996258123  0.6206076672244266  1.0000
  C   C48       1.0  0.5867679079652605  0.23164783941930983  0.6203349458727203  1.0000
  N   N1        1.0  0.748694926387202  0.5003365169673728  0.5000907876367436  1.0000
  N   N2        1.0  0.251938290091978  0.500328897162639  0.4999763546831701  1.0000
  N   N3        1.0  0.2563579710097628  0.5236148268391576  0.9177571028098515  1.0000
  N   N4        1.0  0.743573029263544  0.5218305752688153  0.08304302352643593  1.0000
  N   N5        1.0  0.2581037473203693  0.41033039862229975  0.0898662815456888  1.0000
  N   N6        1.0  0.7408624883935602  0.40924677506886553  0.9092809605380199  1.0000
  N   N7        1.0  0.3741958867218643  0.2684524688790617  0.3319589124221595  1.0000
  N   N8        1.0  0.6166693275966965  0.7323546299927698  0.32734420027829714  1.0000
  N   N9        1.0  0.37993000941573035  0.7319601159386835  0.6699644735735717  1.0000
  N   N10       1.0  0.6223003377225496  0.26776208738515095  0.6708963671105579  1.0000
  O   O1        1.0  0.4214922462630994  0.36683656394603753  0.5005925523671949  1.0000
  O   O2        1.0  0.5839511791762035  0.6356496535860997  0.5018351717491002  1.0000
  O   O3        1.0  0.4215323938631387  0.6344312624998095  0.49922546543083973  1.0000
  O   O4        1.0  0.583889954971909  0.3655143388079837  0.4984047581590758  1.0000
  O   O5        1.0  0.4172632299126634  0.49804103962434715  0.38661411000220625  1.0000
  O   O6        1.0  0.5793628070962883  0.4995292913524452  0.6126969461636946  1.0000
  O   O7        1.0  0.41762932326917485  0.5011680545889732  0.6133161183127032  1.0000
  O   O8        1.0  0.5789875406912233  0.49927266929082487  0.3874364416475516  1.0000
