data_image0
_chemical_formula_structural       Ba2NiH14C6O16
_chemical_formula_sum              "Ba2 Ni1 H14 C6 O16"
_cell_length_a       6.891608940439728
_cell_length_b       7.176523790166976
_cell_length_c       8.852337862299647
_cell_angle_alpha    82.15469948384376
_cell_angle_beta     71.17688334431377
_cell_angle_gamma    80.24439531512135

_space_group_name_H-M_alt    "P 1"
_space_group_IT_number       1

loop_
  _space_group_symop_operation_xyz
  'x, y, z'

loop_
  _atom_site_type_symbol
  _atom_site_label
  _atom_site_symmetry_multiplicity
  _atom_site_fract_x
  _atom_site_fract_y
  _atom_site_fract_z
  _atom_site_occupancy
  Ba  Ba1       1.0  0.0940554764603476  0.7339760020529343  0.3549831903635123  1.0000
  Ba  Ba2       1.0  0.9059438955369432  0.2660253150045193  0.645018311071638  1.0000
  Ni  Ni1       1.0  0.9999988672157443  0.9999996058093218  8.30457374008412e-07  1.0000
  H   H1        1.0  0.595478013881774  0.8909358455835843  0.06565785620656332  1.0000
  H   H2        1.0  0.4045198237981609  0.10906548104698292  0.9343428998671969  1.0000
  H   H3        1.0  0.013858918236806515  0.3690102375104019  0.09184250519808759  1.0000
  H   H4        1.0  0.986142188447282  0.6309896598464065  0.9081575843699736  1.0000
  H   H5        1.0  0.4745587912821491  0.38051254605831997  0.11104721813158142  1.0000
  H   H6        1.0  0.5254392473419074  0.6194873658420691  0.8889525107178287  1.0000
  H   H7        1.0  0.34784907044686975  0.053194723102464495  0.4222424007406644  1.0000
  H   H8        1.0  0.6521498979381732  0.9468094372232302  0.5777577651308051  1.0000
  H   H9        1.0  0.30109316580306716  0.9278475822515091  0.5898663365848121  1.0000
  H   H10       1.0  0.6989077393622267  0.07215373443810341  0.410133650203477  1.0000
  H   H11       1.0  0.39020337920146636  0.3474084170769842  0.4204556760737646  1.0000
  H   H12       1.0  0.6097971229262528  0.6525957382782367  0.5795441051549659  1.0000
  H   H13       1.0  0.35529361192975983  0.4024412958052395  0.5947021662885347  1.0000
  H   H14       1.0  0.6447061625304401  0.5975571871892387  0.40529841070203787  1.0000
  C   C1        1.0  0.6517723500271161  0.7977520008015943  0.15769691020169327  1.0000
  C   C2        1.0  0.3482260904851842  0.20224508163843782  0.842300764199031  1.0000
  C   C3        1.0  0.05116159518082241  0.27526613133395733  0.19195145916872036  1.0000
  C   C4        1.0  0.9488375752976737  0.7247366050563074  0.8080499394866436  1.0000
  C   C5        1.0  0.5931912297805155  0.26467982609805324  0.13426807783341127  1.0000
  C   C6        1.0  0.4068083431608969  0.7353200762292291  0.8657323963773819  1.0000
  O   O1        1.0  0.8335408624145658  0.8120604002653805  0.15963930627633255  1.0000
  O   O2        1.0  0.16645604435505135  0.18793668714512526  0.8403587527671305  1.0000
  O   O3        1.0  0.5359077176307993  0.6854597387945416  0.2512942096448966  1.0000
  O   O4        1.0  0.4640926585124205  0.31453450921465986  0.7487010256644097  1.0000
  O   O5        1.0  0.07294561506844845  0.35015227769047635  0.3046374626633437  1.0000
  O   O6        1.0  0.9270539590222953  0.6498476154315469  0.695365271555694  1.0000
  O   O7        1.0  0.07023264504016423  0.0959967121628154  0.18215004855657915  1.0000
  O   O8        1.0  0.9297667263824536  0.9040046094972779  0.8178503228744417  1.0000
  O   O9        1.0  0.7429018891399296  0.21708275206896127  0.012037261087229521  1.0000
  O   O10       1.0  0.2570974817080156  0.7829185741937578  0.9879619803396763  1.0000
  O   O11       1.0  0.5642659461252323  0.1950045954628479  0.27857439372507997  1.0000
  O   O12       1.0  0.43573076199894706  0.8049938882673261  0.721429212559208  1.0000
  O   O13       1.0  0.24273956645207315  0.9841825372699589  0.5022487889793297  1.0000
  O   O14       1.0  0.7572630739746844  0.0158173551163756  0.4977509159459998  1.0000
  O   O15       1.0  0.2904086427389672  0.42043092461443626  0.5072262979115718  1.0000
  O   O16       1.0  0.7095907286836506  0.5795703970456573  0.49277407351944896  1.0000
