data_image0
_chemical_formula_structural       Ni4H48C60N4O16
_chemical_formula_sum              "Ni4 H48 C60 N4 O16"
_cell_length_a       9.539193446597968
_cell_length_b       18.339489707812177
_cell_length_c       18.523654848041307
_cell_angle_alpha    89.99998385938693
_cell_angle_beta     89.99976381063395
_cell_angle_gamma    97.44049747106489

_space_group_name_H-M_alt    "P 1"
_space_group_IT_number       1

loop_
  _space_group_symop_operation_xyz
  'x, y, z'

loop_
  _atom_site_type_symbol
  _atom_site_label
  _atom_site_symmetry_multiplicity
  _atom_site_fract_x
  _atom_site_fract_y
  _atom_site_fract_z
  _atom_site_occupancy
  Ni  Ni1       1.0  0.6042844159111667  0.25008745968683854  0.2500002049104352  1.0000
  Ni  Ni2       1.0  0.39576301339081243  0.7499404020371968  0.7500004910643767  1.0000
  Ni  Ni3       1.0  0.34946982238060537  0.24776664618735814  0.2500010140741722  1.0000
  Ni  Ni4       1.0  0.6505783644007863  0.7522502460484262  0.750000221751705  1.0000
  H   H1        1.0  0.6782592223428593  0.1067019258653517  0.07513886760917639  1.0000
  H   H2        1.0  0.3217287658907679  0.8933112887558039  0.5751446666092122  1.0000
  H   H3        1.0  0.32172933038550877  0.8933155517878505  0.9248537306753093  1.0000
  H   H4        1.0  0.6782570607540706  0.10669848228379661  0.4248587286845974  1.0000
  H   H5        1.0  0.742131603734677  0.4470304924195574  0.1340320957073047  1.0000
  H   H6        1.0  0.2578550335448426  0.5529738852536425  0.6340867155102143  1.0000
  H   H7        1.0  0.2578542231329807  0.5529792786423613  0.8659173145598872  1.0000
  H   H8        1.0  0.7421341835141887  0.4470370124869874  0.36596418660327856  1.0000
  H   H9        1.0  0.791226775965974  0.0348839867425284  0.9825439193341411  1.0000
  H   H10       1.0  0.2087653203354379  0.9650861487535637  0.4824929734346454  1.0000
  H   H11       1.0  0.20876549778801498  0.9650879724723114  0.01750914218287389  1.0000
  H   H12       1.0  0.7912270467633887  0.034881420905236396  0.5174548172810133  1.0000
  H   H13       1.0  0.141394779199949  0.3551972370746483  0.2977725680706982  1.0000
  H   H14       1.0  0.8586102911968467  0.6447967479319558  0.797776226561929  1.0000
  H   H15       1.0  0.8586098745515116  0.6447978780781868  0.7022238091519242  1.0000
  H   H16       1.0  0.1413965562860113  0.3551939956646422  0.20222069050928576  1.0000
  H   H17       1.0  0.8922040075748825  0.355494331270897  0.2021221850379931  1.0000
  H   H18       1.0  0.10780772969109623  0.6445074665170125  0.7021247294187487  1.0000
  H   H19       1.0  0.10780802585106392  0.6445057864631989  0.7978704132242456  1.0000
  H   H20       1.0  0.892203160417331  0.3554970317953163  0.29786678914352643  1.0000
  H   H21       1.0  0.3206871472785338  0.38116979805993617  0.05589732191919689  1.0000
  H   H22       1.0  0.6793091887012962  0.6188039892143281  0.5559434748426921  1.0000
  H   H23       1.0  0.6793116687395867  0.6188033149828911  0.9440542477407092  1.0000
  H   H24       1.0  0.3206952112663329  0.38116587895365933  0.4441036483089035  1.0000
  H   H25       1.0  0.2303965164884474  0.06392126151410342  0.11085691991868168  1.0000
  H   H26       1.0  0.7696102828958544  0.9360640988979155  0.6108158736310257  1.0000
  H   H27       1.0  0.7696113812456247  0.9360694910882047  0.8891788663705852  1.0000
  H   H28       1.0  0.23039383869731717  0.06391893810449292  0.38914487347635424  1.0000
  H   H29       1.0  0.7736543901789689  0.5506643984840451  0.045952237267570695  1.0000
  H   H30       1.0  0.22632596606739233  0.44931749104522817  0.5460339464210691  1.0000
  H   H31       1.0  0.22632698158803788  0.4493200895389506  0.9539680210936506  1.0000
  H   H32       1.0  0.7736506317280244  0.5506691511130056  0.45404718732418553  1.0000
  H   H33       1.0  0.11202774265763077  0.2412233459597458  0.13755531387728578  1.0000
  H   H34       1.0  0.8879725069143376  0.7587569987966984  0.6375556379767173  1.0000
  H   H35       1.0  0.8879696904648781  0.7587530479856639  0.8624443024572839  1.0000
  H   H36       1.0  0.11202650892293782  0.24123148233542924  0.36244451820468976  1.0000
  H   H37       1.0  0.08938231477942081  0.15694174162150185  0.18503680055307106  1.0000
  H   H38       1.0  0.9106013615153186  0.8430461080882734  0.6850246356808398  1.0000
  H   H39       1.0  0.910599535348311  0.8430449456730926  0.8149779316039056  1.0000
  H   H40       1.0  0.08937865402646142  0.15694660025382492  0.3149695821670732  1.0000
  H   H41       1.0  0.8416833304689532  0.15762040560491644  0.18534156159877568  1.0000
  H   H42       1.0  0.15830471816787656  0.8423779086189711  0.6853369234832127  1.0000
  H   H43       1.0  0.15830487571455618  0.8423762146779692  0.8146656126463083  1.0000
  H   H44       1.0  0.8416802706588411  0.1576280136264998  0.3146675515125779  1.0000
  H   H45       1.0  0.8627268310845153  0.24196508333475467  0.13766249140731188  1.0000
  H   H46       1.0  0.13727886967856054  0.7580306745511223  0.6376633208446236  1.0000
  H   H47       1.0  0.13727464464128764  0.7580250653241548  0.8623371249209909  1.0000
  H   H48       1.0  0.862726914800973  0.24197926790363772  0.3623368353265021  1.0000
  C   C1        1.0  0.46262193835010385  0.14970487497458151  0.1540365857961277  1.0000
  C   C2        1.0  0.5373970574174436  0.8503140343053419  0.6540381631346149  1.0000
  C   C3        1.0  0.5373981534917078  0.8503178127579291  0.8459592515558965  1.0000
  C   C4        1.0  0.4626167051437162  0.1497036598658994  0.34596577197881817  1.0000
  C   C5        1.0  0.45614039128842887  0.09078442331092869  0.09812862798080597  1.0000
  C   C6        1.0  0.5438436575387514  0.9092259960978314  0.5981231564059114  1.0000
  C   C7        1.0  0.5438473235861707  0.9092292055445768  0.9018736876099139  1.0000
  C   C8        1.0  0.4561379674951381  0.09078373885821381  0.4018716012880859  1.0000
  C   C9        1.0  0.5761451399581219  0.07551303932601879  0.06215342165156559  1.0000
  C   C10       1.0  0.4238365065493215  0.9244946426504163  0.5621557568681723  1.0000
  C   C11       1.0  0.4238385858923835  0.9244967136729161  0.9378429555910088  1.0000
  C   C12       1.0  0.576146381469698  0.07551126155305349  0.4378449391779712  1.0000
  C   C13       1.0  0.6582915714357681  0.4559215500514426  0.09636898923831437  1.0000
  C   C14       1.0  0.34169463185994425  0.5440746203784529  0.5964207353913054  1.0000
  C   C15       1.0  0.34169537197206523  0.5440789010050011  0.9035815007295939  1.0000
  C   C16       1.0  0.6582955820560487  0.45592640752947494  0.40363016672257146  1.0000
  C   C17       1.0  0.6886298375371424  0.0037743703978704995  0.9700945451889352  1.0000
  C   C18       1.0  0.3113713505650395  0.9962178045759911  0.47007306535571297  1.0000
  C   C19       1.0  0.31137154518697946  0.9962201678514544  0.029927204999736997  1.0000
  C   C20       1.0  0.68862754568039  0.0037701267380611998  0.5299038772644522  1.0000
  C   C21       1.0  0.5675662264549501  0.0203569004978306  0.0083352258805718  1.0000
  C   C22       1.0  0.4324103729399127  0.979649681229354  0.508324570470208  1.0000
  C   C23       1.0  0.4324099070852014  0.9796516896879481  0.9916741077765748  1.0000
  C   C24       1.0  0.5675667843214426  0.020353978559676  0.49166370902619844  1.0000
  C   C25       1.0  0.5072055608968356  0.3479218530398072  0.1538351456295217  1.0000
  C   C26       1.0  0.49279960786787314  0.6520865104342164  0.6538541502273174  1.0000
  C   C27       1.0  0.4928007023979858  0.6520902887321044  0.8461493548830532  1.0000
  C   C28       1.0  0.5072157499172719  0.3479240630355278  0.3461670600939897  1.0000
  C   C29       1.0  0.5287507513530798  0.4081867676494326  0.09936368237728739  1.0000
  C   C30       1.0  0.4712292712690882  0.5918148354332259  0.5994027245547568  1.0000
  C   C31       1.0  0.47122931787261996  0.5918158195600897  0.9005992241536871  1.0000
  C   C32       1.0  0.5287583898993091  0.4081889145526246  0.4006363008555667  1.0000
  C   C33       1.0  0.41954240929823783  0.41824292046287326  0.05268564292145329  1.0000
  C   C34       1.0  0.5804506429281063  0.5817445610298507  0.5527287762735043  1.0000
  C   C35       1.0  0.5804532161092482  0.5817444339666552  0.9472707853921346  1.0000
  C   C36       1.0  0.41954381201909285  0.4182422345140537  0.4473151077845186  1.0000
  C   C37       1.0  0.32261392746679  0.05055098501694741  0.0815105640613893  1.0000
  C   C38       1.0  0.6773804698053922  0.9494485598512555  0.5814864439203689  1.0000
  C   C39       1.0  0.6773829481024194  0.9494517465167291  0.9185111861308427  1.0000
  C   C40       1.0  0.3226116058593788  0.0505513864750355  0.41849157840577067  1.0000
  C   C41       1.0  0.6751905972398902  0.5130151064331301  0.047634520132220394  1.0000
  C   C42       1.0  0.3247762095299436  0.48696721425681483  0.5476981953706  1.0000
  C   C43       1.0  0.3247781695182539  0.4869692733215701  0.9523024736005679  1.0000
  C   C44       1.0  0.6751933677475677  0.5130160748125476  0.4523640436232411  1.0000
  C   C45       1.0  0.4347187022879595  0.4756103503013022  0.0012189933967619  1.0000
  C   C46       1.0  0.565254763350765  0.5243671234812054  0.5012783710790598  1.0000
  C   C47       1.0  0.565257962222006  0.5243669628884006  0.9987212394303241  1.0000
  C   C48       1.0  0.4347220203544212  0.4756107394868253  0.4987811686566417  1.0000
  C   C49       1.0  0.06114931631756091  0.21303189624125446  0.18487378738072374  1.0000
  C   C50       1.0  0.9388524576585126  0.7869572066251749  0.6848707567276547  1.0000
  C   C51       1.0  0.938852491673842  0.7869549624714195  0.8151306876000957  1.0000
  C   C52       1.0  0.06115009525850471  0.2130378904829797  0.31512831974851707  1.0000
  C   C53       1.0  0.898567204449911  0.21360798568377956  0.18516982099041  1.0000
  C   C54       1.0  0.10143005992020453  0.7863893102214305  0.6851685584143182  1.0000
  C   C55       1.0  0.10142775620354878  0.7863859486159013  0.8148308750447483  1.0000
  C   C56       1.0  0.8985699669730849  0.2136134483865177  0.31483159776393416  1.0000
  C   C57       1.0  0.0911445064491829  0.3277367315921254  0.24999965552132142  1.0000
  C   C58       1.0  0.9088632985305339  0.6722584106253819  0.7499983412487693  1.0000
  C   C59       1.0  0.9279213574898222  0.327737661322402  0.2499960729939659  1.0000
  C   C60       1.0  0.07208227263402026  0.6722623842365608  0.7499986846782176  1.0000
  N   N1        1.0  0.854719272458489  0.25168410806249863  0.2499999403258641  1.0000
  N   N2        1.0  0.14527958433548355  0.7483180916959995  0.7500002158537028  1.0000
  N   N3        1.0  0.1252105816588411  0.2509048509554361  0.24999963078609264  1.0000
  N   N4        1.0  0.8747920909413908  0.7490907959799384  0.7500005253904048  1.0000
  O   O1        1.0  0.381550864824696  0.3247007498844781  0.1724282646758866  1.0000
  O   O2        1.0  0.6184828438802583  0.6753045518587726  0.6724410588321702  1.0000
  O   O3        1.0  0.6184834934119223  0.6753055963909205  0.8275610944602787  1.0000
  O   O4        1.0  0.381554452906414  0.3247056612451615  0.3275693544607065  1.0000
  O   O5        1.0  0.5859740523016866  0.17610952967886814  0.17734394712346097  1.0000
  O   O6        1.0  0.4140480219680641  0.8239099372161364  0.6773501113887049  1.0000
  O   O7        1.0  0.4140513184091432  0.8239181425931363  0.8226437924682769  1.0000
  O   O8        1.0  0.5859779864654299  0.1761062157330286  0.3226549034125553  1.0000
  O   O9        1.0  0.34642364159671496  0.1693230721123058  0.174458161453984  1.0000
  O   O10       1.0  0.653598815598066  0.8306980466563586  0.6744546405572008  1.0000
  O   O11       1.0  0.6536043747475233  0.830697488479764  0.8255473931947818  1.0000
  O   O12       1.0  0.3464314480523  0.1693280212359625  0.3255465952862622  1.0000
  O   O13       1.0  0.6199211953425277  0.3246115867099205  0.17817471915582664  1.0000
  O   O14       1.0  0.3801085178357439  0.6754189211557672  0.6781917954712355  1.0000
  O   O15       1.0  0.38011134242474026  0.6754249279132406  0.8218141001275825  1.0000
  O   O16       1.0  0.6199251363558318  0.32460827345030924  0.32182617572673416  1.0000
