data_image0
_chemical_formula_structural       Zn4H55C86N16Cl
_chemical_formula_sum              "Zn4 H55 C86 N16 Cl1"
_cell_length_a       18.965766044638983
_cell_length_b       18.817350947029787
_cell_length_c       20.278036745092088
_cell_angle_alpha    107.45621612717451
_cell_angle_beta     105.56600269496441
_cell_angle_gamma    111.42638531077637

_space_group_name_H-M_alt    "P 1"
_space_group_IT_number       1

loop_
  _space_group_symop_operation_xyz
  'x, y, z'

loop_
  _atom_site_type_symbol
  _atom_site_label
  _atom_site_symmetry_multiplicity
  _atom_site_fract_x
  _atom_site_fract_y
  _atom_site_fract_z
  _atom_site_occupancy
  Zn  Zn1       1.0  0.1023118430282466  0.10846500263031092  0.4920605420829888  1.0000
  Zn  Zn2       1.0  0.8910220567651167  0.8918240748107776  0.4978191324774671  1.0000
  Zn  Zn3       1.0  0.008013174361373356  0.9024659402360058  0.40535211381743613  1.0000
  Zn  Zn4       1.0  0.004221314116406879  0.1010882352175102  0.6024340070317252  1.0000
  H   H1        1.0  0.9783425993768446  0.14573977786550782  0.3728428285817529  1.0000
  H   H2        1.0  0.028578035877970403  0.7630975811420342  0.6665241103120894  1.0000
  H   H3        1.0  0.0038816334411605705  0.6600037547060038  0.7201795379268603  1.0000
  H   H4        1.0  0.7442942448258308  0.8815502465073664  0.3702144663846952  1.0000
  H   H5        1.0  0.014436013201709834  0.5346380646090624  0.7262551875381505  1.0000
  H   H6        1.0  0.05666561657341156  0.4262464127832573  0.6815507484529989  1.0000
  H   H7        1.0  0.3089120490610426  0.612443540332535  0.5865812195659503  1.0000
  H   H8        1.0  0.2938438080616876  0.7323465980177063  0.5759136911179327  1.0000
  H   H9        1.0  0.26587322062459146  0.8818868185298924  0.3249364275401661  1.0000
  H   H10       1.0  0.4009727468071347  0.15431352195099626  0.46317111048065135  1.0000
  H   H11       1.0  0.5502200564099909  0.23704313614477  0.49177584562697524  1.0000
  H   H12       1.0  0.9841237805986934  0.8449169659603086  0.6244210904060382  1.0000
  H   H13       1.0  0.6812872906857805  0.23951610075072696  0.49166852305239683  1.0000
  H   H14       1.0  0.75827509657411  0.16053856086308121  0.4669960910040701  1.0000
  H   H15       1.0  0.8862647800429926  0.7132521984177699  0.255599549139056  1.0000
  H   H16       1.0  0.6233397733022272  0.8878400641652744  0.3305444164489374  1.0000
  H   H17       1.0  0.469140254356205  0.8096176000731248  0.27689498588636513  1.0000
  H   H18       1.0  0.33793504839177063  0.8070231310948089  0.2769909952633186  1.0000
  H   H19       1.0  0.2489080390962073  0.09050964954164441  0.8264899657224801  1.0000
  H   H20       1.0  0.6751810923476995  0.5325307194412261  0.29328828996044354  1.0000
  H   H21       1.0  0.4771010095439934  0.2997133744822308  0.048340237398633745  1.0000
  H   H22       1.0  0.515872251443291  0.2696815072850924  0.8260984540095536  1.0000
  H   H23       1.0  0.15752926622909771  0.8755783478656554  0.360533775932531  1.0000
  H   H24       1.0  0.6260858262374498  0.47497718874554096  0.02616031305989713  1.0000
  H   H25       1.0  0.3879139172302501  0.18214602372861316  0.7058034082317377  1.0000
  H   H26       1.0  0.07013793979231757  0.31427700193803787  0.6933204416118812  1.0000
  H   H27       1.0  0.5794661335192473  0.3432465944151701  0.9577382221965963  1.0000
  H   H28       1.0  0.37649741450186985  0.17844015309281502  0.9465450375229025  1.0000
  H   H29       1.0  0.5683857919063939  0.3896053506873542  0.1889814422879112  1.0000
  H   H30       1.0  0.8493713269533744  0.11459591125818491  0.8035576961402456  1.0000
  H   H31       1.0  0.736269975194226  0.8406785364714298  0.6957652407362361  1.0000
  H   H32       1.0  0.7073233983433909  0.9008999420642497  0.9233369484896062  1.0000
  H   H33       1.0  0.8904736975064438  0.15808385158077704  0.13958320353738427  1.0000
  H   H34       1.0  0.9363775281938729  0.12049797327868106  0.7392351866357956  1.0000
  H   H35       1.0  0.8069889470221768  0.10945501168522753  0.9064150567382542  1.0000
  H   H36       1.0  0.9427172193925272  0.1460373630299827  0.257858056143398  1.0000
  H   H37       1.0  0.7204043444836117  0.6962450927969073  0.36758711196480937  1.0000
  H   H38       1.0  0.8175364172428915  0.09585492684777108  0.008422576745374562  1.0000
  H   H39       1.0  0.7009811014018155  0.8937822694443655  0.02996117597266593  1.0000
  H   H40       1.0  0.6926978519686882  0.8354466736388202  0.7987291203746312  1.0000
  H   H41       1.0  0.1682804456826332  0.3088046278772438  0.523488847068414  1.0000
  H   H42       1.0  0.8808205952650425  0.15443275143016416  0.5133891475112834  1.0000
  H   H43       1.0  0.8637048169807074  0.8707463398594157  0.2521141385423178  1.0000
  H   H44       1.0  0.26133035172168206  0.10283322925211989  0.5920091925553379  1.0000
  H   H45       1.0  0.7793003830966329  0.8489157465271547  0.5974649559115975  1.0000
  H   H46       1.0  0.2842549679764517  0.43045335530709394  0.6251358921545249  1.0000
  H   H47       1.0  0.25740413437500115  0.4475397472833294  0.5425445631865105  1.0000
  H   H48       1.0  0.33690211302459977  0.5331144245952545  0.63094768877874  1.0000
  H   H49       1.0  0.7041212250821189  0.6188221774481593  0.06137427555234618  1.0000
  H   H50       1.0  0.7517052359789531  0.6980387538701435  0.15747674458022942  1.0000
  H   H51       1.0  0.8032320072874626  0.6431093542595719  0.12519064871943186  1.0000
  H   H52       1.0  0.2761182793953552  0.1507278867120476  0.45889292931846637  1.0000
  H   H53       1.0  0.13076712719825423  0.08692584089467201  0.7373375125031388  1.0000
  H   H54       1.0  0.14605565790529343  0.8688463170624274  0.5073571863833453  1.0000
  H   H55       1.0  0.21180786881449618  0.8097206874388904  0.573962838356792  1.0000
  C   C1        1.0  0.9594044491428094  0.0784213557315496  0.35274697578376646  1.0000
  C   C2        1.0  0.23561668773366057  0.0827663782651982  0.43664338265286057  1.0000
  C   C3        1.0  0.15124275122515485  0.08797589354539778  0.6923496101034206  1.0000
  C   C4        1.0  0.7888406266776613  0.9475575969502686  0.41059990006878894  1.0000
  C   C5        1.0  0.09997798843978248  0.8681217245239949  0.5297476961949102  1.0000
  C   C6        1.0  0.22928974570461244  0.10216922359610692  0.6917433890282254  1.0000
  C   C7        1.0  0.08339271840387134  0.8402497877572158  0.5837801978779994  1.0000
  C   C8        1.0  0.24959956061622535  0.014561748482478301  0.4048046560589499  1.0000
  C   C9        1.0  0.8383210077904196  0.9828495301497712  0.6900916408896196  1.0000
  C   C10       1.0  0.17833287071024273  0.7767325955535257  0.6009691567942924  1.0000
  C   C11       1.0  0.11543658841191731  0.7919718240973097  0.6152661270026983  1.0000
  C   C12       1.0  0.7791435412120863  0.020637080105117906  0.4263160553095703  1.0000
  C   C13       1.0  0.07631589071196748  0.7509644225987203  0.653127263795014  1.0000
  C   C14       1.0  0.09159631911771277  0.6892032782940236  0.6690312489013339  1.0000
  C   C15       1.0  0.14983489199065053  0.668142823011685  0.6474723518318373  1.0000
  C   C16       1.0  0.8554143995317816  0.7225407909257341  0.29287471119469194  1.0000
  C   C17       1.0  0.19629933787069126  0.7157673347913232  0.6163559530570596  1.0000
  C   C18       1.0  0.045810341973869115  0.6415244283466209  0.7009844386104548  1.0000
  C   C19       1.0  0.05170865818786298  0.5724494200940953  0.7043978685174466  1.0000
  C   C20       1.0  0.10469498941615286  0.5460131755909003  0.6772244586697269  1.0000
  C   C21       1.0  0.15717955778255535  0.5971664768622914  0.6522269529423854  1.0000
  C   C22       1.0  0.21288208145472962  0.5734726089287108  0.6280853799190356  1.0000
  C   C23       1.0  0.7752308628530287  0.6687042815819595  0.2833464846539968  1.0000
  C   C24       1.0  0.26432751595569204  0.6274370527012678  0.6036462295836957  1.0000
  C   C25       1.0  0.25597043233681666  0.6946807764194035  0.5974853793781991  1.0000
  C   C26       1.0  0.10215373154709784  0.46856912591822913  0.6686880667882492  1.0000
  C   C27       1.0  0.1516648180486868  0.441037288102514  0.6393568331442196  1.0000
  C   C28       1.0  0.08994053154620468  0.2987857012734024  0.6478897478853511  1.0000
  C   C29       1.0  0.21243642857689343  0.4968178966993691  0.6245988480807514  1.0000
  C   C30       1.0  0.32363214318395  0.9427482041983807  0.3534505565548968  1.0000
  C   C31       1.0  0.3243446429803925  0.017668268356608504  0.3955062803506024  1.0000
  C   C32       1.0  0.3990371127090668  0.0953698260350393  0.4301130997288781  1.0000
  C   C33       1.0  0.47280257541070375  0.0994616510484434  0.42566586592267436  1.0000
  C   C34       1.0  0.132866678263305  0.3524654106671505  0.6201206135723397  1.0000
  C   C35       1.0  0.4721677170656094  0.0224266824798391  0.385254024651836  1.0000
  C   C36       1.0  0.39584099474551243  0.9433981731081718  0.34770398467099994  1.0000
  C   C37       1.0  0.5501856231908349  0.1779893582794543  0.462383196757294  1.0000
  C   C38       1.0  0.6226934681160685  0.1793871667951379  0.4622657544583859  1.0000
  C   C39       1.0  0.6245858611145962  0.1023033012334054  0.4258499439467229  1.0000
  C   C40       1.0  0.7715393114747969  0.7134900081325242  0.35060204561300173  1.0000
  C   C41       1.0  0.5474549328162653  0.023901153789985596  0.38518812939087615  1.0000
  C   C42       1.0  0.5475203923899484  0.9463737513205784  0.34782065612360213  1.0000
  C   C43       1.0  0.4692158703987418  0.8684860778094433  0.3068943352992904  1.0000
  C   C44       1.0  0.3967157840795323  0.8670371720930206  0.3070060138281648  1.0000
  C   C45       1.0  0.21840025321716183  0.09745552898724703  0.6187777105670734  1.0000
  C   C46       1.0  0.6994943147027615  0.1006611489026241  0.4330105803647444  1.0000
  C   C47       1.0  0.7008088183675412  0.023789472709282212  0.4022818746453183  1.0000
  C   C48       1.0  0.624032763611801  0.9480838350425457  0.35662149855029673  1.0000
  C   C49       1.0  0.30707425961710294  0.1336993557523698  0.7574071069496  1.0000
  C   C50       1.0  0.3073199922719638  0.13030194272340617  0.8260773083912342  1.0000
  C   C51       1.0  0.3795080679317948  0.1800356610022007  0.8940125246559918  1.0000
  C   C52       1.0  0.1410998864844046  0.29668795862247077  0.5623090551846489  1.0000
  C   C53       1.0  0.4552685206344266  0.23575624710822043  0.8966212105184541  1.0000
  C   C54       1.0  0.4572450368770263  0.2296817555921749  0.8261903710318421  1.0000
  C   C55       1.0  0.3849586673388287  0.18012018978503616  0.7582219669317923  1.0000
  C   C56       1.0  0.01736422380613333  0.8555963975117039  0.589306768974268  1.0000
  C   C57       1.0  0.6389385113108688  0.48636042608135455  0.08521606392479701  1.0000
  C   C58       1.0  0.698112728934291  0.5678848458701325  0.14285520628013879  1.0000
  C   C59       1.0  0.6642329730177536  0.5195903571141826  0.2342512811168405  1.0000
  C   C60       1.0  0.6047185120195948  0.43900942585966607  0.1757414989539896  1.0000
  C   C61       1.0  0.5919136748198214  0.41988943392244954  0.09945436262829331  1.0000
  C   C62       1.0  0.5259057772258161  0.306200872451356  0.9663422606581592  1.0000
  C   C63       1.0  0.5281675204654449  0.3365665644991794  0.03694033715227367  1.0000
  C   C64       1.0  0.8584523226195914  0.08659398960045188  0.4834525070026246  1.0000
  C   C65       1.0  0.7124989978939169  0.5850873797559898  0.21974087175430412  1.0000
  C   C66       1.0  0.8539480910638559  0.013471383214103103  0.21375028195440393  1.0000
  C   C67       1.0  0.1751556662129304  0.9426766696261027  0.3861988337405651  1.0000
  C   C68       1.0  0.7824178790565598  0.9449511058483324  0.14773185797078978  1.0000
  C   C69       1.0  0.7541872074762069  0.950235720132824  0.07945810246167898  1.0000
  C   C70       1.0  0.7946830018365603  0.025815739008770305  0.07352707133059509  1.0000
  C   C71       1.0  0.8594249288075845  0.09752441926548272  0.14131087937651898  1.0000
  C   C72       1.0  0.8883418835790309  0.090741601431148  0.20830658691163964  1.0000
  C   C73       1.0  0.7915056963359248  0.0499725950392857  0.8607389403205019  1.0000
  C   C74       1.0  0.8158198346690356  0.0529307471169318  0.8025324959156707  1.0000
  C   C75       1.0  0.751728589252707  0.9000284097279022  0.7416522860813404  1.0000
  C   C76       1.0  0.9003360035740542  0.937956776032948  0.2913251078676284  1.0000
  C   C77       1.0  0.7270199702936253  0.8970236821969239  0.7998261599218497  1.0000
  C   C78       1.0  0.9039448895022205  0.054719548556555295  0.696232993267465  1.0000
  C   C79       1.0  0.7502879716045212  0.9719602652484198  0.8631923047634447  1.0000
  C   C80       1.0  0.7814387446921459  0.031562851457835  0.0017119753057172088  1.0000
  C   C81       1.0  0.741177158164227  0.96593224526422  0.9306307810056753  1.0000
  C   C82       1.0  0.8003304509793877  0.9783482948030482  0.7434888848912423  1.0000
  C   C83       1.0  0.8975436152063523  0.008513208230361604  0.2822178735609455  1.0000
  C   C84       1.0  0.2756713121984689  0.4756866353538883  0.6046081747342953  1.0000
  C   C85       1.0  0.741525542090443  0.6355527813826143  0.12079393203545416  1.0000
  C   C86       1.0  0.8244678669213885  0.916290006415608  0.6244680786479153  1.0000
  N   N1        1.0  0.9959730296339233  0.0510272088093942  0.3983014277833022  1.0000
  N   N2        1.0  0.8958214053098317  0.7927265762212699  0.35989561532916536  1.0000
  N   N3        1.0  0.07431211057270562  0.21861358311122103  0.6099822038700324  1.0000
  N   N4        1.0  0.843537678781111  0.7876229344921556  0.3959059700325015  1.0000
  N   N5        1.0  0.1062893042389064  0.21740656358422683  0.5566125469895483  1.0000
  N   N6        1.0  0.909664824320046  0.054303529354100995  0.5008870910257599  1.0000
  N   N7        1.0  0.959837336577621  0.9649295214961312  0.3605452082926632  1.0000
  N   N8        1.0  0.1408842775815558  0.08336637576312711  0.5805581566319944  1.0000
  N   N9        1.0  0.9963273632587855  0.8883359626301723  0.5414750065223827  1.0000
  N   N10       1.0  0.1218303498427957  0.9664564509482929  0.4053407546756632  1.0000
  N   N11       1.0  0.9269892801225482  0.03258805885721469  0.6393644882979573  1.0000
  N   N12       1.0  0.8772305911308463  0.9461998257768232  0.5944184602633414  1.0000
  N   N13       1.0  0.15938210225726832  0.0537534471069989  0.43661370675311423  1.0000
  N   N14       1.0  0.0996915403277541  0.0776726434455384  0.6257950924257332  1.0000
  N   N15       1.0  0.04691971933589652  0.8958937511640952  0.5046998305532213  1.0000
  N   N16       1.0  0.8667923759561802  0.9686994229971049  0.4562182097564574  1.0000
  Cl  Cl1       1.0  0.7257885314638699  0.8485912721319976  0.14829860805969736  1.0000
