data_image0
_chemical_formula_structural       Zn2H52C74N4O40
_chemical_formula_sum              "Zn2 H52 C74 N4 O40"
_cell_length_a       14.897414758939073
_cell_length_b       15.014598171523987
_cell_length_c       22.429078307741907
_cell_angle_alpha    90.8922153428026
_cell_angle_beta     73.46164218378865
_cell_angle_gamma    82.70560222091366

_space_group_name_H-M_alt    "P 1"
_space_group_IT_number       1

loop_
  _space_group_symop_operation_xyz
  'x, y, z'

loop_
  _atom_site_type_symbol
  _atom_site_label
  _atom_site_symmetry_multiplicity
  _atom_site_fract_x
  _atom_site_fract_y
  _atom_site_fract_z
  _atom_site_occupancy
  Zn  Zn1       1.0  0.6086147419291806  0.5022250063008329  0.4659058276076494  1.0000
  Zn  Zn2       1.0  0.37297349745605873  0.44523754521307524  0.5388406837811034  1.0000
  H   H1        1.0  0.6750075487497044  0.6703902528829886  0.4527815037095594  1.0000
  H   H2        1.0  0.18599729389644895  0.8762865157643986  0.735220086198588  1.0000
  H   H3        1.0  0.16246563375651848  0.7695702711118956  0.7089205579509043  1.0000
  H   H4        1.0  0.07286878172921264  0.865833967846335  0.7243644257815233  1.0000
  H   H5        1.0  0.5289636550987425  0.8066567047272316  0.6334074616299219  1.0000
  H   H6        1.0  0.6452045200556357  0.8043026145724214  0.6423601984787555  1.0000
  H   H7        1.0  0.6162967987846314  0.7110993666999763  0.6039718197841922  1.0000
  H   H8        1.0  0.44978086967074654  0.23268436399881415  0.6292656770386105  1.0000
  H   H9        1.0  0.486572262014981  0.13360718423995624  0.6649490355207207  1.0000
  H   H10       1.0  0.3908382261031064  0.21531844612022158  0.708756697829358  1.0000
  H   H11       1.0  0.8478356925888378  0.394885353051933  0.7174701693534618  1.0000
  H   H12       1.0  0.2644270928584119  0.3286095059090926  0.6312681407635028  1.0000
  H   H13       1.0  0.041205638462741945  0.7547164992443173  0.4811331088620039  1.0000
  H   H14       1.0  0.8206812365144317  0.39058052346823063  0.5396587970721926  1.0000
  H   H15       1.0  0.16788462253105513  0.5290931601476672  0.4703421952247383  1.0000
  H   H16       1.0  0.14725008428601435  0.2596276374530079  0.6885791148724324  1.0000
  H   H17       1.0  0.7587587485887398  0.7898048556470697  0.4493919026618941  1.0000
  H   H18       1.0  0.9892356425738742  0.39121183884131483  0.8589462019468855  1.0000
  H   H19       1.0  0.994937977478479  0.48257879704972595  0.8074421437877891  1.0000
  H   H20       1.0  0.00893759551819071  0.3690194624861078  0.7765800389505986  1.0000
  H   H21       1.0  0.47866422209031606  0.790584647361655  0.128931296631727  1.0000
  H   H22       1.0  0.44546201577966116  0.7033663531632328  0.08786529478237536  1.0000
  H   H23       1.0  0.8112306008150797  0.4385514207694783  0.6244889245008383  1.0000
  H   H24       1.0  0.3827106397804131  0.81565133274421  0.09460315290168354  1.0000
  H   H25       1.0  0.40264483197667295  0.5287609903215583  0.8724495307617918  1.0000
  H   H26       1.0  0.8647834377573388  0.5394866299917069  0.18168625923392076  1.0000
  H   H27       1.0  0.3137952417789904  0.457197099708921  0.771168788500056  1.0000
  H   H28       1.0  0.7495034580039573  0.5126354573789343  0.3186321119196408  1.0000
  H   H29       1.0  0.5307655813102415  0.4571727525762342  0.5903989239683797  1.0000
  H   H30       1.0  0.44846444980842654  0.5346681198182353  0.3216114137836287  1.0000
  H   H31       1.0  0.6886075508393572  0.5578748368225066  0.613638730075998  1.0000
  H   H32       1.0  0.44447919338034575  0.5616042751880247  0.183541194332804  1.0000
  H   H33       1.0  0.7945397881702051  0.8252437443231316  0.5607580031721683  1.0000
  H   H34       1.0  0.09516758582042685  0.6318826735652933  0.518083145633213  1.0000
  H   H35       1.0  0.7440382202180232  0.9222553902749981  0.6132993160810188  1.0000
  H   H36       1.0  0.8631684318643452  0.9138558833196272  0.5632883196294501  1.0000
  H   H37       1.0  0.129282687545107  0.03431474375972951  0.6410523478430933  1.0000
  H   H38       1.0  0.19203208671386562  0.1294669083349334  0.6389790241734945  1.0000
  H   H39       1.0  0.11468773196453706  0.10029959759405933  0.7114628472158133  1.0000
  H   H40       1.0  0.5843808424591544  0.7597948672536248  0.3866705879697322  1.0000
  H   H41       1.0  0.46696120360454074  0.8193421092130038  0.41444077611645025  1.0000
  H   H42       1.0  0.4877230017264156  0.6990572926187326  0.41945192688668714  1.0000
  H   H43       1.0  0.3724986958474049  0.11309641830015242  0.4767742770696942  1.0000
  H   H44       1.0  0.38937036614049697  0.2229560139607258  0.44683483820395525  1.0000
  H   H45       1.0  0.8462701674164779  0.3997342523157528  0.9925978976464622  1.0000
  H   H46       1.0  0.2872001181861421  0.209538766746043  0.509922049964523  1.0000
  H   H47       1.0  0.2662004509753119  0.6401933077151654  0.576080417724697  1.0000
  H   H48       1.0  0.7835047430006626  0.20444654298442802  0.40710178662075  1.0000
  H   H49       1.0  0.4836380345974618  0.8419628916951823  0.9595279477634124  1.0000
  H   H50       1.0  0.8385726409443423  0.0720030376766303  0.5280071365776922  1.0000
  H   H51       1.0  0.8414058390724934  0.182165373664283  0.4976538771270782  1.0000
  H   H52       1.0  0.9264459967860078  0.08899818277227209  0.4570028903404336  1.0000
  C   C1        1.0  0.5347697571545356  0.329135485717039  0.4802532129163312  1.0000
  C   C2        1.0  0.5453375100321622  0.5430853533671823  0.24726156858024956  1.0000
  C   C3        1.0  0.6046238787225919  0.5448172702496166  0.6925876915643698  1.0000
  C   C4        1.0  0.5719891140039054  0.5556071441505496  0.18345471535938884  1.0000
  C   C5        1.0  0.5782995742044791  0.5558766664711358  0.7572847656079775  1.0000
  C   C6        1.0  0.6673208831345151  0.558255274026422  0.15137875280571933  1.0000
  C   C7        1.0  0.5663936606887319  0.23217960910184846  0.4834275508357848  1.0000
  C   C8        1.0  0.3922489389959765  0.7267931026705841  0.5464091454255711  1.0000
  C   C9        1.0  0.6982197205688719  0.11372604204606061  0.4758932644259988  1.0000
  C   C10       1.0  0.2724743194569684  0.8427950023487228  0.6130499662042939  1.0000
  C   C11       1.0  0.6637715222004844  0.19870297092714403  0.4612690281279655  1.0000
  C   C12       1.0  0.42429760736323635  0.6309687319650551  0.5264856878688491  1.0000
  C   C13       1.0  0.2989363815343395  0.754843291131735  0.5868415416956483  1.0000
  C   C14       1.0  0.5042330130206878  0.17557879688872194  0.5172523452538941  1.0000
  C   C15       1.0  0.4550496014920214  0.7914550566468678  0.5315165995278194  1.0000
  C   C16       1.0  0.3952133878518466  0.44346552589895094  0.6692035123801364  1.0000
  C   C17       1.0  0.5841355656071697  0.5211876289306119  0.3468698001576487  1.0000
  C   C18       1.0  0.5372910030310863  0.089777534315985  0.5345404334074432  1.0000
  C   C19       1.0  0.43488977041107546  0.8756716937846819  0.5652169326012101  1.0000
  C   C20       1.0  0.6369924145866434  0.05725987750034281  0.5117690638809764  1.0000
  C   C21       1.0  0.3398841975773479  0.9039016304049455  0.6041006275286948  1.0000
  C   C22       1.0  0.4728592967207846  0.030601595131365407  0.5678853013077615  1.0000
  C   C23       1.0  0.4906404634927809  0.5343405122829736  0.7932280321281557  1.0000
  C   C24       1.0  0.5038760846261497  0.9368808471042557  0.5569928819437494  1.0000
  C   C25       1.0  0.6033874824052177  0.9078599303653265  0.5442738824596491  1.0000
  C   C26       1.0  0.38259139644186047  0.055872121469555204  0.6135854684821853  1.0000
  C   C27       1.0  0.6685178466051341  0.9679638350184804  0.5262969282554553  1.0000
  C   C28       1.0  0.31932937279409407  0.9933870102568393  0.6319170153254918  1.0000
  C   C29       1.0  0.1158980075108431  0.3519857696664489  0.6372603948172468  1.0000
  C   C30       1.0  0.8094497134325991  0.6749190545236419  0.4698913420440648  1.0000
  C   C31       1.0  0.20988288218649842  0.36298801287954063  0.6129223772142895  1.0000
  C   C32       1.0  0.7317150765197767  0.6344459105610342  0.46842628877030285  1.0000
  C   C33       1.0  0.1766996463266041  0.46284168494555195  0.5414538847506095  1.0000
  C   C34       1.0  0.7370248824964633  0.5463846707597142  0.18233281497738582  1.0000
  C   C35       1.0  0.7831331476712718  0.5045652033249014  0.5110528071577749  1.0000
  C   C36       1.0  0.07787050849886876  0.46443285203762485  0.5673400313602459  1.0000
  C   C37       1.0  0.8593648143247208  0.5442124724737313  0.5221892767459553  1.0000
  C   C38       1.0  0.0461565954004968  0.40414133213540987  0.6152876249261612  1.0000
  C   C39       1.0  0.8785385088827057  0.627960710115751  0.49508724777722096  1.0000
  C   C40       1.0  0.6484787664725361  0.6612288657771189  0.07222322807690061  1.0000
  C   C41       1.0  0.7148032628844659  0.5246538917309991  0.7961567500657482  1.0000
  C   C42       1.0  0.01135503860074042  0.522207089287491  0.5447016399693326  1.0000
  C   C43       1.0  0.9190102413027079  0.49925074917052836  0.5564047899287845  1.0000
  C   C44       1.0  0.8868360899758727  0.44127829808662256  0.6053279803438514  1.0000
  C   C45       1.0  0.42981455708162736  0.49974096036527993  0.7643468204878519  1.0000
  C   C46       1.0  0.031306816293138716  0.6044122248649872  0.516381712288002  1.0000
  C   C47       1.0  0.9454562902668827  0.4027457212917015  0.6390599163925685  1.0000
  C   C48       1.0  0.9652521905666377  0.6592453760981627  0.4962505538248226  1.0000
  C   C49       1.0  0.7451228069046325  0.5118227690341401  0.04208101783815719  1.0000
  C   C50       1.0  0.6054623253145337  0.6704091323249133  0.8245076479224667  1.0000
  C   C51       1.0  0.7530890950650574  0.5297446071246484  0.9772258263306955  1.0000
  C   C52       1.0  0.6249363251666012  0.6749444900267181  0.8848942954281258  1.0000
  C   C53       1.0  0.6936412683770288  0.601514288356924  0.9617832656050641  1.0000
  C   C54       1.0  0.6869283023000533  0.6047394326896337  0.9000056642581742  1.0000
  C   C55       1.0  0.6377196976519245  0.6666256109969383  0.009039205316334231  1.0000
  C   C56       1.0  0.7106300729553966  0.5313497687789166  0.24613089491824527  1.0000
  C   C57       1.0  0.7428836133363816  0.5376695789328282  0.8535509462004429  1.0000
  C   C58       1.0  0.8133816912432651  0.4683244228820413  0.9307726726825225  1.0000
  C   C59       1.0  0.5735647091818805  0.7413159239568474  0.9305576289932421  1.0000
  C   C60       1.0  0.8133021344379967  0.4767826830824192  0.8671070551860968  1.0000
  C   C61       1.0  0.5768464347348256  0.7348085706690103  0.9934535844171468  1.0000
  C   C62       1.0  0.8532540459161454  0.1093327940258035  0.4853924922969456  1.0000
  C   C63       1.0  0.14904345776599834  0.8430510068319637  0.7069954201275623  1.0000
  C   C64       1.0  0.6044386035355559  0.7843237995857849  0.6116494370035569  1.0000
  C   C65       1.0  0.42583754504391896  0.1818634252970384  0.6626726440901721  1.0000
  C   C66       1.0  0.9734523199729851  0.4154740803805695  0.8167467533861841  1.0000
  C   C67       1.0  0.45788869607687144  0.48331855855303735  0.6989955297960863  1.0000
  C   C68       1.0  0.4513044158577983  0.7754032401921266  0.0900965172698492  1.0000
  C   C69       1.0  0.7918670044903209  0.8980551745346547  0.5672276615577091  1.0000
  C   C70       1.0  0.16486552068543156  0.0738156895576552  0.6668897519487447  1.0000
  C   C71       1.0  0.516011320518274  0.7625573542629311  0.4223104297625755  1.0000
  C   C72       1.0  0.3625467434325174  0.18587605356343326  0.4886415224753123  1.0000
  C   C73       1.0  0.6146561710552663  0.5309017824558638  0.2793921611255428  1.0000
  C   C74       1.0  0.5460136607755219  0.5060097756479252  0.6639079161865028  1.0000
  N   N1        1.0  0.6888363536347485  0.5759362227223478  0.08674481775836544  1.0000
  N   N2        1.0  0.6385981679680556  0.5854010145152273  0.7908021358346108  1.0000
  N   N3        1.0  0.23922057583421016  0.4169573674831001  0.5653703794450423  1.0000
  N   N4        1.0  0.7212526552752934  0.5492746996254  0.48583140539506803  1.0000
  O   O1        1.0  0.5930063889184468  0.3806165935547341  0.48790196777873973  1.0000
  O   O2        1.0  0.7464949076260512  0.4604202276464378  0.7570514244944634  1.0000
  O   O3        1.0  0.7851885226413631  0.44105155891566733  0.0574529887422983  1.0000
  O   O4        1.0  0.5594761572067669  0.728815320122024  0.8036679595762453  1.0000
  O   O5        1.0  0.866842998477729  0.3978169573619824  0.94467502979569  1.0000
  O   O6        1.0  0.5146382690121173  0.8097999541657331  0.9187305358218085  1.0000
  O   O7        1.0  0.7942440721724466  0.08746486176466563  0.4476351314296566  1.0000
  O   O8        1.0  0.17831282366996254  0.8694934766677136  0.6436064159875557  1.0000
  O   O9        1.0  0.6379029845865534  0.8206325301044616  0.5511595168306445  1.0000
  O   O10       1.0  0.35556591109145336  0.13666983899943116  0.6466904826886976  1.0000
  O   O11       1.0  0.9126396857835318  0.3651467980805593  0.6933706675166392  1.0000
  O   O12       1.0  0.35957221007033985  0.5777517263996688  0.5360437277501903  1.0000
  O   O13       1.0  0.9805827499028367  0.7428072810815038  0.4765479523734301  1.0000
  O   O14       1.0  0.7715354249247073  0.4179560513912649  0.5218370528817645  1.0000
  O   O15       1.0  0.21678279045681145  0.5044074422449825  0.4891735331563752  1.0000
  O   O16       1.0  0.09007956860324379  0.2915624370992234  0.681579048824773  1.0000
  O   O17       1.0  0.8207162942631073  0.7578264558193412  0.44802576138389594  1.0000
  O   O18       1.0  0.8736083111906721  0.42005506600379766  0.8219148050702504  1.0000
  O   O19       1.0  0.514354326226247  0.7997787827102343  0.032330166274789546  1.0000
  O   O20       1.0  0.46574953650854684  0.5465452061126825  0.8568360054276668  1.0000
  O   O21       1.0  0.8293473093712792  0.5515878581606516  0.15138013778455678  1.0000
  O   O22       1.0  0.34554609844153117  0.4810752065332623  0.8014673347404727  1.0000
  O   O23       1.0  0.4525005749097629  0.35638670186299504  0.4752759200055723  1.0000
  O   O24       1.0  0.7819660295505672  0.5198426751221136  0.2734215581788321  1.0000
  O   O25       1.0  0.5793386602239894  0.4908081886368835  0.6011382566049904  1.0000
  O   O26       1.0  0.451534165590985  0.5435353587114095  0.27611693500789875  1.0000
  O   O27       1.0  0.687767922992073  0.5700032863431589  0.656837638311963  1.0000
  O   O28       1.0  0.5044946140412279  0.5666522433413802  0.15228430911678714  1.0000
  O   O29       1.0  0.7631420223824961  0.9450701491334003  0.5187569416170847  1.0000
  O   O30       1.0  0.23995482710385826  0.017256081165641004  0.6814212143411924  1.0000
  O   O31       1.0  0.5345417919968369  0.7776015980148473  0.4811658277805791  1.0000
  O   O32       1.0  0.40854131078791056  0.20398351796786332  0.5350203216663234  1.0000
  O   O33       1.0  0.23245968710682527  0.6986423820548425  0.5988514232484123  1.0000
  O   O34       1.0  0.5116732299722457  0.6040591932525743  0.5049279770693788  1.0000
  O   O35       1.0  0.7246857405225456  0.2467271069605844  0.42225390406395064  1.0000
  O   O36       1.0  0.42916762455801216  0.4242274227762408  0.6087354953313808  1.0000
  O   O37       1.0  0.4979199749762344  0.52303516339164  0.3763116065176889  1.0000
  O   O38       1.0  0.314780290628221  0.42766842779117553  0.7008043459335626  1.0000
  O   O39       1.0  0.6508956879810415  0.5121979439905646  0.3749387352171852  1.0000
  O   O40       1.0  0.6246155316283933  0.7235581900318453  0.11193693722828614  1.0000
