data_image0
_chemical_formula_structural       Al4H12C48O20F16
_chemical_formula_sum              "Al4 H12 C48 O20 F16"
_cell_length_a       6.6647159650143415
_cell_length_b       20.920574429502285
_cell_length_c       23.47102106155582
_cell_angle_alpha    103.23256323982248
_cell_angle_beta     89.99981031427211
_cell_angle_gamma    90.00013050261045

_space_group_name_H-M_alt    "P 1"
_space_group_IT_number       1

loop_
  _space_group_symop_operation_xyz
  'x, y, z'

loop_
  _atom_site_type_symbol
  _atom_site_label
  _atom_site_symmetry_multiplicity
  _atom_site_fract_x
  _atom_site_fract_y
  _atom_site_fract_z
  _atom_site_occupancy
  Al  Al1       1.0  0.7155129555729757  0.24851703460844027  0.7490531109753534  1.0000
  Al  Al2       1.0  0.28449194200866396  0.7514846339818322  0.2509482681849988  1.0000
  Al  Al3       1.0  0.21551415355052936  0.2514853559081729  0.7509477534199076  1.0000
  Al  Al4       1.0  0.7844832418268339  0.7485168543439613  0.24905581405558042  1.0000
  H   H1        1.0  0.3372053753247073  0.5183063178086159  0.3987239013946535  1.0000
  H   H2        1.0  0.662793520498269  0.48169321836824963  0.6012765875617845  1.0000
  H   H3        1.0  0.8372161626787358  0.981683715991082  0.10127043047171466  1.0000
  H   H4        1.0  0.16277973226127074  0.01831497064465283  0.8987304887073647  1.0000
  H   H5        1.0  0.24322134949801466  0.40610548352628956  0.5319728924759771  1.0000
  H   H6        1.0  0.7567745454685806  0.5938967552089596  0.4680249965520317  1.0000
  H   H7        1.0  0.7432169732487423  0.0938996873004499  0.9680275297208283  1.0000
  H   H8        1.0  0.2567729199498173  0.9061015479546344  0.0319720987976098  1.0000
  H   H9        1.0  0.470062436161811  0.33103528181445097  0.7425081250476065  1.0000
  H   H10       1.0  0.529942461422209  0.6689651039043696  0.25749193368474005  1.0000
  H   H11       1.0  0.9700561357978398  0.16896783400095222  0.7574929339583604  1.0000
  H   H12       1.0  0.029950262219763595  0.8310328767166199  0.24250843776015069  1.0000
  C   C1        1.0  0.464419916046296  0.17907773412370892  0.8181417167261953  1.0000
  C   C2        1.0  0.5355759789040703  0.8209214770540073  0.18185745924480293  1.0000
  C   C3        1.0  0.9644393613921878  0.32092435803852476  0.6818571557054509  1.0000
  C   C4        1.0  0.03556703662779629  0.6790750698076025  0.3181428955850549  1.0000
  C   C5        1.0  0.4618893960368666  0.16271090665494375  0.6621586854300006  1.0000
  C   C6        1.0  0.5381079993589707  0.8372896330000615  0.3378400640396463  1.0000
  C   C7        1.0  0.9618983974678628  0.3372906424683678  0.837838001148455  1.0000
  C   C8        1.0  0.038104999680193395  0.6627107011231601  0.1621620650257327  1.0000
  C   C9        1.0  0.0466080842672341  0.6116926718756022  0.10925988222187749  1.0000
  C   C10       1.0  0.9533818089190046  0.38831214972282174  0.890744579184627  1.0000
  C   C11       1.0  0.5466258952130899  0.8883177416520169  0.39074624824419135  1.0000
  C   C12       1.0  0.4533775019230788  0.11169001629672694  0.6092604200700507  1.0000
  C   C13       1.0  0.07780686044380047  0.5154975044768123  0.0165238203190654  1.0000
  C   C14       1.0  0.9221965366874727  0.4845019860958432  0.9834784155638301  1.0000
  C   C15       1.0  0.5778123733845105  0.984521541062918  0.48346880538963427  1.0000
  C   C16       1.0  0.42218202112457687  0.015482368269054797  0.5165339016449337  1.0000
  C   C17       1.0  0.9399603118102604  0.4331008828235882  0.9341944962361453  1.0000
  C   C18       1.0  0.060058089715155895  0.5669018063707939  0.06580907494971198  1.0000
  C   C19       1.0  0.43995314372205735  0.06689183976281046  0.565818742321845  1.0000
  C   C20       1.0  0.5600607565170321  0.9331055924898805  0.4341751779722926  1.0000
  C   C21       1.0  0.039098719236569886  0.6346513443365681  0.35975267763181756  1.0000
  C   C22       1.0  0.96090317747484  0.3653487163831032  0.6402460681150898  1.0000
  C   C23       1.0  0.5390933588930764  0.8653420514240225  0.14024459154227736  1.0000
  C   C24       1.0  0.4609070373746746  0.1346565724855822  0.8597541430436875  1.0000
  C   C25       1.0  0.8827578727268133  0.6321288047889625  0.39955455902894943  1.0000
  C   C26       1.0  0.11723952267517747  0.36787365061225336  0.6004442053229225  1.0000
  C   C27       1.0  0.3827598204962185  0.8678671720083035  0.10044239558025228  1.0000
  C   C28       1.0  0.6172360744526058  0.13213156023285688  0.8995567766701882  1.0000
  C   C29       1.0  0.8836608110732483  0.5916489507684872  0.43872432176891607  1.0000
  C   C30       1.0  0.11633358344885637  0.40835361296469597  0.5612748802467136  1.0000
  C   C31       1.0  0.383654408115042  0.9083476137854803  0.0612730733518347  1.0000
  C   C32       1.0  0.6163399863936192  0.09165346753260913  0.9387278644307597  1.0000
  C   C33       1.0  0.048492296036798194  0.5497077592536217  0.4395324633973913  1.0000
  C   C34       1.0  0.9515035989233596  0.4502931510047503  0.5604658521312372  1.0000
  C   C35       1.0  0.5484942814730118  0.950284991606026  0.06046217069263799  1.0000
  C   C36       1.0  0.45150311391890335  0.04971635198386793  0.9395378954844557  1.0000
  C   C37       1.0  0.20783011588815725  0.5502313263375813  0.4002024936985364  1.0000
  C   C38       1.0  0.7921672795009584  0.4497684721098807  0.5997971236545964  1.0000
  C   C39       1.0  0.7078302072357942  0.9497608153216535  0.09979110687547178  1.0000
  C   C40       1.0  0.29216118638863964  0.050238350249408426  0.9002098160263471  1.0000
  C   C41       1.0  0.20001915451916824  0.5918017614720696  0.3620900129319011  1.0000
  C   C42       1.0  0.799978240880307  0.40819856151737366  0.6379078612131436  1.0000
  C   C43       1.0  0.7000275999916139  0.9081887224786557  0.13790270872420504  1.0000
  C   C44       1.0  0.299972796281878  0.09180898916328317  0.8620942714920045  1.0000
  C   C45       1.0  0.0637979353265195  0.5054570089817717  0.47892497096361797  1.0000
  C   C46       1.0  0.9361934583121964  0.494541877196383  0.5210728920226656  1.0000
  C   C47       1.0  0.5638005993962096  0.9945384242533353  0.0210727268061817  1.0000
  C   C48       1.0  0.4361937951088208  0.005462873730316191  0.9789290863010078  1.0000
  O   O1        1.0  0.2925813135097712  0.1831431750356671  0.684037093608218  1.0000
  O   O2        1.0  0.7074205831851257  0.8168544453958053  0.31596338046454514  1.0000
  O   O3        1.0  0.7925723938460505  0.31685303109394175  0.8159636477099425  1.0000
  O   O4        1.0  0.20742950283919007  0.6831463055400918  0.18403989744001586  1.0000
  O   O5        1.0  0.6347708972256072  0.19295321684298028  0.7998981480380889  1.0000
  O   O6        1.0  0.3652309994781006  0.8070444491939243  0.20010057910602796  1.0000
  O   O7        1.0  0.13476395844694616  0.3070438729479221  0.7000931437434729  1.0000
  O   O8        1.0  0.865246940895595  0.6929552299010807  0.29990559455795557  1.0000
  O   O9        1.0  0.6355801803121109  0.18094666759719058  0.6818851204339892  1.0000
  O   O10       1.0  0.364421716392016  0.8190538264535975  0.3181153759621082  1.0000
  O   O11       1.0  0.13558265173893597  0.3190592601586246  0.8181071128530704  1.0000
  O   O12       1.0  0.8644297480566365  0.680940150567217  0.1818890069149575  1.0000
  O   O13       1.0  0.7956743452204192  0.30121026275526225  0.6960833562187289  1.0000
  O   O14       1.0  0.20433205280571795  0.6987910808370758  0.3039167099540022  1.0000
  O   O15       1.0  0.29568667844498714  0.19879639045063158  0.8039209578000805  1.0000
  O   O16       1.0  0.704316718697903  0.801204690869895  0.19607997997814408  1.0000
  O   O17       1.0  0.4669548359581128  0.28911194393025863  0.7535218798113945  1.0000
  O   O18       1.0  0.533047060743641  0.710889832991974  0.2464799370127153  1.0000
  O   O19       1.0  0.9669474170757864  0.2108910618669384  0.7464787445455129  1.0000
  O   O20       1.0  0.03305447962232219  0.7891109317208562  0.25352394760319186  1.0000
  F   F1        1.0  0.7332312322124253  0.5056746610506837  0.9998219509347024  1.0000
  F   F2        1.0  0.26680217367663056  0.4943210607650315  0.00018243976013110092  1.0000
  F   F3        1.0  0.23322749449932445  0.9942515322590069  0.5002376635023892  1.0000
  F   F4        1.0  0.7667894065930695  0.005749657397963401  0.4997637119315924  1.0000
  F   F5        1.0  0.7226071321076402  0.672316568948965  0.4016328966845392  1.0000
  F   F6        1.0  0.27739626505315573  0.32768401631309985  0.5983641058535625  1.0000
  F   F7        1.0  0.22259833608811158  0.8276791499422417  0.09836159093653409  1.0000
  F   F8        1.0  0.7773915571157628  0.17231834503128604  0.9016345139601751  1.0000
  F   F9        1.0  0.6443255198028195  0.4116144412881795  0.675687577985087  1.0000
  F   F10       1.0  0.35566887471172487  0.5883817252096862  0.32430895341006044  1.0000
  F   F11       1.0  0.1443249291730311  0.08839067591252107  0.8243129400855196  1.0000
  F   F12       1.0  0.855673966658351  0.9116060778558934  0.17568403269029886  1.0000
  F   F13       1.0  0.7631584096593754  0.5307807539939376  0.5282283043147158  1.0000
  F   F14       1.0  0.23682698222011567  0.4692171743094919  0.4717695512333648  1.0000
  F   F15       1.0  0.2631468289777316  0.9692262188399287  0.9717790532040026  1.0000
  F   F16       1.0  0.7368475655214224  0.0307725761281787  0.028222303638102596  1.0000
