data_image0
_chemical_formula_structural       Cd6H16C28S12N20O4
_chemical_formula_sum              "Cd6 H16 C28 S12 N20 O4"
_cell_length_a       11.157908067421502
_cell_length_b       11.157965355443851
_cell_length_c       12.866853322233021
_cell_angle_alpha    115.43065457012848
_cell_angle_beta     115.4302421503668
_cell_angle_gamma    90.53573682849397

_space_group_name_H-M_alt    "P 1"
_space_group_IT_number       1

loop_
  _space_group_symop_operation_xyz
  'x, y, z'

loop_
  _atom_site_type_symbol
  _atom_site_label
  _atom_site_symmetry_multiplicity
  _atom_site_fract_x
  _atom_site_fract_y
  _atom_site_fract_z
  _atom_site_occupancy
  Cd  Cd1       1.0  0.9770062446849292  0.47697358695091185  0.499812292996019  1.0000
  Cd  Cd2       1.0  0.7269664925855748  0.7270066413724693  0.9998050524124127  1.0000
  Cd  Cd3       1.0  0.41901339497575657  0.13660845662872137  0.6089443828209157  1.0000
  Cd  Cd4       1.0  0.5280312594422938  0.8100363220609312  0.3910870845090885  1.0000
  Cd  Cd5       1.0  0.06003331043577019  0.2780325018414587  0.8910851260638639  1.0000
  Cd  Cd6       1.0  0.38660755020066506  0.169012715559461  0.10894187298026739  1.0000
  H   H1        1.0  0.8056630692640495  0.04970136886804971  0.5480913252798417  1.0000
  H   H2        1.0  0.5019920772381993  0.2571061980113285  0.45201935106832286  1.0000
  H   H3        1.0  0.5071092677678948  0.2519892515554716  0.9520214714915626  1.0000
  H   H4        1.0  0.29970235710693055  0.5556588673429915  0.04809232175169594  1.0000
  H   H5        1.0  0.9635525913500516  0.20565499307737406  0.5395861857355655  1.0000
  H   H6        1.0  0.6662772487933137  0.42359055990247185  0.46052007819798035  1.0000
  H   H7        1.0  0.673594566742274  0.41627456003202923  0.9605194747661658  1.0000
  H   H8        1.0  0.4556569238720698  0.7135477003818808  0.03958961405566435  1.0000
  H   H9        1.0  0.46563591769570695  0.7353101251995613  0.5990957704127242  1.0000
  H   H10       1.0  0.13628226330617826  0.8666545721057803  0.4008035242345829  1.0000
  H   H11       1.0  0.11666266977858451  0.8862819075138905  0.9008045971673798  1.0000
  H   H12       1.0  0.9853129033599116  0.21563583260734026  0.09909431790782008  1.0000
  H   H13       1.0  0.3030631876780703  0.572024101274714  0.5973191930077351  1.0000
  H   H14       1.0  0.9745649972680823  0.7056418482893748  0.40217884389701203  1.0000
  H   H15       1.0  0.9556475974645905  0.7245628574423224  0.9021768460476879  1.0000
  H   H16       1.0  0.8220277077152289  0.05306321111574163  0.0973188635502782  1.0000
  C   C1        1.0  0.7761921164869675  0.1313540086184162  0.5252436151710713  1.0000
  C   C2        1.0  0.6065155208808619  0.25060155047621185  0.4749501898909899  1.0000
  C   C3        1.0  0.500602047846506  0.35651525690957436  0.9749511670826936  1.0000
  C   C4        1.0  0.3813558788973239  0.5261935785205767  0.0252450392494695  1.0000
  C   C5        1.0  0.861516011111938  0.2194123935323945  0.5223796108812665  1.0000
  C   C6        1.0  0.6973467794055566  0.3388234044474531  0.47777593123726825  1.0000
  C   C7        1.0  0.5888250573327554  0.4473451032381917  0.9777783786713672  1.0000
  C   C8        1.0  0.4694109537489481  0.6115151229408939  0.022382060532670934  1.0000
  C   C9        1.0  0.3557621834858722  0.7252123618133696  0.5555435699064405  1.0000
  C   C10       1.0  0.16966972042389733  0.800216065438157  0.4442532592947332  1.0000
  C   C11       1.0  0.05022325365307985  0.9196719433258382  0.9442529851608868  1.0000
  C   C12       1.0  0.9752170327320682  0.10575922433341134  0.05554138486620267  1.0000
  C   C13       1.0  0.2651940179065377  0.6375929797893464  0.5534359264657739  1.0000
  C   C14       1.0  0.08401517632504613  0.7115838973160181  0.4461082275669456  1.0000
  C   C15       1.0  0.9615880877905381  0.8340161657321876  0.9461077860042268  1.0000
  C   C16       1.0  0.8875942190462851  0.015192965508198606  0.05343628088442646  1.0000
  C   C17       1.0  0.7381809501543869  0.1574860550790191  0.8136877183748938  1.0000
  C   C18       1.0  0.3438879900492182  0.9247385214538472  0.1866891036927216  1.0000
  C   C19       1.0  0.1747379088994521  0.09389143844425972  0.6866916007403888  1.0000
  C   C20       1.0  0.40748267667330396  0.48818152692488337  0.3136796606195632  1.0000
  C   C21       1.0  0.15883972934640408  0.23419827137149707  0.4440380269550418  1.0000
  C   C22       1.0  0.79014557815983  0.7145745622138976  0.5560286897972092  1.0000
  C   C23       1.0  0.9645555581968561  0.5401481037431354  0.05601528826844035  1.0000
  C   C24       1.0  0.48419870966766626  0.9088410165978831  0.9440368305723087  1.0000
  C   C25       1.0  0.7093271069654749  0.3135928059668488  0.207830452770729  1.0000
  C   C26       1.0  0.10549324055663334  0.5019818574540411  0.7921157535910343  1.0000
  C   C27       1.0  0.7519816914102009  0.8554855782840536  0.2921150837426083  1.0000
  C   C28       1.0  0.5635908933313373  0.45932626630499845  0.7078281531582962  1.0000
  S   S1        1.0  0.6013134579718197  0.08731244642292074  0.802337850304973  1.0000
  S   S2        1.0  0.28519703676143143  0.7992475798972836  0.1981492135658769  1.0000
  S   S3        1.0  0.049245225365403704  0.0352001384457736  0.6981519726239542  1.0000
  S   S4        1.0  0.3373128180880584  0.351324023889461  0.3023337982488243  1.0000
  S   S5        1.0  0.22068430183330887  0.10716764263410282  0.37962791439677096  1.0000
  S   S6        1.0  0.7276142532982489  0.8409148868438979  0.6204886021303226  1.0000
  S   S7        1.0  0.09090787509916962  0.47762149582207775  0.1204846840363771  1.0000
  S   S8        1.0  0.35716905197116927  0.9706814264565369  0.8796247007729718  1.0000
  S   S9        1.0  0.8557784457917919  0.3765839652055832  0.23069423395801888  1.0000
  S   S10       1.0  0.1458493730597183  0.6253067880890344  0.7690094139541941  1.0000
  S   S11       1.0  0.8753104191960402  0.8958302356398281  0.2690063988208849  1.0000
  S   S12       1.0  0.6265789971541196  0.6057786200611518  0.7306883900508085  1.0000
  N   N1        1.0  0.6477300253128319  0.14730219018896662  0.5000636843367731  1.0000
  N   N2        1.0  0.3972999366771574  0.39772799860552516  6.411189174572474e-05  1.0000
  N   N3        1.0  0.8239813255302835  0.3237086151631274  0.5000415673070578  1.0000
  N   N4        1.0  0.5737076800697948  0.5739791692939634  4.242973980690805e-05  1.0000
  N   N5        1.0  0.305978072828033  0.8059829665468856  0.49997737047161916  1.0000
  N   N6        1.0  0.055984810394768686  0.055979997469577804  0.9999781796706916  1.0000
  N   N7        1.0  0.1304381970312178  0.6304284367592888  0.4997233327167623  1.0000
  N   N8        1.0  0.8804303005047412  0.8804382941170488  0.9997221891611191  1.0000
  N   N9        1.0  0.8383495525737246  0.20703675705024696  0.8223113984483066  1.0000
  N   N10       1.0  0.38485376533350996  0.01617522844532  0.1779444748761847  1.0000
  N   N11       1.0  0.2661727245068377  0.1348548449505742  0.6779480016368284  1.0000
  N   N12       1.0  0.45703838051472445  0.5883563263146102  0.322301413807729  1.0000
  N   N13       1.0  0.11202295450467399  0.32509530945709747  0.48834987193225043  1.0000
  N   N14       1.0  0.8365547113866825  0.6233623759488298  0.5115523707234929  1.0000
  N   N15       1.0  0.8733444100149654  0.5865465797956876  0.011537515061284987  1.0000
  N   N16       1.0  0.5750980109641545  0.8620269648663098  0.9883530959646054  1.0000
  N   N17       1.0  0.602363124643695  0.26873231683143234  0.19121660014480577  1.0000
  N   N18       1.0  0.07711366514880781  0.41180087325521003  0.8088826485708936  1.0000
  N   N19       1.0  0.6618001786823768  0.8271085367973827  0.30888527610958505  1.0000
  N   N20       1.0  0.5187338770585228  0.35236865822426483  0.6912176750588018  1.0000
  O   O1        1.0  0.5642544657666092  0.0638180482279651  0.4999823689506186  1.0000
  O   O2        1.0  0.3138152292593617  0.3142499664224517  0.9999795660532487  1.0000
  O   O3        1.0  0.3892671603106308  0.8892264243593434  0.5001447319549969  1.0000
  O   O4        1.0  0.1392285831429305  0.13926496293326812  0.00014315556857269848  1.0000
