data_image0
_chemical_formula_structural       Cd2Ag2H34C50S6N12
_chemical_formula_sum              "Cd2 Ag2 H34 C50 S6 N12"
_cell_length_a       9.98969956403412
_cell_length_b       10.784262576387722
_cell_length_c       13.014754353437032
_cell_angle_alpha    72.29878141701685
_cell_angle_beta     68.89270973145
_cell_angle_gamma    86.54209621766654

_space_group_name_H-M_alt    "P 1"
_space_group_IT_number       1

loop_
  _space_group_symop_operation_xyz
  'x, y, z'

loop_
  _atom_site_type_symbol
  _atom_site_label
  _atom_site_symmetry_multiplicity
  _atom_site_fract_x
  _atom_site_fract_y
  _atom_site_fract_z
  _atom_site_occupancy
  Cd  Cd1       1.0  0.34178032446816786  0.6040920165888936  0.7295139857438927  1.0000
  Cd  Cd2       1.0  0.6582185392762128  0.39590825624911463  0.2704845157864143  1.0000
  Ag  Ag1       1.0  0.0991967343149582  0.6553499827865751  0.42900113292407843  1.0000
  Ag  Ag2       1.0  0.9007981154969611  0.34465430595670904  0.570990582061832  1.0000
  H   H1        1.0  0.12326222417443938  0.4006641994423389  0.9527012560980741  1.0000
  H   H2        1.0  0.876741570670987  0.5993301249736193  0.04730117851795508  1.0000
  H   H3        1.0  0.0441433362404666  0.3244097808808847  0.16936468545043232  1.0000
  H   H4        1.0  0.9558635304705375  0.6755825488595307  0.8306381536862096  1.0000
  H   H5        1.0  0.1665704210871723  0.4288584803000361  0.2632950971029758  1.0000
  H   H6        1.0  0.8334318854058367  0.5711446568025522  0.7367040479332804  1.0000
  H   H7        1.0  0.35986219229099703  0.6017567579374657  0.13863204357682687  1.0000
  H   H8        1.0  0.6401318261481636  0.3982503937112441  0.861366882556638  1.0000
  H   H9        1.0  0.5243933221167725  0.7361044414296529  0.027360761900702402  1.0000
  H   H10       1.0  0.4756065508165932  0.263894807101984  0.972641552730437  1.0000
  H   H11       1.0  0.5690655661565742  0.910787716838655  0.059393474173006645  1.0000
  H   H12       1.0  0.43093222750132293  0.0892125612041212  0.9406060920500467  1.0000
  H   H13       1.0  0.6991221260535738  0.05723236842169402  0.10860236949523032  1.0000
  H   H14       1.0  0.30087437955268825  0.9427649831977333  0.8913998112011544  1.0000
  H   H15       1.0  0.9717628338911197  0.2941401177441136  0.9081111265905625  1.0000
  H   H16       1.0  0.028240889682500405  0.7058532245339678  0.09189233770135274  1.0000
  H   H17       1.0  0.0601964765436307  0.1656058635659434  0.9745204078435068  1.0000
  H   H18       1.0  0.9398027300451587  0.834384634437825  0.0254819383881326  1.0000
  H   H19       1.0  0.8921218010151221  0.2103736070977149  0.059132113303583485  1.0000
  H   H20       1.0  0.10788099709048281  0.7896216972681315  0.9408711259528463  1.0000
  H   H21       1.0  0.0400299971300413  0.12567407864521132  0.7779327061884093  1.0000
  H   H22       1.0  0.9599708074959139  0.874323185620419  0.2220721423488215  1.0000
  H   H23       1.0  0.9137524997944126  0.9765661485231262  0.7281693894507061  1.0000
  H   H24       1.0  0.08624723267019621  0.0234311283400288  0.2718357541557382  1.0000
  H   H25       1.0  0.7417131596071727  0.960347200072789  0.6717941715542538  1.0000
  H   H26       1.0  0.25828807887420163  0.039655934841825106  0.3282068077982885  1.0000
  H   H27       1.0  0.7517071209769667  0.9973842239755089  0.5057335250959697  1.0000
  H   H28       1.0  0.2482931186897304  0.0026198982817505034  0.49426748927344033  1.0000
  H   H29       1.0  0.7667690417367652  0.0207931996350865  0.30726579037846596  1.0000
  H   H30       1.0  0.2332333401777689  0.9792109048198795  0.6927338642289771  1.0000
  H   H31       1.0  0.6181603998721458  0.8623475163241213  0.27568170941521686  1.0000
  H   H32       1.0  0.38184605272264355  0.13765360611266428  0.7243183146959711  1.0000
  H   H33       1.0  0.4557871902981816  0.6952913098775824  0.44906286665112566  1.0000
  H   H34       1.0  0.5442180434419228  0.3047078756664733  0.5509379726339674  1.0000
  C   C1        1.0  0.1724188745401776  0.4420936388201966  0.9982997588183838  1.0000
  C   C2        1.0  0.8275862125065954  0.5579035972336114  0.0017016005714012294  1.0000
  C   C3        1.0  0.1297695722278718  0.3998749668469089  0.1182207440988989  1.0000
  C   C4        1.0  0.8702344468072738  0.6001222670189251  0.8817824496071726  1.0000
  C   C5        1.0  0.19792627761106726  0.458433968042776  0.16951551600639198  1.0000
  C   C6        1.0  0.8020781773543532  0.5415691290792922  0.8304845781385171  1.0000
  C   C7        1.0  0.3067061319827146  0.5548781946759576  0.09960942556656258  1.0000
  C   C8        1.0  0.6932930292980545  0.4451259623570465  0.900389575001441  1.0000
  C   C9        1.0  0.3441195727560212  0.5923698868775631  0.9795828023125143  1.0000
  C   C10       1.0  0.6558762274222261  0.4076323510649972  0.020418373191340326  1.0000
  C   C11       1.0  0.4586261867884787  0.6952477508106157  0.8991296742560738  1.0000
  C   C12       1.0  0.5413695400431066  0.3047535123868245  0.1008717613001338  1.0000
  C   C13       1.0  0.540771002734715  0.760345146202063  0.9360412371138127  1.0000
  C   C14       1.0  0.4592267217262247  0.2396541423101013  0.0639601284086666  1.0000
  C   C15       1.0  0.6454015203337207  0.8575187681276261  0.8543253836214789  1.0000
  C   C16       1.0  0.35459942476099127  0.14248046780649304  0.14567663594044689  1.0000
  C   C17       1.0  0.7302674887183259  0.9332902969037705  0.8891997145179715  1.0000
  C   C18       1.0  0.2697322416714201  0.0667069873521271  0.11080465946493238  1.0000
  C   C19       1.0  0.673945042171603  0.9550041730671242  0.9976528918599927  1.0000
  C   C20       1.0  0.3260494658052977  0.0449951532375863  0.002349358870112927  1.0000
  C   C21       1.0  0.7469543899041042  0.0388714964030967  0.025229169747518727  1.0000
  C   C22       1.0  0.2530378983285715  0.961126887744264  0.9747731615498127  1.0000
  C   C23       1.0  0.8784033028940497  0.10353769150496821  0.9467957603799139  1.0000
  C   C24       1.0  0.1215929951213752  0.8964566915226158  0.053211818214741406  1.0000
  C   C25       1.0  0.9538987383980881  0.1984177781467693  0.974239191210792  1.0000
  C   C26       1.0  0.04610306504255131  0.8015784987762234  0.025765622309577903  1.0000
  C   C27       1.0  0.9371667198748382  0.0775104790307921  0.8403301672949585  1.0000
  C   C28       1.0  0.06283171831356071  0.9224838935872485  0.1596752819141969  1.0000
  C   C29       1.0  0.8652504482731374  0.9939702066427715  0.8119441243066137  1.0000
  C   C30       1.0  0.1347450626681663  0.006028117533801901  0.18805963065370432  1.0000
  C   C31       1.0  0.6637085095718263  0.8840485596472549  0.7372509569728081  1.0000
  C   C32       1.0  0.336288658229293  0.11595755728554023  0.26274965287599633  1.0000
  C   C33       1.0  0.579525637951221  0.8137945007478609  0.7060543462296777  1.0000
  C   C34       1.0  0.42047552095891655  0.18620768159986772  0.2939445843045974  1.0000
  C   C35       1.0  0.5942569853516416  0.8339093524059467  0.5839614164216587  1.0000
  C   C36       1.0  0.4057463178811886  0.16609280474674654  0.41603692397419684  1.0000
  C   C37       1.0  0.6872608203965173  0.9311055315848191  0.4913220714579581  1.0000
  C   C38       1.0  0.31273949676656804  0.068899550632068  0.508680222106179  1.0000
  C   C39       1.0  0.6963769185709552  0.9434170155384723  0.37912914094232525  1.0000
  C   C40       1.0  0.30362647045770064  0.05658607200287239  0.6208735571424101  1.0000
  C   C41       1.0  0.613824591400487  0.8578535699958751  0.3615724773383634  1.0000
  C   C42       1.0  0.38618178992249597  0.14214657030304068  0.6384285764487104  1.0000
  C   C43       1.0  0.5229001124710777  0.7641711940184521  0.4581921171226356  1.0000
  C   C44       1.0  0.4770990508845471  0.2358329556218095  0.5418076530689008  1.0000
  C   C45       1.0  0.166384142720581  0.44130557789474534  0.6468823495989044  1.0000
  C   C46       1.0  0.833615982102252  0.558697717472306  0.35310353235207254  1.0000
  C   C47       1.0  0.1132732656801565  0.7823602293598813  0.628424251173577  1.0000
  C   C48       1.0  0.8867187879884995  0.21763528230133736  0.37157347291602605  1.0000
  C   C49       1.0  0.5710342979760695  0.353068494469568  0.7171862607571031  1.0000
  C   C50       1.0  0.42896086804596917  0.6469396119339945  0.2828128798783427  1.0000
  S   S1        1.0  0.1603342722386927  0.4141055435859897  0.5313336650940954  1.0000
  S   S2        1.0  0.8396638611793533  0.5858997042881031  0.46865459576122964  1.0000
  S   S3        1.0  0.0156432303707845  0.8200651928745231  0.5477311832642046  1.0000
  S   S4        1.0  0.9843541924040549  0.17993022622813024  0.4522681439735053  1.0000
  S   S5        1.0  0.6781925208573227  0.23428312629452108  0.7353923269488905  1.0000
  S   S6        1.0  0.32181170161894096  0.7657170909486481  0.26460392961183044  1.0000
  N   N1        1.0  0.5129136402151317  0.7530330678193664  0.5658404971847305  1.0000
  N   N2        1.0  0.4870866665736528  0.2469720513612472  0.4341579482617135  1.0000
  N   N3        1.0  0.4793210366624266  0.7228851427946169  0.7866074273696884  1.0000
  N   N4        1.0  0.5206770524569891  0.27711902683590495  0.21339186826752146  1.0000
  N   N5        1.0  0.275745895680231  0.5359336628941237  0.931261127147771  1.0000
  N   N6        1.0  0.7242549677683738  0.46406462786585917  0.06873807397235515  1.0000
  N   N7        1.0  0.1744233660903163  0.4605688485261155  0.7294670773253245  1.0000
  N   N8        1.0  0.8255852647515026  0.5394333639229388  0.2705174737478659  1.0000
  N   N9        1.0  0.18092016495572952  0.7586399504740414  0.6901858571901587  1.0000
  N   N10       1.0  0.8190751051969728  0.24135552339462413  0.3098109816918183  1.0000
  N   N11       1.0  0.492597019624732  0.4382425001485117  0.7055490547424983  1.0000
  N   N12       1.0  0.5074102158944598  0.561754695924769  0.29445325375593984  1.0000
