data_image0
_chemical_formula_structural       Cu2H28C28N4O12
_chemical_formula_sum              "Cu2 H28 C28 N4 O12"
_cell_length_a       8.549463301564641
_cell_length_b       9.046376532263347
_cell_length_c       9.931924458924183
_cell_angle_alpha    99.415679351515
_cell_angle_beta     95.6675038614246
_cell_angle_gamma    94.13416632722817

_space_group_name_H-M_alt    "P 1"
_space_group_IT_number       1

loop_
  _space_group_symop_operation_xyz
  'x, y, z'

loop_
  _atom_site_type_symbol
  _atom_site_label
  _atom_site_symmetry_multiplicity
  _atom_site_fract_x
  _atom_site_fract_y
  _atom_site_fract_z
  _atom_site_occupancy
  Cu  Cu1       1.0  0.7862476306964867  0.15825715591127934  0.14501867981191205  1.0000
  Cu  Cu2       1.0  0.2137483606750905  0.8417429204848831  0.8549856716392555  1.0000
  H   H1        1.0  0.5730608233430772  0.012609236349824504  0.6966051336670206  1.0000
  H   H2        1.0  0.4269420558243056  0.9873773811425297  0.30339161294602957  1.0000
  H   H3        1.0  0.46323366903394003  0.8011648062840211  0.43844922193692076  1.0000
  H   H4        1.0  0.5367681944325824  0.1988352720217108  0.5615536043136871  1.0000
  H   H5        1.0  0.7044170806545224  0.06578768402844298  0.3958379199651105  1.0000
  H   H6        1.0  0.2955813671783716  0.9342135444875906  0.6041637978845104  1.0000
  H   H7        1.0  0.0780950880612892  0.251041168848012  0.7151186613132127  1.0000
  H   H8        1.0  0.9219030677307813  0.748969087993615  0.2848824513640906  1.0000
  H   H9        1.0  0.21242515530335027  0.3666968167237386  0.5388006000259368  1.0000
  H   H10       1.0  0.7875685883798483  0.6333044653862105  0.4611977143915595  1.0000
  H   H11       1.0  0.07825987297778879  0.3291561718297372  0.296790932248257  1.0000
  H   H12       1.0  0.9217382384746886  0.6708417176544829  0.7032072069286316  1.0000
  H   H13       1.0  0.843165528304553  0.9740208928701725  0.6848590146619885  1.0000
  H   H14       1.0  0.1568394017491812  0.025974804039989904  0.3151322951574613  1.0000
  H   H15       1.0  0.8121108434245699  0.15381928646675652  0.7728741568638569  1.0000
  H   H16       1.0  0.1878876721955365  0.8461706877024754  0.22712578037626946  1.0000
  H   H17       1.0  0.5661108385277486  0.32565706343066136  0.3113303616190848  1.0000
  H   H18       1.0  0.4338864329158838  0.6743441814795832  0.6886702540903045  1.0000
  H   H19       1.0  0.5519009432412149  0.7527696536068194  0.17318848114193494  1.0000
  H   H20       1.0  0.4481083022752586  0.2472337732119811  0.8268154904634386  1.0000
  H   H21       1.0  0.7539499997615806  0.6715020867493636  0.015268297190687037  1.0000
  H   H22       1.0  0.2460542052247874  0.32849805463153103  0.9847286923098227  1.0000
  H   H23       1.0  0.8476622152629644  0.4138012707372739  0.011533811886906189  1.0000
  H   H24       1.0  0.15233181623905517  0.5861910189959262  0.9884620923164537  1.0000
  H   H25       1.0  0.3173247394644322  0.6241016260567847  0.2987799149904049  1.0000
  H   H26       1.0  0.6826770189119528  0.37589727932359557  0.7012267440133898  1.0000
  H   H27       1.0  0.38553062619458695  0.48870110722214827  0.3974115056882113  1.0000
  H   H28       1.0  0.6144747622177036  0.5112989578497891  0.6025916115966369  1.0000
  C   C1        1.0  0.5380162005862914  0.018017733657124804  0.9359054380315044  1.0000
  C   C2        1.0  0.46198198146807107  0.9819688775143975  0.06409293079352815  1.0000
  C   C3        1.0  0.04184470394308451  0.07116339001466802  0.978558122267458  1.0000
  C   C4        1.0  0.9581596575096754  0.928850231734245  0.021443033624372266  1.0000
  C   C5        1.0  0.8157006741594018  0.13283652840043916  0.432617932598376  1.0000
  C   C6        1.0  0.18429726160105994  0.8671714664711275  0.5673838096835624  1.0000
  C   C7        1.0  0.8785029284724147  0.15147121453171764  0.5700667814867303  1.0000
  C   C8        1.0  0.12149243588525849  0.8485345391752757  0.4299343912481959  1.0000
  C   C9        1.0  0.023585160117164602  0.23697990181324266  0.6092232114141468  1.0000
  C   C10       1.0  0.9764094763584695  0.7630303203303868  0.3907816307441935  1.0000
  C   C11       1.0  0.09810482094275838  0.3021618145534291  0.5117619196599819  1.0000
  C   C12       1.0  0.9018893684329896  0.6978439435648343  0.4882391560635284  1.0000
  C   C13       1.0  0.025839616035447908  0.28088772721904587  0.3773503499405422  1.0000
  C   C14       1.0  0.9741556347880828  0.7191169254602913  0.6226486247746479  1.0000
  C   C15       1.0  0.7928272484615135  0.08047321995614  0.6715606285728342  1.0000
  C   C16       1.0  0.2071754536065171  0.9195235149065154  0.3284387160164428  1.0000
  C   C17       1.0  0.6017154451420693  0.40449635508247894  0.24528357390644118  1.0000
  C   C18       1.0  0.3982854619668075  0.5955060015875305  0.7547175205992858  1.0000
  C   C19       1.0  0.5398931367231868  0.5438052270375096  0.2524285399281041  1.0000
  C   C20       1.0  0.4601101231641991  0.4561970968440646  0.7475747588581002  1.0000
  C   C21       1.0  0.5947930765188475  0.6416751314643037  0.16827070804149  1.0000
  C   C22       1.0  0.40521488188890237  0.3583271867551546  0.8317319736615547  1.0000
  C   C23       1.0  0.7058100801661951  0.5970705364463529  0.07976594484743063  1.0000
  C   C24       1.0  0.29419295406025014  0.40292957339696045  0.9202339630281244  1.0000
  C   C25       1.0  0.7603963221160016  0.4554575490847697  0.077944723477259  1.0000
  C   C26       1.0  0.23959814944923613  0.5445392645885434  0.9220499215168304  1.0000
  C   C27       1.0  0.4228265569212298  0.5876342766862025  0.3532026719258212  1.0000
  C   C28       1.0  0.5771789436178664  0.4123669013963325  0.6468016382499471  1.0000
  N   N1        1.0  0.8876742282005097  0.19631330844759282  0.33908455626480827  1.0000
  N   N2        1.0  0.11232018261418383  0.8036946996577755  0.6609168949828899  1.0000
  N   N3        1.0  0.7093260106862472  0.36202149985098947  0.1598563101211781  1.0000
  N   N4        1.0  0.2906673952091979  0.6379764552100936  0.8401374204947629  1.0000
  O   O1        1.0  0.6640543939072999  0.10571000417798612  0.9553096619601007  1.0000
  O   O2        1.0  0.335948161545673  0.8942731664360155  0.04469255213960112  1.0000
  O   O3        1.0  0.469242166386195  0.9596123703864519  0.8186797143987691  1.0000
  O   O4        1.0  0.5307571934647584  0.040374212407904515  0.1813207616953179  1.0000
  O   O5        1.0  0.009019370646811407  0.19911137065452075  0.03267244167822271  1.0000
  O   O6        1.0  0.9909792238011405  0.8009034221101674  0.9673264066609805  1.0000
  O   O7        1.0  0.13938183681956673  0.0484895908478578  0.8890087688843097  1.0000
  O   O8        1.0  0.8606259458961676  0.9515228327589544  0.11099751592378489  1.0000
  O   O9        1.0  0.6288059987190309  0.052223948945162094  0.6237773483589493  1.0000
  O   O10       1.0  0.37119453048450873  0.9477626773697239  0.37621920423126914  1.0000
  O   O11       1.0  0.49071843335900667  0.7032724100536428  0.4634322773120658  1.0000
  O   O12       1.0  0.5092858907908352  0.29672878442310957  0.5365709307234641  1.0000
