data_image0
_chemical_formula_structural       Cd4H24C32S8N20
_chemical_formula_sum              "Cd4 H24 C32 S8 N20"
_cell_length_a       9.91983312661479
_cell_length_b       9.919873602440248
_cell_length_c       12.282470510323012
_cell_angle_alpha    83.12812818389996
_cell_angle_beta     83.12860186393786
_cell_angle_gamma    83.51100535058251

_space_group_name_H-M_alt    "P 1"
_space_group_IT_number       1

loop_
  _space_group_symop_operation_xyz
  'x, y, z'

loop_
  _atom_site_type_symbol
  _atom_site_label
  _atom_site_symmetry_multiplicity
  _atom_site_fract_x
  _atom_site_fract_y
  _atom_site_fract_z
  _atom_site_occupancy
  Cd  Cd1       1.0  0.6446858323752522  0.23821432325294717  0.9460141695556105  1.0000
  Cd  Cd2       1.0  0.7617874028619696  0.3553111733791852  0.5539852153712912  1.0000
  Cd  Cd3       1.0  0.35531345354344507  0.7617858861197322  0.053986295093395066  1.0000
  Cd  Cd4       1.0  0.23821521349053396  0.6446859499264121  0.4460160400009059  1.0000
  H   H1        1.0  0.7780755292374193  0.3211561874376869  0.15746184527549897  1.0000
  H   H2        1.0  0.6788424547502102  0.2219260485841303  0.3425370369170366  1.0000
  H   H3        1.0  0.2219249598500781  0.6788419715456159  0.8425403290426061  1.0000
  H   H4        1.0  0.32115692761768594  0.778073142536229  0.6574610737119428  1.0000
  H   H5        1.0  0.003739773479360094  0.367984302145075  0.2113246533933477  1.0000
  H   H6        1.0  0.6320153241563203  0.9962605987727075  0.2886754359758328  1.0000
  H   H7        1.0  0.9962634827592609  0.6320168958011647  0.7886753352518383  1.0000
  H   H8        1.0  0.367984244504612  0.0037365491932562006  0.7113252954057855  1.0000
  H   H9        1.0  0.20748330242639668  0.35951449479286873  0.06888626761452342  1.0000
  H   H10       1.0  0.6404842993052782  0.7925185630470042  0.4311169463577754  1.0000
  H   H11       1.0  0.7925190326517254  0.6404856913971669  0.9311130924044734  1.0000
  H   H12       1.0  0.35951314135671447  0.20747961985780708  0.5688855182800481  1.0000
  H   H13       1.0  0.1801581167633373  0.3027971727364189  0.8822448672359472  1.0000
  H   H14       1.0  0.6972043995921665  0.8198451563491813  0.6177569569634684  1.0000
  H   H15       1.0  0.8198409813944708  0.6972050783129334  0.11775460528102849  1.0000
  H   H16       1.0  0.3027958074870226  0.18015606477970184  0.38224413631173354  1.0000
  H   H17       1.0  0.019031361403761993  0.2485450800958589  0.6491182286033634  1.0000
  H   H18       1.0  0.75145521520016  0.9809673780363183  0.8508837779028224  1.0000
  H   H19       1.0  0.9809669069052446  0.7514551357729218  0.3508839614394788  1.0000
  H   H20       1.0  0.248543148824119  0.019031818841284603  0.149116872430298  1.0000
  H   H21       1.0  0.11427910946513717  0.3222047900396703  0.7293112298373785  1.0000
  H   H22       1.0  0.677795433012122  0.8857208871188077  0.7706923671081681  1.0000
  H   H23       1.0  0.8857203634805302  0.6777933769174638  0.2706910412539685  1.0000
  H   H24       1.0  0.32220496109403024  0.11427829159453752  0.22931053260936096  1.0000
  C   C1        1.0  0.8700461643433712  0.3171569242942028  0.09900153006336859  1.0000
  C   C2        1.0  0.6828388489705546  0.12995501477483634  0.40099963128875526  1.0000
  C   C3        1.0  0.12995432401019968  0.6828412339502351  0.9010014585650339  1.0000
  C   C4        1.0  0.3171564666282265  0.8700442060242748  0.5990013093640839  1.0000
  C   C5        1.0  0.9951381165321818  0.3437656608114708  0.12842935165253522  1.0000
  C   C6        1.0  0.6562244890556954  0.004864062016352499  0.3715742278781988  1.0000
  C   C7        1.0  0.004862560316212186  0.6562304564951589  0.8715738147976069  1.0000
  C   C8        1.0  0.3437647274903027  0.9951352044091737  0.6284297363449624  1.0000
  C   C9        1.0  0.107889526212773  0.3391079382382927  0.049349419085452  1.0000
  C   C10       1.0  0.6608871539468877  0.8921115924263178  0.45065150121236286  1.0000
  C   C11       1.0  0.8921108700951734  0.6608912426916478  0.950651037701185  1.0000
  C   C12       1.0  0.33910612863429895  0.10788764358159848  0.5493504472972504  1.0000
  C   C13       1.0  0.09183922359167698  0.3084009369628832  0.9440369980721995  1.0000
  C   C14       1.0  0.6916001382668282  0.9081572107737517  0.5559643861735069  1.0000
  C   C15       1.0  0.9081579365298751  0.6916003095652313  0.05596275690211881  1.0000
  C   C16       1.0  0.3083973981104363  0.0918399531398748  0.44403653875458815  1.0000
  C   C17       1.0  0.9633010742520509  0.28220591911830434  0.920888947627418  1.0000
  C   C18       1.0  0.7177908099969841  0.0367000603312491  0.5791114854333942  1.0000
  C   C19       1.0  0.03669941556937317  0.7177922406038634  0.07911241238038969  1.0000
  C   C20       1.0  0.28220552247755387  0.9632991532328892  0.4208885441358986  1.0000
  C   C21       1.0  0.9401869720349582  0.24648244825812785  0.8107783088215755  1.0000
  C   C22       1.0  0.7535173102480427  0.05981247997810611  0.6892228534332929  1.0000
  C   C23       1.0  0.059810280866152296  0.753517776323349  0.1892231636842041  1.0000
  C   C24       1.0  0.24648318104124198  0.9401856812217845  0.3107768779539199  1.0000
  C   C25       1.0  0.5533899183531403  0.5800037467937216  0.869497545863936  1.0000
  C   C26       1.0  0.42000820266424194  0.44660759733437067  0.6304903313999475  1.0000
  C   C27       1.0  0.44661157436970456  0.42000562952736714  0.1304944994748496  1.0000
  C   C28       1.0  0.580002176842214  0.5533935551391237  0.3694975794883958  1.0000
  C   C29       1.0  0.6268795242671814  0.9207590602557473  0.07708542251415912  1.0000
  C   C30       1.0  0.07924732773917498  0.3731209146194203  0.4229118161098098  1.0000
  C   C31       1.0  0.37312096922389054  0.07923910316073801  0.9229118659421616  1.0000
  C   C32       1.0  0.9207590711723557  0.6268792389364178  0.5770879711265238  1.0000
  S   S1        1.0  0.4904231117226415  0.7398518614414228  0.8502922433039473  1.0000
  S   S2        1.0  0.2601614685768964  0.5095719932400656  0.6497022775754858  1.0000
  S   S3        1.0  0.5095754246203298  0.2601565161156714  0.14970262419630842  1.0000
  S   S4        1.0  0.7398509388096456  0.49042913885257633  0.3502903256281654  1.0000
  S   S5        1.0  0.5611505819073414  0.8034890995788828  0.16586874177146876  1.0000
  S   S6        1.0  0.19651402130534018  0.43885110150089457  0.3341305004076887  1.0000
  S   S7        1.0  0.4388477835847979  0.19651009877645007  0.8341302799410568  1.0000
  S   S8        1.0  0.8034900625802874  0.5611521294093224  0.6658692136425088  1.0000
  N   N1        1.0  0.8546281858845858  0.28705148692814925  0.9982635366464478  1.0000
  N   N2        1.0  0.7129450473468849  0.1453754142910384  0.5017387221293959  1.0000
  N   N3        1.0  0.14537350783957234  0.7129446231435069  0.0017387187201620897  1.0000
  N   N4        1.0  0.28705312671471006  0.8546258220466499  0.49826337900258016  1.0000
  N   N5        1.0  0.8246009904012296  0.19668275142925754  0.8028661537799735  1.0000
  N   N6        1.0  0.8033153719352768  0.175400279519593  0.6971355739721331  1.0000
  N   N7        1.0  0.1753984825444377  0.8033154155278835  0.1971361173113664  1.0000
  N   N8        1.0  0.19668289784159032  0.8245999378269177  0.302864987450114  1.0000
  N   N9        1.0  0.04012917097144708  0.25975710937106566  0.7268987760725523  1.0000
  N   N10       1.0  0.7402423172466965  0.9598720622301684  0.7731039233342328  1.0000
  N   N11       1.0  0.9598702077268088  0.7402420780549761  0.27310340610792133  1.0000
  N   N12       1.0  0.2597569672041473  0.0401281456647808  0.22689816993537448  1.0000
  N   N13       1.0  0.6016379971532259  0.4658719322655004  0.8829029028176549  1.0000
  N   N14       1.0  0.5341370625427188  0.3983591898856461  0.6170923734363782  1.0000
  N   N15       1.0  0.39836164957899456  0.534135416848855  0.1170919568202393  1.0000
  N   N16       1.0  0.46587137158819303  0.6016409506779754  0.38290396301228924  1.0000
  N   N17       1.0  0.679511427719966  0.004304710350709197  0.014083609178982175  1.0000
  N   N18       1.0  0.9956938062340084  0.3204903922355697  0.4859192853943384  1.0000
  N   N19       1.0  0.32048906356931883  0.9956934508491884  0.9859161222082307  1.0000
  N   N20       1.0  0.004306305863835285  0.6795118486233492  0.5140825332802876  1.0000
