data_image0
_chemical_formula_structural       Zn2H30C42N10O8
_chemical_formula_sum              "Zn2 H30 C42 N10 O8"
_cell_length_a       10.842557651819549
_cell_length_b       13.78803084044759
_cell_length_c       15.234195106587775
_cell_angle_alpha    89.72721279917687
_cell_angle_beta     89.58529440535747
_cell_angle_gamma    90.86404142382568

_space_group_name_H-M_alt    "P 1"
_space_group_IT_number       1

loop_
  _space_group_symop_operation_xyz
  'x, y, z'

loop_
  _atom_site_type_symbol
  _atom_site_label
  _atom_site_symmetry_multiplicity
  _atom_site_fract_x
  _atom_site_fract_y
  _atom_site_fract_z
  _atom_site_occupancy
  Zn  Zn1       1.0  0.49661218626656733  0.4011991556067043  0.5017426462726889  1.0000
  Zn  Zn2       1.0  0.5035203544028661  0.6034641920525202  0.5005450146817907  1.0000
  H   H1        1.0  0.0937341155034588  0.4139155748646742  0.619228717722635  1.0000
  H   H2        1.0  0.9053648808486371  0.5898846548007695  0.3734342001951916  1.0000
  H   H3        1.0  0.4558472112063612  0.25071815642623807  0.92406205080583  1.0000
  H   H4        1.0  0.5468335070692234  0.7430131249729824  0.0778342979540909  1.0000
  H   H5        1.0  0.6717906515733887  0.2556697882355862  0.4444001092981083  1.0000
  H   H6        1.0  0.327381130816363  0.7496336933932923  0.556126454480463  1.0000
  H   H7        1.0  0.3259208285352173  0.2507465492774513  0.5554080389000833  1.0000
  H   H8        1.0  0.6791467227007146  0.7550937765980591  0.4545642441449119  1.0000
  H   H9        1.0  0.97225140866032  0.26055192483819667  0.5060813710423917  1.0000
  H   H10       1.0  0.8354973986691192  0.3042912609170473  0.5358383092831431  1.0000
  H   H11       1.0  0.0279651535029259  0.740900721772327  0.4724540083810852  1.0000
  H   H12       1.0  0.17062241584610396  0.6967017958002798  0.4664806206452426  1.0000
  H   H13       1.0  0.005218096787608302  0.3908006381389696  0.3027826450654986  1.0000
  H   H14       1.0  0.14272398952607548  0.44452042009516646  0.3105763391974535  1.0000
  H   H15       1.0  0.9957327904516265  0.6387055588159352  0.6728631198962418  1.0000
  H   H16       1.0  0.8860668408106422  0.5561180864959282  0.695071559026033  1.0000
  H   H17       1.0  0.5427549876187144  0.6533022000499712  0.22053378945041405  1.0000
  H   H18       1.0  0.4535154708461492  0.3414046835352309  0.780768144142229  1.0000
  H   H19       1.0  0.5058564705242432  0.34339086421288556  0.22605736058551434  1.0000
  H   H20       1.0  0.500501005355062  0.650555797045342  0.7763042276737125  1.0000
  H   H21       1.0  0.4770855861760879  0.2512595914484734  0.08565553873141603  1.0000
  H   H22       1.0  0.5275828977105235  0.7422445299064004  0.9157418280552038  1.0000
  H   H23       1.0  0.20224210317346092  0.16859069394377002  0.6163424570064677  1.0000
  H   H24       1.0  0.14765683412960579  0.06256584456802018  0.6546546546786018  1.0000
  H   H25       1.0  0.8040185268107007  0.8398556353694668  0.38327261761511994  1.0000
  H   H26       1.0  0.888202377607982  0.9446605075963319  0.38757488129275697  1.0000
  H   H27       1.0  0.8567002823274734  0.0860313501134726  0.352832066659616  1.0000
  H   H28       1.0  0.8209319469250858  0.18108106817047798  0.41646321295078803  1.0000
  H   H29       1.0  0.1728548369642766  0.8271751665494874  0.5781372358978347  1.0000
  H   H30       1.0  0.10281173278221441  0.934860480051121  0.5852364653812432  1.0000
  C   C1        1.0  0.47280062314187893  0.49611379095813374  0.6717784763696175  1.0000
  C   C2        1.0  0.5258639030840868  0.5012209308860633  0.3300789721995373  1.0000
  C   C3        1.0  0.507696038287797  0.4969000369985253  0.04729614285724181  1.0000
  C   C4        1.0  0.496015351431673  0.49656809819283143  0.954430368762573  1.0000
  C   C5        1.0  0.5254523681747685  0.5866772972109328  0.09253666662780802  1.0000
  C   C6        1.0  0.4769988323616161  0.4070874044333834  0.9089152292278372  1.0000
  C   C7        1.0  0.48218246223858335  0.3190650304451878  0.04838951939181161  1.0000
  C   C8        1.0  0.5221198154780851  0.6746548353636541  0.9532933312777774  1.0000
  C   C9        1.0  0.4703992659618166  0.31878955004912507  0.9591388421527968  1.0000
  C   C10       1.0  0.5328195130356407  0.6750439889255871  0.042511501664613115  1.0000
  C   C11       1.0  0.5983922753533476  0.2082716648704021  0.4698532285363585  1.0000
  C   C12       1.0  0.4020193309185913  0.7969704111847521  0.532511739973181  1.0000
  C   C13       1.0  0.4011467717364924  0.20511741360562036  0.5332313554488551  1.0000
  C   C14       1.0  0.6018711620992007  0.8002411603895325  0.47365826762931823  1.0000
  C   C15       1.0  0.3959796886136218  0.10346870904245259  0.5357856265949368  1.0000
  C   C16       1.0  0.6060742151313364  0.9018659356543279  0.4700769649618267  1.0000
  C   C17       1.0  0.6060492238161217  0.10678309271793296  0.4701394604256636  1.0000
  C   C18       1.0  0.3949394122592907  0.8983875971819868  0.5331291738988995  1.0000
  C   C19       1.0  0.5009381821880865  0.053649135206526886  0.5025053867035183  1.0000
  C   C20       1.0  0.5004808809676929  0.9518362890960145  0.5017820109266324  1.0000
  C   C21       1.0  0.2911851629220052  0.049749394865592884  0.5689757420568853  1.0000
  C   C22       1.0  0.7123667912466587  0.9553363990451869  0.43825294477724713  1.0000
  C   C23       1.0  0.7128266854173262  0.056681183845888876  0.4382310088441913  1.0000
  C   C24       1.0  0.28779535883244023  0.9486321171877633  0.5641272717831002  1.0000
  C   C25       1.0  0.7384080876860466  0.5017381166472744  0.5114102511410935  1.0000
  C   C26       1.0  0.2604473923575057  0.5042941194050454  0.484932885332448  1.0000
  C   C27       1.0  0.9572364908125693  0.40724636918267265  0.49604249004049455  1.0000
  C   C28       1.0  0.0402049097733439  0.5960052120333968  0.496452592620095  1.0000
  C   C29       1.0  0.0333599875832178  0.4581584243907243  0.4194163061255481  1.0000
  C   C30       1.0  0.9653714105998645  0.545240383291002  0.5732243075007306  1.0000
  C   C31       1.0  0.04907984775778829  0.4523827528117151  0.5651468625893159  1.0000
  C   C32       1.0  0.9488868434883457  0.5508404477374214  0.4276559100471078  1.0000
  C   C33       1.0  0.12362528636469962  0.5045723354163412  0.4889000591105202  1.0000
  C   C34       1.0  0.8743554495260284  0.49860036017612674  0.5029988909001517  1.0000
  C   C35       1.0  0.5327384768240863  0.5856381287090712  0.18429725429097493  1.0000
  C   C36       1.0  0.46690870511708477  0.40867251422339723  0.8171157362956266  1.0000
  C   C37       1.0  0.5250595477138021  0.49852093506280676  0.23159244499283463  1.0000
  C   C38       1.0  0.4760461841106575  0.49604028705261527  0.7702659896984374  1.0000
  C   C39       1.0  0.5111021342710557  0.4102538096338719  0.18757469347912806  1.0000
  C   C40       1.0  0.49337615349749336  0.5837059664793287  0.814645367450112  1.0000
  C   C41       1.0  0.5009184832588147  0.4077655304600469  0.09576556754261391  1.0000
  C   C42       1.0  0.5033729281814773  0.5858221082563375  0.9062471357705848  1.0000
  N   N1        1.0  0.4989290103634971  0.254115152600491  0.5006383322597188  1.0000
  N   N2        1.0  0.502600726389929  0.7509520920483438  0.5037231954599194  1.0000
  N   N3        1.0  0.9069253289001439  0.3107855791855201  0.49182777225367164  1.0000
  N   N4        1.0  0.0883706927712851  0.6935276556412262  0.49973782373435693  1.0000
  N   N5        1.0  0.07559860919719338  0.4072727285533445  0.3444737970604593  1.0000
  N   N6        1.0  0.9254163991416179  0.5982746515569772  0.6470419755834486  1.0000
  N   N7        1.0  0.1880073593807765  0.09735269486456127  0.6024611581023294  1.0000
  N   N8        1.0  0.8165435674233238  0.9051633400539031  0.4123047639561791  1.0000
  N   N9        1.0  0.8186884770856365  0.1073125455081154  0.4107187857885323  1.0000
  N   N10       1.0  0.1831138305061799  0.8988121413900814  0.5936776413059237  1.0000
  O   O1        1.0  0.45297934857223515  0.41527714075537836  0.6338470615858753  1.0000
  O   O2        1.0  0.5090487902144079  0.5834569583145707  0.36532875850571866  1.0000
  O   O3        1.0  0.5409283905295582  0.42121945691686585  0.37069476507701193  1.0000
  O   O4        1.0  0.49259907062572234  0.5772812519097313  0.6335772849133009  1.0000
  O   O5        1.0  0.6806358370288167  0.4235840835070731  0.5329719634489436  1.0000
  O   O6        1.0  0.31526331864713336  0.5864762888355911  0.49242808140223815  1.0000
  O   O7        1.0  0.3122196643884223  0.4227692614487636  0.47605197117355413  1.0000
  O   O8        1.0  0.6898027126215001  0.5836748584124932  0.49705403553814176  1.0000
