data_image0
_chemical_formula_structural       Zn16H192C152N16O56
_chemical_formula_sum              "Zn16 H192 C152 N16 O56"
_cell_length_a       13.055537919800438
_cell_length_b       20.120743381254957
_cell_length_c       20.11942007727939
_cell_angle_alpha    83.97163273847762
_cell_angle_beta     71.08977949726945
_cell_angle_gamma    71.06502712649778

_space_group_name_H-M_alt    "P 1"
_space_group_IT_number       1

loop_
  _space_group_symop_operation_xyz
  'x, y, z'

loop_
  _atom_site_type_symbol
  _atom_site_label
  _atom_site_symmetry_multiplicity
  _atom_site_fract_x
  _atom_site_fract_y
  _atom_site_fract_z
  _atom_site_occupancy
  Zn  Zn1       1.0  0.4378229137782839  0.1592241405928263  0.11159686919371127  1.0000
  Zn  Zn2       1.0  0.2086988544926316  0.340799780151265  0.38847180852884816  1.0000
  Zn  Zn3       1.0  0.5495541216462809  0.8884884253111526  0.6590852273807213  1.0000
  Zn  Zn4       1.0  0.5969048858598359  0.6115219823077567  0.8409132210576116  1.0000
  Zn  Zn5       1.0  0.5621775027491795  0.8407734587286912  0.8884023761939871  1.0000
  Zn  Zn6       1.0  0.7913035665273113  0.6591999208372032  0.6115276199117118  1.0000
  Zn  Zn7       1.0  0.45044444450132215  0.11151232690212248  0.34091834814156385  1.0000
  Zn  Zn8       1.0  0.4030935722631242  0.3884798205114138  0.15908669179518847  1.0000
  Zn  Zn9       1.0  0.2661319159343876  0.20076393367806844  0.029860536660350996  1.0000
  Zn  Zn10      1.0  0.9970356599631318  0.2992415019832251  0.47026833388411377  1.0000
  Zn  Zn11      1.0  0.2963974923626435  0.970120109146599  0.700814648090187  1.0000
  Zn  Zn12      1.0  0.46677737474890096  0.5298595822042316  0.7993315148747795  1.0000
  Zn  Zn13      1.0  0.7338666255774695  0.7992362930197602  0.9701417045668845  1.0000
  Zn  Zn14      1.0  0.0029632046221765703  0.7007597754456897  0.5297322460526955  1.0000
  Zn  Zn15      1.0  0.7036024479103419  0.02987959206979701  0.2991872659722857  1.0000
  Zn  Zn16      1.0  0.5332186724192383  0.4701406443382368  0.20066754784115653  1.0000
  H   H1        1.0  0.8644957184588903  0.15638401868145732  0.7643065820717606  1.0000
  H   H2        1.0  0.28529802240571916  0.34377017020309353  0.7360684698722507  1.0000
  H   H3        1.0  0.6285479002351126  0.23616983313571896  0.6562515121170518  1.0000
  H   H4        1.0  0.020835604028249625  0.26386183566035737  0.8436740822955497  1.0000
  H   H5        1.0  0.13550370102895926  0.8436151570650738  0.235694494820052  1.0000
  H   H6        1.0  0.7147062688890035  0.6562284797429142  0.2639287999841143  1.0000
  H   H7        1.0  0.3714479334415305  0.7638319698696491  0.3437502192313174  1.0000
  H   H8        1.0  0.9791576393194815  0.73613734037896  0.15632912733273224  1.0000
  H   H9        1.0  0.7673860561006267  0.1756524382424018  0.7144848995692782  1.0000
  H   H10       1.0  0.15754022721350228  0.3245528458708691  0.7856260922168017  1.0000
  H   H11       1.0  0.4815773846686685  0.2857590880990984  0.6755027049171644  1.0000
  H   H12       1.0  0.9426448032390771  0.21430230783361987  0.8244048677575005  1.0000
  H   H13       1.0  0.23261374047299913  0.824347262932264  0.28551634736685116  1.0000
  H   H14       1.0  0.8424604520769494  0.6754442280186553  0.21437315312854818  1.0000
  H   H15       1.0  0.5184223578926322  0.7142411383785118  0.3244967106842152  1.0000
  H   H16       1.0  0.057348033646299264  0.7856973935959601  0.17559767478677193  1.0000
  H   H17       1.0  0.8151748138475627  0.0903007508129576  0.7474777354059083  1.0000
  H   H18       1.0  0.15312280997000027  0.40989508637081673  0.7526571031453597  1.0000
  H   H19       1.0  0.56242589287767  0.2528029724466379  0.5901512296766852  1.0000
  H   H20       1.0  0.9053428782671773  0.24721219179419765  0.9097690287048932  1.0000
  H   H21       1.0  0.18482384672791594  0.909698950411155  0.25252383865263534  1.0000
  H   H22       1.0  0.8468780685894545  0.5901051400573606  0.24734198533360532  1.0000
  H   H23       1.0  0.43757422676940655  0.7471977794591139  0.40984835596901076  1.0000
  H   H24       1.0  0.09464675463359368  0.7527890859885035  0.09023350108490291  1.0000
  H   H25       1.0  0.5610735515693506  0.18552863336999076  0.7775478531700484  1.0000
  H   H26       1.0  0.024673597411734294  0.3146690332736739  0.7225421253972895  1.0000
  H   H27       1.0  0.33880184924742474  0.2225602624869154  0.6854588826939148  1.0000
  H   H28       1.0  0.7466155966357919  0.277459889369041  0.8145698495943348  1.0000
  H   H29       1.0  0.4389252883802186  0.8144721185434707  0.22245139247171145  1.0000
  H   H30       1.0  0.9753275145341219  0.6853317185409082  0.27745646599964147  1.0000
  H   H31       1.0  0.6611964295014445  0.777440489642899  0.31454335857566207  1.0000
  H   H32       1.0  0.2533786453088635  0.722541388045123  0.1854288732023547  1.0000
  H   H33       1.0  0.7981020532819728  0.154360376304659  0.892556283781495  1.0000
  H   H34       1.0  0.3454253803851374  0.3458217905782277  0.6075223844094495  1.0000
  H   H35       1.0  0.6909077394489459  0.10779303144968111  0.6540365312250954  1.0000
  H   H36       1.0  0.952382072181209  0.3923897332465246  0.8459145686828503  1.0000
  H   H37       1.0  0.20189815449483445  0.8456372231459003  0.1074447929832871  1.0000
  H   H38       1.0  0.654571447147596  0.654183690135838  0.39247569736267685  1.0000
  H   H39       1.0  0.30909377421842527  0.8922087713084821  0.3459635645111945  1.0000
  H   H40       1.0  0.047613597901161556  0.6076099678678162  0.15408432398876928  1.0000
  H   H41       1.0  0.7344541904347324  0.1899431833945684  0.007778432237337489  1.0000
  H   H42       1.0  0.4324757339725951  0.31007138891848024  0.4922705776206867  1.0000
  H   H43       1.0  0.7425467660694595  0.9923746086107172  0.6897640842595648  1.0000
  H   H44       1.0  0.9243561023804364  0.5075975475578504  0.8101593328374788  1.0000
  H   H45       1.0  0.2655463944278368  0.8100549414841254  0.9922228145717606  1.0000
  H   H46       1.0  0.5675234830627429  0.6899298884231158  0.5077288380653896  1.0000
  H   H47       1.0  0.25745576927327124  0.007626143237885701  0.3102355142676457  1.0000
  H   H48       1.0  0.07564373460874668  0.4924016279305972  0.18983808130016658  1.0000
  H   H49       1.0  0.5917989429775047  0.24631602772132066  0.04139584627461801  1.0000
  H   H50       1.0  0.3796234760579509  0.25377680121111723  0.458670015841811  1.0000
  H   H51       1.0  0.6333343684985737  0.9588919925483029  0.7461261374942791  1.0000
  H   H52       1.0  0.8380229368349889  0.5411515891495354  0.7537924200427566  1.0000
  H   H53       1.0  0.40820175620785926  0.753683148017501  0.9586055706211308  1.0000
  H   H54       1.0  0.6203756512903384  0.7462239507857974  0.5413305640526502  1.0000
  H   H55       1.0  0.3666677850175475  0.0411098102060095  0.25387412824397154  1.0000
  H   H56       1.0  0.16197570540289527  0.45884968802513987  0.24620432713791016  1.0000
  H   H57       1.0  0.7768902297739045  0.0654752699676067  0.040930457774109585  1.0000
  H   H58       1.0  0.3835930151860438  0.43461931871996046  0.45907173421831965  1.0000
  H   H59       1.0  0.8179752212063535  0.9590613077714351  0.5652389087695724  1.0000
  H   H60       1.0  0.8423540991623569  0.5410234414971808  0.9345976216068476  1.0000
  H   H61       1.0  0.22311093618426983  0.9345249565440314  0.9590699649575566  1.0000
  H   H62       1.0  0.6164105124554666  0.5653814330374659  0.5409268700601259  1.0000
  H   H63       1.0  0.1820262075148095  0.040938393308209704  0.4347615139197527  1.0000
  H   H64       1.0  0.15764599584897357  0.4589767848931173  0.06540062974380588  1.0000
  H   H65       1.0  0.6693525608033967  0.06322929550984212  0.006044800540365747  1.0000
  H   H66       1.0  0.23899271580518205  0.4368597978207874  0.49407434704412606  1.0000
  H   H67       1.0  0.6755285943351838  0.9940941884978901  0.563096074020997  1.0000
  H   H68       1.0  0.732871026207711  0.5059120227726267  0.9368061791996211  1.0000
  H   H69       1.0  0.33065052944188295  0.9367693546563841  0.9939552949418554  1.0000
  H   H70       1.0  0.7610083961406742  0.5631409539937877  0.5059242443528049  1.0000
  H   H71       1.0  0.3244716690112597  0.005906563449592301  0.4369041787510496  1.0000
  H   H72       1.0  0.2671281955684536  0.49408767823512534  0.06319239923110591  1.0000
  H   H73       1.0  0.5652641293761391  0.021342757800695705  0.12240097748195206  1.0000
  H   H74       1.0  0.20905358705645946  0.47865182534283696  0.37771504880446116  1.0000
  H   H75       1.0  0.6873426222120574  0.8778164651706106  0.5211759643678134  1.0000
  H   H76       1.0  0.5864178593464473  0.6221630269780293  0.978670948512679  1.0000
  H   H77       1.0  0.4347379391937736  0.9786569432750911  0.877599615209341  1.0000
  H   H78       1.0  0.7909485712005022  0.5213484010776243  0.6222843796784403  1.0000
  H   H79       1.0  0.312657610200489  0.1221816597954017  0.478826446692018  1.0000
  H   H80       1.0  0.4135808369037477  0.3778377248937019  0.02132763000273745  1.0000
  H   H81       1.0  0.6778063671702699  0.0168094203418079  0.15507721729326104  1.0000
  H   H82       1.0  0.34962356315745075  0.483294674219735  0.3449983016563748  1.0000
  H   H83       1.0  0.8324831666590027  0.8449677907821924  0.5166902254144644  1.0000
  H   H84       1.0  0.6941345939717182  0.6550713104862282  0.9832198018783768  1.0000
  H   H85       1.0  0.32219503217431383  0.9831913315562275  0.8449227083563711  1.0000
  H   H86       1.0  0.6503762690908985  0.5167060776025565  0.6549999497366199  1.0000
  H   H87       1.0  0.1675186391479286  0.1550324357255874  0.48331036731917004  1.0000
  H   H88       1.0  0.30586602182474826  0.34492944137393533  0.016779286642936597  1.0000
  H   H89       1.0  0.7278111810834602  0.9423719903924166  0.017946919374239197  1.0000
  H   H90       1.0  0.18788454510372066  0.5577716935578892  0.48205588834719737  1.0000
  H   H91       1.0  0.7458192620009926  0.9821413900578405  0.44224700766852004  1.0000
  H   H92       1.0  0.6700836357020848  0.51786837125956  0.05761657367855122  1.0000
  H   H93       1.0  0.272193069795705  0.057627185239809406  0.9820541832806097  1.0000
  H   H94       1.0  0.812117588517495  0.4422280073471257  0.5179422058406614  1.0000
  H   H95       1.0  0.254177389341173  0.0178577858331508  0.5577552205925114  1.0000
  H   H96       1.0  0.32991646405007935  0.4821302787968947  0.9423808404167456  1.0000
  H   H97       1.0  0.8098933919922829  0.9241526968090384  0.0757539727538016  1.0000
  H   H98       1.0  0.30958598414846966  0.5760202565212111  0.4244168459397455  1.0000
  H   H99       1.0  0.885612039223915  0.9242674723347978  0.4241313950005505  1.0000
  H   H100      1.0  0.7342233223526905  0.5755671519179872  0.0757188462101013  1.0000
  H   H101      1.0  0.19011076919983338  0.0758459534785132  0.9242482941094392  1.0000
  H   H102      1.0  0.6904153905603677  0.423979969861378  0.575581745414844  1.0000
  H   H103      1.0  0.11438568936324603  0.07573380514354972  0.5758695120586734  1.0000
  H   H104      1.0  0.2657768020352126  0.424432023653914  0.924279902180245  1.0000
  H   H105      1.0  0.3262880101087833  0.2787771210737374  0.9058493656594633  1.0000
  H   H106      1.0  0.011322647902254335  0.22124681694102585  0.5943436268425513  1.0000
  H   H107      1.0  0.23260616374326307  0.09420448940473852  0.7788004099604675  1.0000
  H   H108      1.0  0.6051020646701916  0.4057990210111626  0.7212600803060524  1.0000
  H   H109      1.0  0.673709772490696  0.7212236311016653  0.09415337273450312  1.0000
  H   H110      1.0  0.9886781115935793  0.7787539349608681  0.4056561288051128  1.0000
  H   H111      1.0  0.7673966637390279  0.9057946861934739  0.22119968556409478  1.0000
  H   H112      1.0  0.3948937800454291  0.594203307126378  0.278737321204133  1.0000
  H   H113      1.0  0.3731189610256606  0.22925405763272974  0.8276297571953676  1.0000
  H   H114      1.0  0.9304779167323789  0.27080499897861193  0.6725383264414048  1.0000
  H   H115      1.0  0.20099833094224825  0.17240415086880748  0.729280680763736  1.0000
  H   H116      1.0  0.6023430004251651  0.327569182016525  0.770737400579051  1.0000
  H   H117      1.0  0.6268799281953935  0.7707477453116313  0.17237215703648448  1.0000
  H   H118      1.0  0.0695245939746129  0.7291952273545378  0.32745993779076327  1.0000
  H   H119      1.0  0.7990036233048771  0.8275944993468515  0.2707197418409065  1.0000
  H   H120      1.0  0.39765640072509695  0.6724315696805762  0.22925884943489186  1.0000
  H   H121      1.0  0.7267466326052701  0.1322134038100629  0.14159737852952503  1.0000
  H   H122      1.0  0.5006394896105278  0.3678638166178914  0.35842617904697954  1.0000
  H   H123      1.0  0.8684580035488169  0.8585738016707299  0.6319741511517448  1.0000
  H   H124      1.0  0.8588327886800827  0.6414673082315832  0.8679071410976391  1.0000
  H   H125      1.0  0.2732473942905784  0.8677857722671265  0.8584066682270758  1.0000
  H   H126      1.0  0.4993633084951837  0.6321364097987187  0.6415734194378897  1.0000
  H   H127      1.0  0.13154141593903299  0.14142537407580144  0.36802692574007506  1.0000
  H   H128      1.0  0.14116896785536437  0.3585318672452971  0.13209078304591057  1.0000
  H   H129      1.0  0.6290017044485053  0.21767457176005692  0.14027142151833513  1.0000
  H   H130      1.0  0.48704175970803487  0.28239429427188867  0.3598290707518926  1.0000
  H   H131      1.0  0.7695915070631116  0.8599911603824995  0.7175020668837178  1.0000
  H   H132      1.0  0.8468040000239299  0.6400053249942134  0.7823821478103594  1.0000
  H   H133      1.0  0.37099459918446354  0.7823230278844092  0.8597311337380801  1.0000
  H   H134      1.0  0.5129602548495599  0.7176059321068424  0.6401696906046581  1.0000
  H   H135      1.0  0.23040904842288515  0.14000801531459223  0.2824986828856807  1.0000
  H   H136      1.0  0.15319597592377948  0.3599954268698085  0.2176167707089859  1.0000
  H   H137      1.0  0.12406790320765305  0.1862249374296212  0.9345895842557963  1.0000
  H   H138      1.0  0.7454256948446557  0.31348251084552453  0.5653312297424121  1.0000
  H   H139      1.0  0.05900219518009925  0.06508541510434901  0.6864447150439829  1.0000
  H   H140      1.0  0.3102390824155208  0.43468922551945605  0.8135812500654391  1.0000
  H   H141      1.0  0.8759325625913023  0.8137737129227958  0.06541232972198692  1.0000
  H   H142      1.0  0.2545743938685305  0.6865156140787577  0.43467051419106156  1.0000
  H   H143      1.0  0.940999029531234  0.9349127097704936  0.31355670176707645  1.0000
  H   H144      1.0  0.6897581007507584  0.5653110009735726  0.18641748552807508  1.0000
  H   H145      1.0  0.18202726070703804  0.23481097979148302  0.8610135348950434  1.0000
  H   H146      1.0  0.7782182091702129  0.2650682139804204  0.6390455104266265  1.0000
  H   H147      1.0  0.04319992386624001  0.13887092361132863  0.7348635967094308  1.0000
  H   H148      1.0  0.4168101368062126  0.36103814172703613  0.7650768570139944  1.0000
  H   H149      1.0  0.8179715189320547  0.7651881959589062  0.13898737199480846  1.0000
  H   H150      1.0  0.22178377445349187  0.7349293854168409  0.36095540921770203  1.0000
  H   H151      1.0  0.9568030211223546  0.8611240487133001  0.2651384869739104  1.0000
  H   H152      1.0  0.5831870694385017  0.6389589324815789  0.23492586820204758  1.0000
  H   H153      1.0  0.15808243829739865  0.0337682442820721  0.18295579973737824  1.0000
  H   H154      1.0  0.874483810973878  0.46620226936643416  0.3171282501064424  1.0000
  H   H155      1.0  0.34078266747679475  0.8171247864547907  0.5337181643316667  1.0000
  H   H156      1.0  0.19146303437307943  0.6829734263830075  0.9665504403633274  1.0000
  H   H157      1.0  0.8419178591664429  0.9662298805131689  0.8170441128190117  1.0000
  H   H158      1.0  0.12552035177556323  0.533800058720992  0.6828713614293134  1.0000
  H   H159      1.0  0.6592177935813269  0.18287544023147012  0.466284586901473  1.0000
  H   H160      1.0  0.8085348132777028  0.31702732562162345  0.03344979952719731  1.0000
  H   H161      1.0  0.301492660984678  0.9779415051687299  0.17372476575253867  1.0000
  H   H162      1.0  0.9527706013087284  0.5220784591167772  0.3263669001277591  1.0000
  H   H163      1.0  0.4748624314741149  0.8263736800285317  0.4778349485096312  1.0000
  H   H164      1.0  0.2791692524837898  0.6736724918439876  0.02234620703207921  1.0000
  H   H165      1.0  0.6985067338674326  0.022057145062355205  0.8262749768442247  1.0000
  H   H166      1.0  0.04723399727963342  0.47792229276198844  0.6736338755317062  1.0000
  H   H167      1.0  0.5251371023365223  0.1736265465781273  0.5221662984688392  1.0000
  H   H168      1.0  0.7208280696410228  0.3263293110246225  0.9776540329431425  1.0000
  H   H169      1.0  0.2381488961272852  0.985216627799872  0.10587255689347327  1.0000
  H   H170      1.0  0.8290785271939856  0.5146617639205715  0.3942688710864528  1.0000
  H   H171      1.0  0.34367624374724653  0.8942444651982769  0.48523655201798715  1.0000
  H   H172      1.0  0.22344852655351846  0.6057678307630567  0.014809601153572816  1.0000
  H   H173      1.0  0.761851778422333  0.014782022423503308  0.8941275257072262  1.0000
  H   H174      1.0  0.17092552123266103  0.4853395133067196  0.6057305703626523  1.0000
  H   H175      1.0  0.6563235774621248  0.1057557614918352  0.5147660292131846  1.0000
  H   H176      1.0  0.7765518558565389  0.3942323957107022  0.985189984449775  1.0000
  H   H177      1.0  0.5714074825036664  0.908615985439205  0.1094061373200148  1.0000
  H   H178      1.0  0.08953566425187644  0.5913472757980287  0.3903680221247752  1.0000
  H   H179      1.0  0.6807966332028741  0.8906167699842343  0.40853357051106787  1.0000
  H   H180      1.0  0.4800479481662449  0.6095525497061163  0.09144584071362521  1.0000
  H   H181      1.0  0.4285944376260529  0.09138529192869531  0.8905946255002775  1.0000
  H   H182      1.0  0.9104649809211695  0.4086524252437371  0.6096315634362311  1.0000
  H   H183      1.0  0.31920025152570025  0.10938293129316894  0.5914681606679224  1.0000
  H   H184      1.0  0.5199520325222979  0.39044662582406187  0.9085522405503708  1.0000
  H   H185      1.0  0.654495692045842  0.8831237030962455  0.16688271939340635  1.0000
  H   H186      1.0  0.2045878502958018  0.6169141484230068  0.3330409776437263  1.0000
  H   H187      1.0  0.821359433685217  0.8331936728907366  0.3830125468185344  1.0000
  H   H188      1.0  0.5379743307763434  0.6668642137887063  0.11690634814320326  1.0000
  H   H189      1.0  0.3455051214623096  0.1168765235027038  0.8331188675890003  1.0000
  H   H190      1.0  0.7954119819525475  0.3830866033992848  0.6669572737492684  1.0000
  H   H191      1.0  0.17863823459147457  0.16680602842453848  0.6169900214887745  1.0000
  H   H192      1.0  0.462024747300461  0.3331354871773159  0.8830915631611658  1.0000
  C   C1        1.0  0.7893242220082684  0.1465264332325091  0.7598238485753084  1.0000
  C   C2        1.0  0.1958571727016647  0.35366217116268933  0.7403593551537851  1.0000
  C   C3        1.0  0.5489812561703292  0.2404716843648131  0.6463727326768661  1.0000
  C   C4        1.0  0.9357042760832286  0.25954990433088204  0.8535511250259089  1.0000
  C   C5        1.0  0.2106748156529791  0.853473793419731  0.2401778955275445  1.0000
  C   C6        1.0  0.8041438678947442  0.6463364793566414  0.2596452273294076  1.0000
  C   C7        1.0  0.4510178711779673  0.7595290676321086  0.35362784721760215  1.0000
  C   C8        1.0  0.06428827340342737  0.7404497970152305  0.14645008326566256  1.0000
  C   C9        1.0  0.6921263025804194  0.16549276706426502  0.8268467514132848  1.0000
  C   C10       1.0  0.1849101924879124  0.33466742847866016  0.6732439697307909  1.0000
  C   C11       1.0  0.5191243276879264  0.17335738485263621  0.6653170926775329  1.0000
  C   C12       1.0  0.8576223710071034  0.3266778325265706  0.8346387733685177  1.0000
  C   C13       1.0  0.30787218965995333  0.8345064086026567  0.17315282122385867  1.0000
  C   C14       1.0  0.8150876210454567  0.6653359506782125  0.3267566103753906  1.0000
  C   C15       1.0  0.48087418918818514  0.8266423163297462  0.3346838142546601  1.0000
  C   C16       1.0  0.14237096832581386  0.6733239703234376  0.16535977946855238  1.0000
  C   C17       1.0  0.5793146244278025  0.18340725492406312  0.8270966982876115  1.0000
  C   C18       1.0  0.09026576397575772  0.3167458378162849  0.6729809091623762  1.0000
  C   C19       1.0  0.4065904852632941  0.1730318640757531  0.6833042238352858  1.0000
  C   C20       1.0  0.76267914169717  0.32699678168019375  0.8167160491153493  1.0000
  C   C21       1.0  0.4206843639619606  0.8165919206972775  0.1729023772251495  1.0000
  C   C22       1.0  0.9097346787447693  0.6832559648205461  0.3270170151928865  1.0000
  C   C23       1.0  0.5934086714615743  0.826967837102771  0.31669685309886825  1.0000
  C   C24       1.0  0.23731481284875847  0.6730044956505098  0.18328133942863897  1.0000
  C   C25       1.0  0.48746357587230477  0.19852226280044502  0.8889111047122921  1.0000
  C   C26       1.0  0.07527745503634287  0.3015393475588866  0.6112055845636275  1.0000
  C   C27       1.0  0.3766234292443331  0.11119888687139934  0.6984207742551829  1.0000
  C   C28       1.0  0.6858774110951208  0.3888034253171284  0.8016049848759861  1.0000
  C   C29       1.0  0.5125382005580477  0.8014790145257251  0.11108899098164217  1.0000
  C   C30       1.0  0.9247237465965626  0.69846192960037  0.38879184262491145  1.0000
  C   C31       1.0  0.6233775327040121  0.8887997634354294  0.30158064259822476  1.0000
  C   C32       1.0  0.31411956961864723  0.6111989027709656  0.19839208951179188  1.0000
  C   C33       1.0  0.5082930325270784  0.1946579991552966  0.9541822317522699  1.0000
  C   C34       1.0  0.1575009104193937  0.30537118753267123  0.5459464778009674  1.0000
  C   C35       1.0  0.462837713013066  0.0459712580157827  0.6945014102635836  1.0000
  C   C36       1.0  0.7028590779931818  0.45405642200073976  0.8055084705999531  1.0000
  C   C37       1.0  0.4917079294212672  0.8053406511515321  0.04581918510113076  1.0000
  C   C38       1.0  0.8425003452258294  0.6946295643236341  0.4540527807223069  1.0000
  C   C39       1.0  0.5371655812420429  0.954028968355239  0.30549769109690317  1.0000
  C   C40       1.0  0.29714017471687987  0.5459459059884824  0.19448794954298168  1.0000
  C   C41       1.0  0.6213502040884865  0.18245596463021496  0.9543940831294291  1.0000
  C   C42       1.0  0.25856957099977507  0.31758226606463325  0.5457433301003929  1.0000
  C   C43       1.0  0.5761116970395153  0.045830043500046706  0.6822124888091422  1.0000
  C   C44       1.0  0.8037362320926464  0.45421298012615813  0.8177337813361588  1.0000
  C   C45       1.0  0.3786509912462677  0.8175432110630254  0.04560683664193729  1.0000
  C   C46       1.0  0.7414266508016211  0.6824205875010422  0.4542542414541088  1.0000
  C   C47       1.0  0.42389086767979467  0.9541696575301588  0.31778760675776846  1.0000
  C   C48       1.0  0.1962621767588287  0.5457877716621129  0.18226346292654938  1.0000
  C   C49       1.0  0.7107975533362777  0.1664787136559411  0.8914383418179735  1.0000
  C   C50       1.0  0.2691488754816546  0.3336564183826169  0.6086758184630198  1.0000
  C   C51       1.0  0.6025304770419525  0.10883159415529062  0.6662324512165724  1.0000
  C   C52       1.0  0.8772509952887194  0.39125264086386113  0.8337338962286578  1.0000
  C   C53       1.0  0.2892044905978963  0.8335204619043993  0.10856091657826987  1.0000
  C   C54       1.0  0.7308490324795969  0.6663459097850789  0.3913227601794204  1.0000
  C   C55       1.0  0.3974696672408624  0.891169683265908  0.3337684687241662  1.0000
  C   C56       1.0  0.12274706111272582  0.6087481110117211  0.16626451228478348  1.0000
  C   C57       1.0  0.6440015817425363  0.19344502504156938  0.0204693230587338  1.0000
  C   C58       1.0  0.3581402861479148  0.3066213219991952  0.47962334049770294  1.0000
  C   C59       1.0  0.6647362373613674  0.979746006141511  0.6932553184691199  1.0000
  C   C60       1.0  0.8373867879464503  0.5202810746894145  0.8066759879300559  1.0000
  C   C61       1.0  0.35599923650644877  0.8065536252235292  0.9795314266683159  1.0000
  C   C62       1.0  0.6418599478219492  0.6933804807666776  0.5203764152346435  1.0000
  C   C63       1.0  0.33526720059310117  0.0202542202712408  0.3067444500177173  1.0000
  C   C64       1.0  0.16261260846297182  0.4797212533415376  0.1933210993392365  1.0000
  C   C65       1.0  0.6856072149957415  0.07014627986526284  0.05474611427523259  1.0000
  C   C66       1.0  0.3107238035023983  0.42995646039102553  0.4453358203549413  1.0000
  C   C67       1.0  0.7403958627199148  0.9453509340673634  0.5699968199147776  1.0000
  C   C68       1.0  0.7557722743878301  0.5546941520179162  0.929901282256402  1.0000
  C   C69       1.0  0.3143947098748116  0.929853421168801  0.9452538112897099  1.0000
  C   C70       1.0  0.6892779482922153  0.5700442914196985  0.5546629410439579  1.0000
  C   C71       1.0  0.25960591845127123  0.054648766924962885  0.4300024385238074  1.0000
  C   C72       1.0  0.24422741416115912  0.4453065997626453  0.07009630201024208  1.0000
  C   C73       1.0  0.6572390115844939  0.013491219128489704  0.1069531880216132  1.0000
  C   C74       1.0  0.2776769128720745  0.4865982847959102  0.39313556095547836  1.0000
  C   C75       1.0  0.7639190842519311  0.8931581027692205  0.5133627594074354  1.0000
  C   C76       1.0  0.670515559821567  0.6068511604638687  0.9865294022595489  1.0000
  C   C77       1.0  0.34276422236014553  0.9865074310794595  0.8930475745869583  1.0000
  C   C78       1.0  0.7223255978349175  0.5134019415372393  0.6068627032766897  1.0000
  C   C79       1.0  0.23608196738346288  0.10684107288228968  0.4866374932375803  1.0000
  C   C80       1.0  0.32948491701637295  0.3931480150207208  0.013468181880057278  1.0000
  C   C81       1.0  0.7218795922623827  0.9404302663129087  0.07383071600894907  1.0000
  C   C82       1.0  0.23604197209812147  0.5596934903417434  0.4262052941737621  1.0000
  C   C83       1.0  0.795678915257724  0.9262410750992631  0.44032008016415575  1.0000
  C   C84       1.0  0.662317805651135  0.5737356253633338  0.05956063731458272  1.0000
  C   C85       1.0  0.2781237560050442  0.059569434755168495  0.9261702166862732  1.0000
  C   C86       1.0  0.7639594026107234  0.44030673604084564  0.5737932971808276  1.0000
  C   C87       1.0  0.20431654607397587  0.07375862614411943  0.5596806438845545  1.0000
  C   C88       1.0  0.3376800173639014  0.42626460112584397  0.9404382682808998  1.0000
  C   C89       1.0  0.36876057879680985  0.22540711107391334  0.8836436502726739  1.0000
  C   C90       1.0  0.9781707865100135  0.2746382935125027  0.6165102561307945  1.0000
  C   C91       1.0  0.2526912301181314  0.11639384685440751  0.7254186218967289  1.0000
  C   C92       1.0  0.5941223334025596  0.3835805451849056  0.774623206718516  1.0000
  C   C93       1.0  0.6312393320996037  0.7745936409608803  0.11635776675010583  1.0000
  C   C94       1.0  0.021830206372222025  0.7253629837757956  0.38348900243482814  1.0000
  C   C95       1.0  0.7473076685845826  0.8836048034222587  0.2745816178244239  1.0000
  C   C96       1.0  0.4058763382118969  0.6164196811713721  0.22537403750185087  1.0000
  C   C97       1.0  0.6393688018394741  0.16110758087409494  0.14117266927281238  1.0000
  C   C98       1.0  0.4417265366699823  0.33896159793436453  0.35890988579247807  1.0000
  C   C99       1.0  0.7807029249631016  0.8590155523711971  0.6609638537188544  1.0000
  C   C100      1.0  0.8004747326203444  0.6410038470057987  0.8389237038016615  1.0000
  C   C101      1.0  0.3606274724169228  0.8388910695887617  0.8588293889439097  1.0000
  C   C102      1.0  0.5582767329493805  0.661038102921211  0.6410878812729661  1.0000
  C   C103      1.0  0.219297978232092  0.14098519957242672  0.3390365690551603  1.0000
  C   C104      1.0  0.19952582916380374  0.35899743015731644  0.16107355338490945  1.0000
  C   C105      1.0  0.5556668004094689  0.1479165938655953  0.2097544677451565  1.0000
  C   C106      1.0  0.4133076476612416  0.3521037869764783  0.2903387895097679  1.0000
  C   C107      1.0  0.7655237509954773  0.7903834047320047  0.6478974137852516  1.0000
  C   C108      1.0  0.7036112355946429  0.7096276499613908  0.8519622255194149  1.0000
  C   C109      1.0  0.4443293007709881  0.8520831073739289  0.7902464263055149  1.0000
  C   C110      1.0  0.586693960434005  0.6478969647925156  0.7096593047627733  1.0000
  C   C111      1.0  0.23447348144228636  0.20961787279193092  0.3521039903983548  1.0000
  C   C112      1.0  0.2963915625110759  0.29037257645521913  0.14803737296544733  1.0000
  C   C113      1.0  0.17800323167374926  0.22068295398407403  0.9160380754412284  1.0000
  C   C114      1.0  0.8151896167232588  0.27912451699211976  0.5840362048445299  1.0000
  C   C115      1.0  0.09430368544661147  0.08384459330510913  0.7208404428760529  1.0000
  C   C116      1.0  0.39865645930077437  0.4160668392960361  0.7791905958727978  1.0000
  C   C117      1.0  0.8219979636610051  0.7793162217091664  0.0839628443301379  1.0000
  C   C118      1.0  0.18481152459916933  0.7208751840040648  0.41596288359209393  1.0000
  C   C119      1.0  0.9056975035899909  0.916152480922108  0.2791639694781408  1.0000
  C   C120      1.0  0.6013435801409203  0.5839302345973394  0.22080847947059107  1.0000
  C   C121      1.0  0.11950556856854916  0.2881137461062552  0.961608690771413  1.0000
  C   C122      1.0  0.8700094687169795  0.21166702236249088  0.5385521886755241  1.0000
  C   C123      1.0  0.08165653959141399  0.0384111809597343  0.788333528770998  1.0000
  C   C124      1.0  0.40782205003821337  0.4616106795801114  0.7117702061331453  1.0000
  C   C125      1.0  0.8804966730773103  0.7118849041928642  0.03839306608592348  1.0000
  C   C126      1.0  0.12998814554739363  0.7883332042557357  0.4614485482970422  1.0000
  C   C127      1.0  0.9183356122888213  0.9615906224937665  0.21167351382514007  1.0000
  C   C128      1.0  0.5921841996610199  0.5383837668682361  0.28822639625811763  1.0000
  C   C129      1.0  0.28771540065292817  0.0747248044556414  0.11483281167280514  1.0000
  C   C130      1.0  0.977290286645257  0.4252327643055623  0.38516296145623846  1.0000
  C   C131      1.0  0.4025365664124648  0.8851844644198864  0.5746681703782099  1.0000
  C   C132      1.0  0.36228679857138246  0.615014284804012  0.9254035902409253  1.0000
  C   C133      1.0  0.7122854175960571  0.9252738458094641  0.885167938054252  1.0000
  C   C134      1.0  0.022712625783249386  0.5747685129711685  0.6148368071152815  1.0000
  C   C135      1.0  0.5974632547968994  0.11481576227023278  0.4253344108529617  1.0000
  C   C136      1.0  0.6377113967885892  0.3849880434471443  0.07459632265422297  1.0000
  C   C137      1.0  0.24491780469217878  0.014052369516214505  0.14685665310634724  1.0000
  C   C138      1.0  0.9055804753811855  0.48589481914512345  0.35321583215567626  1.0000
  C   C139      1.0  0.3915006687961056  0.8532336894653765  0.5140105609575014  1.0000
  C   C140      1.0  0.2587792426045466  0.6468837468134155  0.9861195329842259  1.0000
  C   C141      1.0  0.7550828698574465  0.9859462807071538  0.853143429494352  1.0000
  C   C142      1.0  0.09442470904360802  0.5141064580327281  0.6467832821710146  1.0000
  C   C143      1.0  0.6084988896502781  0.14676706265673542  0.48599202031601857  1.0000
  C   C144      1.0  0.7412201181301513  0.3531175305699108  0.01388054982819402  1.0000
  C   C145      1.0  0.6596983428781441  0.8882206075574433  0.11072849730235391  1.0000
  C   C146      1.0  0.15858773758250783  0.6118387136409993  0.38916811900385534  1.0000
  C   C147      1.0  0.7703530091810722  0.8893406544037891  0.38810474412806417  1.0000
  C   C148      1.0  0.5480512459955876  0.6107376564047371  0.11181851495688014  1.0000
  C   C149      1.0  0.3403043655405259  0.11177909351448531  0.8892722653909073  1.0000
  C   C150      1.0  0.8414131409769472  0.38816151278717115  0.61083096947511  1.0000
  C   C151      1.0  0.22964795276727312  0.11065799590304691  0.6118966727253364  1.0000
  C   C152      1.0  0.45194914115530327  0.38926099373517087  0.8881802333911251  1.0000
  N   N1        1.0  0.6166191077812329  0.1432683302409998  0.07882546499162398  1.0000
  N   N2        1.0  0.3388539793094196  0.35682698573112503  0.4212736331910988  1.0000
  N   N3        1.0  0.695572783732402  0.9213345019874097  0.6431345171223197  1.0000
  N   N4        1.0  0.7598521910902039  0.578697903540295  0.8567916747454303  1.0000
  N   N5        1.0  0.38338031170662407  0.8567308455055314  0.9211756119001887  1.0000
  N   N6        1.0  0.661148005871603  0.6431742914660035  0.5787246311257517  1.0000
  N   N7        1.0  0.3044286156121814  0.07866624991063277  0.3568654085273123  1.0000
  N   N8        1.0  0.24014752209452433  0.42130337375571975  0.1432072438162564  1.0000
  N   N9        1.0  0.2925992659832489  0.18281732061080902  0.9211205230961637  1.0000
  N   N10       1.0  0.8967882756962878  0.31712520519312903  0.5790126224927903  1.0000
  N   N11       1.0  0.2139026137919585  0.07884235452426942  0.6829230331407244  1.0000
  N   N12       1.0  0.4753115814099122  0.4210979942416131  0.8171484043480318  1.0000
  N   N13       1.0  0.7074019293515048  0.8171818550824242  0.0788803966752026  1.0000
  N   N14       1.0  0.10321158592863355  0.682874495810765  0.4209861259398976  1.0000
  N   N15       1.0  0.7860961952237205  0.9211557704077222  0.3170783707888204  1.0000
  N   N16       1.0  0.5246870005175026  0.5789017067699903  0.18285000408071994  1.0000
  O   O1        1.0  0.4229300635343948  0.2053314388572929  0.015346947104411885  1.0000
  O   O2        1.0  0.14389444305371774  0.2946549942966215  0.48479691248617457  1.0000
  O   O3        1.0  0.4386377831938689  0.9848163030284597  0.7052681692948182  1.0000
  O   O4        1.0  0.6281591492805352  0.5152396345796929  0.7948227023081456  1.0000
  O   O5        1.0  0.5770701998120416  0.7946693130901822  0.9846533056676345  1.0000
  O   O6        1.0  0.8561029488632245  0.7053452320673729  0.515199991730256  1.0000
  O   O7        1.0  0.5613624198421051  0.015182872755950396  0.2947337447253132  1.0000
  O   O8        1.0  0.37183611433948005  0.4847605919249034  0.2051755232794718  1.0000
  O   O9        1.0  0.46126854505597253  0.1426467464538135  0.2098501629786113  1.0000
  O   O10       1.0  0.3136715298563787  0.3574513308887646  0.2902701327191507  1.0000
  O   O11       1.0  0.6712433588223095  0.7902928322182207  0.6425506451160172  1.0000
  O   O12       1.0  0.6038795024716068  0.709724987695992  0.8573614446661891  1.0000
  O   O13       1.0  0.5387285531640984  0.8573513783606972  0.7901488995679529  1.0000
  O   O14       1.0  0.6863307474641974  0.6425483700579805  0.7097286285950586  1.0000
  O   O15       1.0  0.3287554160759569  0.2097079198660126  0.3574510990291769  1.0000
  O   O16       1.0  0.3961225367217268  0.2902757641981922  0.1426386509854041  1.0000
  O   O17       1.0  0.5827418854064703  0.14368691806151898  0.26591926854906933  1.0000
  O   O18       1.0  0.4922908552412865  0.35619482906867017  0.23415842995656522  1.0000
  O   O19       1.0  0.8486339395019514  0.7341994636941679  0.6437789385219402  1.0000
  O   O20       1.0  0.7265033884867621  0.7657875008995633  0.8560573286317278  1.0000
  O   O21       1.0  0.417248883492448  0.8563143596717426  0.7340829341183052  1.0000
  O   O22       1.0  0.5077124048964095  0.6438080244545931  0.765841011619571  1.0000
  O   O23       1.0  0.15136591738213676  0.26580181364357  0.35622064716609697  1.0000
  O   O24       1.0  0.2734994096189497  0.2342127255170467  0.14394226985314157  1.0000
  O   O25       1.0  0.05022111648714399  0.3379197312370509  0.9423496552712008  1.0000
  O   O26       1.0  0.8315424182230872  0.16175328674176376  0.5578234074245427  1.0000
  O   O27       1.0  0.9933520438958328  0.05775722766362182  0.8382612344099128  1.0000
  O   O28       1.0  0.38864970480459976  0.44231622911230056  0.6618355406186394  1.0000
  O   O29       1.0  0.9497796430086894  0.6620810206648429  0.05765010037646317  1.0000
  O   O30       1.0  0.16845791017465214  0.8382474650349395  0.44217434684406937  1.0000
  O   O31       1.0  0.006649924573792961  0.9422366935504982  0.1617366764286743  1.0000
  O   O32       1.0  0.6113651755886523  0.5576740135000267  0.33815776444667006  1.0000
  O   O33       1.0  0.14679441298191878  0.28647297057168697  0.01892798737726759  1.0000
  O   O34       1.0  0.9529138677153386  0.21338454751263916  0.48126473423486243  1.0000
  O   O35       1.0  0.16625469933690343  0.9810636782650665  0.7865949405218939  1.0000
  O   O36       1.0  0.4334074558248064  0.5189141597335764  0.7135353933450472  1.0000
  O   O37       1.0  0.8532037808207421  0.7135256798796021  0.9810745808453515  1.0000
  O   O38       1.0  0.04708838022866487  0.7866162042525034  0.5187335300396468  1.0000
  O   O39       1.0  0.8337547243446223  0.018934972033378003  0.21340935348343487  1.0000
  O   O40       1.0  0.5665913983472566  0.4810818631783464  0.2864613405306641  1.0000
  O   O41       1.0  0.22481643466841217  0.122037827081293  0.08501418389976577  1.0000
  O   O42       1.0  0.9320392211651691  0.37790185496945133  0.4150885164046443  1.0000
  O   O43       1.0  0.30996244393256966  0.9151664773343458  0.6219724275987771  1.0000
  O   O44       1.0  0.34686933724266567  0.5851530826880875  0.8780428952512905  1.0000
  O   O45       1.0  0.775184527279933  0.8779608232255356  0.9149872329536419  1.0000
  O   O46       1.0  0.06796317047819396  0.6220988968374146  0.5849104149962157  1.0000
  O   O47       1.0  0.6900364452884773  0.08483532561001542  0.37802948663307484  1.0000
  O   O48       1.0  0.6531288874938852  0.4148481947446784  0.12195751468354384  1.0000
  O   O49       1.0  0.38334210041598743  0.07490561386645571  0.11864421752461139  1.0000
  O   O50       1.0  0.0769418340240975  0.42510437646551946  0.3812214467902848  1.0000
  O   O51       1.0  0.5020961747184528  0.8811347298583815  0.5748267780535911  1.0000
  O   O52       1.0  0.4580119947893314  0.6189694816660277  0.925254218786186  1.0000
  O   O53       1.0  0.6166601213349595  0.9250909345833663  0.8813553677823334  1.0000
  O   O54       1.0  0.923059475633437  0.5748958500878417  0.6187796430677321  1.0000
  O   O55       1.0  0.4979036171143394  0.11886654765012852  0.4251753061378876  1.0000
  O   O56       1.0  0.541988472566942  0.3810328464862494  0.07474503986412631  1.0000
