data_image0
_chemical_formula_structural       Cd2H32C44S4N20O2
_chemical_formula_sum              "Cd2 H32 C44 S4 N20 O2"
_cell_length_a       9.861169364591934
_cell_length_b       11.314061094573137
_cell_length_c       11.479030654295777
_cell_angle_alpha    82.28979320700199
_cell_angle_beta     81.08058295038617
_cell_angle_gamma    72.0422361421037

_space_group_name_H-M_alt    "P 1"
_space_group_IT_number       1

loop_
  _space_group_symop_operation_xyz
  'x, y, z'

loop_
  _atom_site_type_symbol
  _atom_site_label
  _atom_site_symmetry_multiplicity
  _atom_site_fract_x
  _atom_site_fract_y
  _atom_site_fract_z
  _atom_site_occupancy
  Cd  Cd1       1.0  0.7408072560636967  0.9749688030898512  0.5986409501762678  1.0000
  Cd  Cd2       1.0  0.2591933191403513  0.0250316318761818  0.4013593203456054  1.0000
  H   H1        1.0  0.5972950383734458  0.19820725882066628  0.977968700421215  1.0000
  H   H2        1.0  0.4027034891281076  0.801793179390124  0.022029225351929024  1.0000
  H   H3        1.0  0.4471351193734917  0.1944220145061379  0.8226671699015143  1.0000
  H   H4        1.0  0.5528617554422866  0.8055803008639729  0.17733246324400648  1.0000
  H   H5        1.0  0.38736179448395797  0.3721668242433793  0.6694105089595863  1.0000
  H   H6        1.0  0.6126361147663886  0.6278354800587422  0.3305872473809756  1.0000
  H   H7        1.0  0.6215038941436575  0.5617361067130417  0.8266256455119956  1.0000
  H   H8        1.0  0.37849627092464283  0.43826246783216044  0.1733749288592321  1.0000
  H   H9        1.0  0.4245953833613925  0.5597745361066373  0.5696350541892699  1.0000
  H   H10       1.0  0.5754062202296096  0.44022589318889527  0.4303650819158307  1.0000
  H   H11       1.0  0.35371308025504783  0.6582809858956508  0.6848242438342708  1.0000
  H   H12       1.0  0.646287491925193  0.34171945176913  0.31517689788169884  1.0000
  H   H13       1.0  0.4805579428718546  0.8128735798317589  0.7118775065363321  1.0000
  H   H14       1.0  0.5194429384339969  0.1871259247873525  0.28812371989592117  1.0000
  H   H15       1.0  0.8491759242232036  0.6853286140001416  0.4708480656525466  1.0000
  H   H16       1.0  0.1508243388314412  0.3146727567103014  0.5291529913471322  1.0000
  H   H17       1.0  0.8191886618296921  0.6765840996878012  0.010798687794810692  1.0000
  H   H18       1.0  0.18081047787546106  0.3234144778291466  0.9892011497990933  1.0000
  H   H19       1.0  0.8867686383640531  0.9256957508247863  0.13463614845660732  1.0000
  H   H20       1.0  0.11323214495545393  0.07430095762907743  0.8653645953472021  1.0000
  H   H21       1.0  0.035981868726189234  0.8642646498926891  0.027273428534279314  1.0000
  H   H22       1.0  0.9640179841927079  0.13573486039691568  0.9727279323147469  1.0000
  H   H23       1.0  0.06703870996904733  0.7503966612918233  0.25613909490846964  1.0000
  H   H24       1.0  0.9329638300701858  0.24960096077047214  0.7438586817632212  1.0000
  H   H25       1.0  0.09947505971026523  0.5378774560419117  0.35448965201125293  1.0000
  H   H26       1.0  0.9005261428164104  0.46212110473655355  0.6455081743609197  1.0000
  H   H27       1.0  0.9887913789767142  0.3924454104123782  0.2842984238868737  1.0000
  H   H28       1.0  0.011207451602828718  0.6075541001502387  0.7157013289907468  1.0000
  H   H29       1.0  0.5313305263192305  0.9856711404561268  0.8834176675995166  1.0000
  H   H30       1.0  0.46867045599675805  0.0143311576294849  0.11658317026710559  1.0000
  H   H31       1.0  0.9820396152691373  0.8704881510282548  0.8121441113557349  1.0000
  H   H32       1.0  0.017959928524156496  0.12951229230701952  0.18785716477700726  1.0000
  C   C1        1.0  0.7077121745885933  0.37849960820429357  0.0009452117871546835  1.0000
  C   C2        1.0  0.2922891229006198  0.62150175143816  0.9990539684075657  1.0000
  C   C3        1.0  0.6188276816204522  0.3800899055934722  0.9109514136321122  1.0000
  C   C4        1.0  0.38117186519664153  0.6199105350430543  0.08904899130654093  1.0000
  C   C5        1.0  0.5688546790350273  0.2763229057726022  0.9107063012526522  1.0000
  C   C6        1.0  0.43114352724570176  0.7236784762788346  0.08929502458057927  1.0000
  C   C7        1.0  0.48543678419772346  0.2744764358368386  0.8243713633754055  1.0000
  C   C8        1.0  0.5145637879825172  0.7255240018279422  0.17562977834056434  1.0000
  C   C9        1.0  0.4509800656261831  0.3748468464403486  0.7382037627467639  1.0000
  C   C10       1.0  0.5490184497801494  0.6251536025654261  0.2617976478027514  1.0000
  C   C11       1.0  0.49796311657554065  0.4794141566038803  0.7389181927972786  1.0000
  C   C12       1.0  0.5020350957528024  0.5205872200500679  0.26108139064776037  1.0000
  C   C13       1.0  0.5823625658986059  0.4817534838125824  0.8253610586016007  1.0000
  C   C14       1.0  0.4176383244786593  0.5182460127102856  0.17463755424837754  1.0000
  C   C15       1.0  0.45124192889349496  0.5892104001406366  0.6482858680276706  1.0000
  C   C16       1.0  0.5487576148997989  0.4107900431946375  0.351715408105072  1.0000
  C   C17       1.0  0.5643185963045454  0.7592284852072951  0.6503164979970036  1.0000
  C   C18       1.0  0.4356819849471094  0.24077194436124927  0.349682030136691  1.0000
  C   C19       1.0  0.749135228474408  0.6912555626875303  0.5278514000801452  1.0000
  C   C20       1.0  0.25086595590943256  0.308743014283408  0.47215165345658505  1.0000
  C   C21       1.0  0.8319167546114058  0.44256572799050525  0.10380573396882652  1.0000
  C   C22       1.0  0.16808289926344602  0.5574375007150322  0.8961925400159956  1.0000
  C   C23       1.0  0.8974143077686135  0.5263473864674991  0.14318728621928759  1.0000
  C   C24       1.0  0.10258966172190745  0.4736520984413701  0.856812665768558  1.0000
  C   C25       1.0  0.8808411239830533  0.6469665395537803  0.08594038895817856  1.0000
  C   C26       1.0  0.11915873498345059  0.3530329653383363  0.9140592295026622  1.0000
  C   C27       1.0  0.9416424513597192  0.7278511561113703  0.12589983955022177  1.0000
  C   C28       1.0  0.05835977653010358  0.27214740169533513  0.8740987235992748  1.0000
  C   C29       1.0  0.9292853458273098  0.8582431133194746  0.06745748741847277  1.0000
  C   C30       1.0  0.07071481924099031  0.1417554612257277  0.932543086952755  1.0000
  C   C31       1.0  0.019336890670523143  0.687827378365739  0.22352348522658613  1.0000
  C   C32       1.0  0.9806652392329623  0.3121683832757256  0.7764745952944593  1.0000
  C   C33       1.0  0.03703761246790548  0.5676286313510133  0.27968059361587894  1.0000
  C   C34       1.0  0.9629642052861768  0.43236806603486144  0.720318273382965  1.0000
  C   C35       1.0  0.9764752782745632  0.4862328844515604  0.2405279058918524  1.0000
  C   C36       1.0  0.02352519894314749  0.513764754349225  0.7594718820015699  1.0000
  C   C37       1.0  0.6445714912164036  0.9541155425888662  0.895021201960681  1.0000
  C   C38       1.0  0.35542846271263073  0.04588676116723891  0.10497977032270707  1.0000
  C   C39       1.0  0.8727329589251767  0.8987191858373155  0.8560230115320095  1.0000
  C   C40       1.0  0.12726627574250668  0.10128219054362828  0.1439781798844493  1.0000
  C   C41       1.0  0.38240406542757194  0.04367569613534529  0.6449257062603663  1.0000
  C   C42       1.0  0.6175930235512795  0.9563228873251146  0.35507265777889785  1.0000
  C   C43       1.0  0.08459318506128707  0.8315501027137913  0.5130790006450283  1.0000
  C   C44       1.0  0.9154072679659819  0.16844755767696282  0.486927756801137  1.0000
  S   S1        1.0  0.2274099751121811  0.7945792259738481  0.4164335876663046  1.0000
  S   S2        1.0  0.7725882281447413  0.20542215877633643  0.5835686093610162  1.0000
  S   S3        1.0  0.2317968964210095  0.011695224503967002  0.6458017471938859  1.0000
  S   S4        1.0  0.7682009087953928  0.9883042890304027  0.354197268906418  1.0000
  N   N1        1.0  0.7554149047083384  0.2872002197140943  0.08178259118346892  1.0000
  N   N2        1.0  0.24458402083374153  0.7128020897125182  0.9182185155166989  1.0000
  N   N3        1.0  0.8355169282215655  0.3284921808733756  0.14776487785722028  1.0000
  N   N4        1.0  0.16448478545099474  0.6715110337924202  0.8522322560999669  1.0000
  N   N5        1.0  0.8364350792070637  0.8962687176095302  0.9742556902778785  1.0000
  N   N6        1.0  0.16356446761002988  0.10373172302699632  0.025744714660767398  1.0000
  N   N7        1.0  0.7528251405168759  0.9359694268127894  0.8036873425223803  1.0000
  N   N8        1.0  0.2471751225377616  0.06403194389765329  0.19631371447729853  1.0000
  N   N9        1.0  0.5590006014759225  0.6541777525776881  0.611403311664034  1.0000
  N   N10       1.0  0.4409999737281254  0.34582268238834496  0.38859695885783907  1.0000
  N   N11       1.0  0.6838989930840143  0.7855038473011434  0.5988098749160286  1.0000
  N   N12       1.0  0.31610394801955266  0.2144956432782266  0.4011902114885898  1.0000
  N   N13       1.0  0.4931423893340748  0.06481384352710509  0.6438900306588452  1.0000
  N   N14       1.0  0.5068561351436783  0.9351865973824331  0.35610876630839516  1.0000
  N   N15       1.0  0.9822994176024904  0.8582706170205585  0.5845484724699972  1.0000
  N   N16       1.0  0.017700848475954  0.1417307509911367  0.41545171333559233  1.0000
  N   N17       1.0  0.6906906632339016  0.9310604861923721  0.0009797996587649202  1.0000
  N   N18       1.0  0.3093085744575959  0.06894088748982341  0.9990205205635974  1.0000
  N   N19       1.0  0.6770907739399661  0.6084093412013445  0.533261010675659  1.0000
  N   N20       1.0  0.32290877287712755  0.39159109943518183  0.4667393942629873  1.0000
  O   O1        1.0  0.7524215419070474  0.480264306325097  0.009691096117627774  1.0000
  O   O2        1.0  0.24758110216613718  0.5197361065049506  0.9903054207943354  1.0000
