data_image0
_chemical_formula_structural       Zn8H32C32I16N16
_chemical_formula_sum              "Zn8 H32 C32 I16 N16"
_cell_length_a       6.448272806414826
_cell_length_b       14.24998642618756
_cell_length_c       19.057531845929216
_cell_angle_alpha    90.00052686878439
_cell_angle_beta     90.18492840914365
_cell_angle_gamma    90.00026163374396

_space_group_name_H-M_alt    "P 1"
_space_group_IT_number       1

loop_
  _space_group_symop_operation_xyz
  'x, y, z'

loop_
  _atom_site_type_symbol
  _atom_site_label
  _atom_site_symmetry_multiplicity
  _atom_site_fract_x
  _atom_site_fract_y
  _atom_site_fract_z
  _atom_site_occupancy
  Zn  Zn1       1.0  0.1684125705920039  0.268529604660003  0.9161884799927265  1.0000
  Zn  Zn2       1.0  0.8315885197061094  0.7685294004337779  0.5838118795802247  1.0000
  Zn  Zn3       1.0  0.8315817979204567  0.7314694293011357  0.08381198454799943  1.0000
  Zn  Zn4       1.0  0.1684136076713614  0.23147244056198701  0.41618963883144033  1.0000
  Zn  Zn5       1.0  0.615415594490905  0.2704751943122403  0.6683689939236787  1.0000
  Zn  Zn6       1.0  0.38458705943373417  0.7704659197345907  0.831629805628019  1.0000
  Zn  Zn7       1.0  0.38458652328726123  0.7295287519356961  0.331630425579533  1.0000
  Zn  Zn8       1.0  0.6154166091137087  0.22953030720933046  0.16836961472948533  1.0000
  H   H1        1.0  0.942882725279624  0.23631547734488115  0.7789748378011654  1.0000
  H   H2        1.0  0.0571226802870228  0.7363125891780484  0.7210242544699029  1.0000
  H   H3        1.0  0.057119390092381594  0.7636877671447523  0.22102405697073385  1.0000
  H   H4        1.0  0.942891836720044  0.26368433952225706  0.2789735978681662  1.0000
  H   H5        1.0  0.5432179392508586  0.46014382320680625  0.7413324113792187  1.0000
  H   H6        1.0  0.45678822706020844  0.9601422136109649  0.7586687366498595  1.0000
  H   H7        1.0  0.4567841761211541  0.53985942128282  0.25866648339268045  1.0000
  H   H8        1.0  0.5431999670681052  0.0398610309131655  0.24133802112943675  1.0000
  H   H9        1.0  0.6829210359121092  0.5441033038883917  0.8483504609188304  1.0000
  H   H10       1.0  0.3170808695227194  0.044103343851695294  0.651654661165452  1.0000
  H   H11       1.0  0.31708108186244033  0.45589994060448186  0.1516489585819869  1.0000
  H   H12       1.0  0.6829166294673781  0.9559013041920396  0.3483521019028615  1.0000
  H   H13       1.0  0.9522600442619195  0.4581039488786017  0.9215719601926936  1.0000
  H   H14       1.0  0.04774920022254751  0.9581027858075758  0.5784286509092811  1.0000
  H   H15       1.0  0.0477405202973813  0.5418985938543912  0.07842693369610032  1.0000
  H   H16       1.0  0.9522575819955962  0.04190116046135021  0.42157339488061046  1.0000
  H   H17       1.0  0.9199036890158111  0.2910296079729521  0.052564835939627116  1.0000
  H   H18       1.0  0.08009541581474622  0.7910288665676859  0.44743352372227463  1.0000
  H   H19       1.0  0.0800875658440461  0.7089652154384468  0.947433003180706  1.0000
  H   H20       1.0  0.9199005083336047  0.2089743779318596  0.5525679911713866  1.0000
  H   H21       1.0  0.9369631086821572  0.08433992259946171  0.8979886099430061  1.0000
  H   H22       1.0  0.0630174644872739  0.5843390824284782  0.6020089042584902  1.0000
  H   H23       1.0  0.06302814858385371  0.9156556025702471  0.10200975390864643  1.0000
  H   H24       1.0  0.936973790390681  0.4156592497581926  0.39798893487385817  1.0000
  H   H25       1.0  0.7168633062000114  0.9782666335487706  0.9738173118656449  1.0000
  H   H26       1.0  0.283132184212711  0.4782664553205435  0.52618237985115  1.0000
  H   H27       1.0  0.2831403599304068  0.021726786371686995  0.026181583753334806  1.0000
  H   H28       1.0  0.7168621674855801  0.5217332803729136  0.4738144115895724  1.0000
  H   H29       1.0  0.5976373315796196  0.043743669568073094  0.09116831166146261  1.0000
  H   H30       1.0  0.40237010420041486  0.5437438075812864  0.4088341337347076  1.0000
  H   H31       1.0  0.4023616845224468  0.9562490485958223  0.908831106041923  1.0000
  H   H32       1.0  0.5976273611468629  0.45625943690684784  0.5911652831239991  1.0000
  C   C1        1.0  0.8839635355786299  0.30491207276896404  0.7949363574129508  1.0000
  C   C2        1.0  0.11605034134038308  0.8049119139397192  0.7050653076691519  1.0000
  C   C3        1.0  0.11604013300138397  0.6950904699704452  0.20506306296616125  1.0000
  C   C4        1.0  0.8839595352738386  0.19508922530241082  0.2949351656857999  1.0000
  C   C5        1.0  0.665685137005447  0.4299209626081151  0.7739087287182471  1.0000
  C   C6        1.0  0.3343284859843152  0.9299222096423848  0.72609536524908  1.0000
  C   C7        1.0  0.3343200823872863  0.5700822818879347  0.22609069254396993  1.0000
  C   C8        1.0  0.6656705566036225  0.0700817366381301  0.2739098245107954  1.0000
  C   C9        1.0  0.7407585982301869  0.4752765370275114  0.8332488794480427  1.0000
  C   C10       1.0  0.25924152336791917  0.9752754935304823  0.6667528933590107  1.0000
  C   C11       1.0  0.25924507035345107  0.5247267074669538  0.1667505409334709  1.0000
  C   C12       1.0  0.7407575168138579  0.0247277509917296  0.333251771669545  1.0000
  C   C13       1.0  0.8882558517101059  0.4285028552246716  0.8733088514065203  1.0000
  C   C14       1.0  0.11176085826637212  0.9285038230989144  0.6266952346155749  1.0000
  C   C15       1.0  0.11174626606081968  0.5714996875131603  0.12669056809188825  1.0000
  C   C16       1.0  0.8882474795659475  0.0715001231780974  0.3733078615128491  1.0000
  C   C17       1.0  0.871605320326104  0.2216483273269034  0.034331747789146015  1.0000
  C   C18       1.0  0.12839616552679442  0.7216451027438068  0.46566508931483963  1.0000
  C   C19       1.0  0.1283905845620978  0.7783471978410503  0.9656655692467812  1.0000
  C   C20       1.0  0.8716013070244842  0.2783574399990201  0.5343359017282056  1.0000
  C   C21       1.0  0.8804906886379557  0.10621529233098673  0.9494790875746947  1.0000
  C   C22       1.0  0.11950406267740729  0.6062125263091076  0.5505175348060902  1.0000
  C   C23       1.0  0.11950676705571081  0.8937795310834957  0.050518230339534405  1.0000
  C   C24       1.0  0.880488750220877  0.3937865076439521  0.4494818793961033  1.0000
  C   C25       1.0  0.7582744959120404  0.04866800252963089  0.9911284730406963  1.0000
  C   C26       1.0  0.2417212341713082  0.5486705837016714  0.5088724789394521  1.0000
  C   C27       1.0  0.24172297418964214  0.9513254173942369  0.008871993242223701  1.0000
  C   C28       1.0  0.7582762287661923  0.45133125727310397  0.49112641318554034  1.0000
  C   C29       1.0  0.6935452971915269  0.08438498684820672  0.0552150626477541  1.0000
  C   C30       1.0  0.30646099263425  0.5843832694615471  0.4447845116414444  1.0000
  C   C31       1.0  0.30645681092217814  0.9156084330609177  0.944782257903775  1.0000
  C   C32       1.0  0.6935364727130277  0.41561997502658704  0.5552149052172555  1.0000
  I   I1        1.0  0.3633382257420762  0.1474218634727293  0.8425556528791773  1.0000
  I   I2        1.0  0.6366616175464301  0.6474228758062284  0.6574444025523647  1.0000
  I   I3        1.0  0.6366561379725368  0.8525785739920195  0.1574437622085156  1.0000
  I   I4        1.0  0.36333895421324763  0.35257826342640897  0.34255606551837303  1.0000
  I   I5        1.0  0.36260458156606745  0.37686724990363274  0.9973999724775526  1.0000
  I   I6        1.0  0.6374084724637826  0.8768677510648288  0.502599035821639  1.0000
  I   I7        1.0  0.6374037322082557  0.6231303805453905  0.0025978763401184007  1.0000
  I   I8        1.0  0.36258900248279957  0.12313338817114072  0.4974024799455209  1.0000
  I   I9        1.0  0.7627253204899489  0.1053089291155516  0.6777660001841782  1.0000
  I   I10       1.0  0.23726785622926633  0.6053020456674999  0.8222274667250815  1.0000
  I   I11       1.0  0.23726749242643316  0.8946936136127802  0.3222334140300164  1.0000
  I   I12       1.0  0.7627311526905203  0.3946955847720304  0.17777037680837543  1.0000
  I   I13       1.0  0.2486132498581455  0.341330268641947  0.658864856418049  1.0000
  I   I14       1.0  0.7513901446563338  0.8413204540929372  0.841136526987256  1.0000
  I   I15       1.0  0.7513888511022344  0.6586736775832449  0.3411308899827575  1.0000
  I   I16       1.0  0.24861508188971726  0.15867226408703772  0.15886446842568352  1.0000
  N   N1        1.0  0.958861734455013  0.34319044521080844  0.8539410835090424  1.0000
  N   N2        1.0  0.041146317296565406  0.8431872986034961  0.6460571669189508  1.0000
  N   N3        1.0  0.04114038571484  0.6568113957752076  0.14605886071588264  1.0000
  N   N4        1.0  0.9588620013009505  0.15681384062730072  0.3539417313685505  1.0000
  N   N5        1.0  0.7382119463387725  0.3448899597140879  0.7547655866106169  1.0000
  N   N6        1.0  0.2617899269150357  0.844886383832332  0.7452342461115009  1.0000
  N   N7        1.0  0.2617901666234559  0.6551118812621866  0.24523278342756077  1.0000
  N   N8        1.0  0.7382106520486501  0.15511405365499092  0.2547677961435754  1.0000
  N   N9        1.0  0.7465645682065016  0.1715003391617813  0.07585414460682223  1.0000
  N   N10       1.0  0.2534333179237578  0.6715031708354005  0.4241465453695454  1.0000
  N   N11       1.0  0.25343134388208455  0.8284937825058092  0.9241447466110487  1.0000
  N   N12       1.0  0.7465672538467842  0.3285000736623971  0.5758539227083972  1.0000
  N   N13       1.0  0.941049477509239  0.1915482063882479  0.9720439974092091  1.0000
  N   N14       1.0  0.05894150173560318  0.6915478449990218  0.5279532063654032  1.0000
  N   N15       1.0  0.05894177976401241  0.8084487222915654  0.02795436644724701  1.0000
  N   N16       1.0  0.9410544175931862  0.3084525924738131  0.4720472590608225  1.0000
