data_image0
_chemical_formula_structural       Zn2H16C16N8Cl4
_chemical_formula_sum              "Zn2 H16 C16 N8 Cl4"
_cell_length_a       7.301896343218848
_cell_length_b       7.301942062559823
_cell_length_c       10.205846225129994
_cell_angle_alpha    89.9998966202235
_cell_angle_beta     90.00057326991717
_cell_angle_gamma    91.66481138549229

_space_group_name_H-M_alt    "P 1"
_space_group_IT_number       1

loop_
  _space_group_symop_operation_xyz
  'x, y, z'

loop_
  _atom_site_type_symbol
  _atom_site_label
  _atom_site_symmetry_multiplicity
  _atom_site_fract_x
  _atom_site_fract_y
  _atom_site_fract_z
  _atom_site_occupancy
  Zn  Zn1       1.0  0.7499989320212492  0.2499990621622388  0.7500010784473192  1.0000
  Zn  Zn2       1.0  0.24999852191950106  0.7500014063419299  0.24999924978647672  1.0000
  H   H1        1.0  0.34414070433857097  0.13101269153853684  0.8131292089206358  1.0000
  H   H2        1.0  0.15586380457845192  0.3689864503495813  0.8131313109580917  1.0000
  H   H3        1.0  0.8689804550495593  0.6558642154928693  0.6868736834561915  1.0000
  H   H4        1.0  0.6310116203947232  0.8441421144483315  0.6868668230216033  1.0000
  H   H5        1.0  0.6558607102319198  0.8689836392356869  0.18687013949962514  1.0000
  H   H6        1.0  0.8441363387904842  0.6310126297124798  0.18686999711684393  1.0000
  H   H7        1.0  0.13101318527971273  0.3441445008757925  0.3131315439110837  1.0000
  H   H8        1.0  0.36898324207775357  0.15586248259501898  0.3131276262167333  1.0000
  H   H9        1.0  0.8318376213889566  0.0378531081965718  0.010950601008239904  1.0000
  H   H10       1.0  0.6681689809616458  0.4621422289458863  0.010950703973847504  1.0000
  H   H11       1.0  0.9621456640257762  0.16817020649119033  0.4890495010136746  1.0000
  H   H12       1.0  0.537852921553892  0.3318352530637867  0.4890459092383211  1.0000
  H   H13       1.0  0.168166482596078  0.962141834137462  0.9890477675920482  1.0000
  H   H14       1.0  0.3318337048444774  0.5378513525356894  0.989051583944523  1.0000
  H   H15       1.0  0.037849443499865715  0.831841240773173  0.5109547465264299  1.0000
  H   H16       1.0  0.46214458134976866  0.6681665854913279  0.5109495198419226  1.0000
  C   C1        1.0  0.4141984080832728  0.07256828308860722  0.8967844934611692  1.0000
  C   C2        1.0  0.08581279071123049  0.42743202772962974  0.8967879731774104  1.0000
  C   C3        1.0  0.9274341275706632  0.5858127225122516  0.6032209069576383  1.0000
  C   C4        1.0  0.5725703779822311  0.9141909396798481  0.6032154914742948  1.0000
  C   C5        1.0  0.5858057449260271  0.9274280292877108  0.1032177944605834  1.0000
  C   C6        1.0  0.9141941987377039  0.5725670063400655  0.10321823407487331  1.0000
  C   C7        1.0  0.07256630982797668  0.4141945778198349  0.3967872599266258  1.0000
  C   C8        1.0  0.42743088959044684  0.0858012809569573  0.3967828771176941  1.0000
  C   C9        1.0  0.6832301338192935  0.021647676355762303  0.005832424706106601  1.0000
  C   C10       1.0  0.8167682310491955  0.47834909607244913  0.0058316105770402  1.0000
  C   C11       1.0  0.9783491910392071  0.3167676274948831  0.49416809215242813  1.0000
  C   C12       1.0  0.5216465803551315  0.18323373026216672  0.49416458776073574  1.0000
  C   C13       1.0  0.3167726989505582  0.9783500152680347  0.9941659438877438  1.0000
  C   C14       1.0  0.18322775568837807  0.5216486415369773  0.9941687176533662  1.0000
  C   C15       1.0  0.021649485085653508  0.6832287216782121  0.5058273369357806  1.0000
  C   C16       1.0  0.4783524877457096  0.8167735792799463  0.5058308413213697  1.0000
  N   N1        1.0  0.5969780930247096  0.09415859337672569  0.9030031382164767  1.0000
  N   N2        1.0  0.9030329026579693  0.40584052687096056  0.9030030414335785  1.0000
  N   N3        1.0  0.9058418075176461  0.4030277494542318  0.5969970710523924  1.0000
  N   N4        1.0  0.5941581331289357  0.09697338791954022  0.5969942043246662  1.0000
  N   N5        1.0  0.40302337054277615  0.905839107443626  0.09699621020302372  1.0000
  N   N6        1.0  0.09697540695542269  0.594157127961836  0.09699630701047822  1.0000
  N   N7        1.0  0.09415691763147291  0.5969699697611403  0.403002277357281  1.0000
  N   N8        1.0  0.4058419122323684  0.9030229520521901  0.40300514409067745  1.0000
  Cl  Cl1       1.0  0.5178951187177248  0.48210464588360946  0.7500010678293308  1.0000
  Cl  Cl2       1.0  0.9821042125074938  0.017896209338502396  0.7499981495770173  1.0000
  Cl  Cl3       1.0  0.48210370443902667  0.5178958134220865  0.2500002402399346  1.0000
  Cl  Cl4       1.0  0.017893290416623107  0.9821056292137272  0.2500002189948987  1.0000
