data_image0
_chemical_formula_structural       Zn8H64C80O32
_chemical_formula_sum              "Zn8 H64 C80 O32"
_cell_length_a       12.9932363617662
_cell_length_b       16.92407117887845
_cell_length_c       17.83918650815183
_cell_angle_alpha    83.1707923566699
_cell_angle_beta     71.95143397424357
_cell_angle_gamma    67.42783223185728

_space_group_name_H-M_alt    "P 1"
_space_group_IT_number       1

loop_
  _space_group_symop_operation_xyz
  'x, y, z'

loop_
  _atom_site_type_symbol
  _atom_site_label
  _atom_site_symmetry_multiplicity
  _atom_site_fract_x
  _atom_site_fract_y
  _atom_site_fract_z
  _atom_site_occupancy
  Zn  Zn1       1.0  0.10563765142277508  0.7887257596040625  0.7499949897933931  1.0000
  Zn  Zn2       1.0  0.8943627564532831  0.21127450384032187  0.2500046786766887  1.0000
  Zn  Zn3       1.0  0.6175053190778925  0.7648911130933412  0.7499724395714508  1.0000
  Zn  Zn4       1.0  0.3824934698991739  0.2351091503409535  0.2500275996072006  1.0000
  Zn  Zn5       1.0  0.8888371158144535  0.722903799649913  0.7611796661432209  1.0000
  Zn  Zn6       1.0  0.3881338608549286  0.7229936823952984  0.7388089806719831  1.0000
  Zn  Zn7       1.0  0.11116410151110052  0.27709646379950925  0.23881981697257257  1.0000
  Zn  Zn8       1.0  0.6118662309674575  0.2770072209482494  0.26119124748289835  1.0000
  H   H1        1.0  0.11124955727282791  0.49472613852678643  0.5538952267681765  1.0000
  H   H2        1.0  0.39410869977184143  0.49476429681743633  0.9460751689451995  1.0000
  H   H3        1.0  0.8887500411537343  0.5052741249125603  0.44610462705619375  1.0000
  H   H4        1.0  0.6058920280427599  0.5052353267347699  0.053924499519844515  1.0000
  H   H5        1.0  0.2770444593215586  0.6855286179282913  0.6262903713867658  1.0000
  H   H6        1.0  0.037409025028033185  0.6855308009695377  0.8738102660354342  1.0000
  H   H7        1.0  0.7229562646081648  0.3144710056169231  0.3737087373985162  1.0000
  H   H8        1.0  0.9625913867328963  0.3144694624818384  0.1261899621144095  1.0000
  H   H9        1.0  0.39589973247719007  0.5804211151846842  0.51887980537267  1.0000
  H   H10       1.0  0.02375739608116593  0.5803780542681664  0.9811888784936116  1.0000
  H   H11       1.0  0.6041009914525334  0.41957850836053007  0.4811193034126049  1.0000
  H   H12       1.0  0.9762438212443885  0.41962220918125576  0.018810604622181957  1.0000
  H   H13       1.0  0.4216023379627601  0.47179555416000346  0.4348121785865756  1.0000
  H   H14       1.0  0.10678395801867416  0.4717452288483769  0.06523023028776012  1.0000
  H   H15       1.0  0.5783975804023456  0.528204069387165  0.5651876752327496  1.0000
  H   H16       1.0  0.8932164537422551  0.5282550346029992  0.9347699978620767  1.0000
  H   H17       1.0  0.22229121864487672  0.40626112421303867  0.460008948837526  1.0000
  H   H18       1.0  0.37160837793342677  0.40632764528932347  0.04002129193197848  1.0000
  H   H19       1.0  0.7777067569978301  0.5937391392092267  0.5399907160156515  1.0000
  H   H20       1.0  0.6283909005545923  0.5936732580421874  0.9599785618974365  1.0000
  H   H21       1.0  0.9181523007877388  0.543483215693648  0.6044310335260834  1.0000
  H   H22       1.0  0.538387118071988  0.5434993856721844  0.895453840658412  1.0000
  H   H23       1.0  0.0818461682507916  0.45651768763282524  0.3955690056576131  1.0000
  H   H24       1.0  0.46161296986552725  0.4565015176643712  0.10454582781671462  1.0000
  H   H25       1.0  0.8326824055237483  0.5683506444944227  0.7042977417765356  1.0000
  H   H26       1.0  0.5989550988361572  0.5683541378672389  0.7955785080368541  1.0000
  H   H27       1.0  0.1673171967876854  0.43164961895191567  0.2957026717275895  1.0000
  H   H28       1.0  0.40104498910136505  0.431646765469317  0.20442116043827244  1.0000
  H   H29       1.0  0.9743056697130045  0.48357452641404547  0.6830637921501362  1.0000
  H   H30       1.0  0.5421641087407423  0.48355435122476825  0.8168268605402318  1.0000
  H   H31       1.0  0.02569474204792498  0.5164257370373306  0.3169364359997076  1.0000
  H   H32       1.0  0.4578362991353161  0.5164459122196092  0.18317280792985002  1.0000
  H   H33       1.0  0.611865557729658  0.998057357369447  0.547944716709118  1.0000
  H   H34       1.0  0.3901811141237702  0.9980411742156079  0.9520895628593847  1.0000
  H   H35       1.0  0.38813517396981456  0.0019422661897508001  0.45205551143567385  1.0000
  H   H36       1.0  0.6098171931120859  0.0019584493354684995  0.047911781028027275  1.0000
  H   H37       1.0  0.9654955773781565  0.8129059810537811  0.6263530018381545  1.0000
  H   H38       1.0  0.22149097396443565  0.8130526803592061  0.873674628164757  1.0000
  H   H39       1.0  0.0345035315374602  0.18709364248834254  0.37364703733545906  1.0000
  H   H40       1.0  0.7785083045235908  0.18694822297230468  0.12632522566465104  1.0000
  H   H41       1.0  0.9801874187693186  0.9175576921653812  0.518396670315198  1.0000
  H   H42       1.0  0.10226788836818912  0.9176265148284202  0.9816929849495609  1.0000
  H   H43       1.0  0.019812823419194107  0.08244129149660749  0.4816037431788374  1.0000
  H   H44       1.0  0.8977317139432442  0.08237374861791838  0.018307428554564437  1.0000
  H   H45       1.0  0.8989468795866671  0.023520078130793803  0.4322739494846033  1.0000
  H   H46       1.0  0.0776230888710217  0.0235842407285034  0.067809488486958  1.0000
  H   H47       1.0  0.10105385211279848  0.976479545428404  0.5677262786601956  1.0000
  H   H48       1.0  0.9223755383033706  0.9764147429303944  0.9321918553954092  1.0000
  H   H49       1.0  0.6336554370534913  0.0912860901536376  0.4589118728237268  1.0000
  H   H50       1.0  0.2751099637656509  0.09142033691193058  0.04102020870521982  1.0000
  H   H51       1.0  0.3663456068147822  0.9087128934993984  0.5410872359565033  1.0000
  H   H52       1.0  0.7248894650885019  0.9085786467380217  0.9589798304633419  1.0000
  H   H53       1.0  0.4648025414195515  0.0103872812059507  0.679121424938856  1.0000
  H   H54       1.0  0.5248232729013935  0.0104049462903717  0.8209005550593459  1.0000
  H   H55       1.0  0.5351967409533455  0.9896136221325592  0.32087898857031405  1.0000
  H   H56       1.0  0.4751768228058637  0.9895959570601746  0.17910023277529777  1.0000
  H   H57       1.0  0.40535074590170705  0.926809526511036  0.699193231303461  1.0000
  H   H58       1.0  0.6678504432017289  0.926818931153683  0.800811451026334  1.0000
  H   H59       1.0  0.5946488525248554  0.07319073692830362  0.3008066225209092  1.0000
  H   H60       1.0  0.3321483457753375  0.07318133228061897  0.19918858815231738  1.0000
  H   H61       1.0  0.4656919394813314  0.9533120129132727  0.599835938292955  1.0000
  H   H62       1.0  0.5809893251002904  0.9533007962845375  0.9001694926696757  1.0000
  H   H63       1.0  0.5343084683947266  0.0466882505311119  0.4001637301771268  1.0000
  H   H64       1.0  0.41901027721114303  0.04669946716180111  0.09983092083444937  1.0000
  C   C1        1.0  0.26307211776506995  0.5296475503902727  0.5281623199119565  1.0000
  C   C2        1.0  0.20737484902549136  0.5296596008752417  0.9718515289654163  1.0000
  C   C3        1.0  0.7369271607229493  0.47035335294124536  0.47183753391745153  1.0000
  C   C4        1.0  0.7926255588505668  0.47034066256914286  0.02814813950466545  1.0000
  C   C5        1.0  0.14783200447773476  0.5364567793709583  0.5692817237755605  1.0000
  C   C6        1.0  0.31579411706194094  0.5364608776669755  0.9306820248769154  1.0000
  C   C7        1.0  0.8521679177722417  0.4635428441832019  0.4307186897235269  1.0000
  C   C8        1.0  0.6842059669907031  0.4635400256625885  0.06931708391845598  1.0000
  C   C9        1.0  0.08082243491374186  0.5964253148888262  0.6285152664194413  1.0000
  C   C10       1.0  0.3227944955342607  0.5964241322295578  0.8714321979110552  1.0000
  C   C11       1.0  0.9191771635128205  0.4035749485505206  0.3714845874049289  1.0000
  C   C12       1.0  0.6772059162266615  0.4035761312218184  0.12856803023878882  1.0000
  C   C13       1.0  0.1257948167340573  0.6517116538867354  0.6507140170772558  1.0000
  C   C14       1.0  0.22248620746974987  0.6517092414626473  0.849292075374528  1.0000
  C   C15       1.0  0.8742044539842269  0.34828924943079187  0.34928471739263495  1.0000
  C   C16       1.0  0.7775142004063085  0.3482910219817299  0.15070759309555373  1.0000
  C   C17       1.0  0.24020182057266493  0.644229897278734  0.6103713754924697  1.0000
  C   C18       1.0  0.11558390337080487  0.6442207213419023  0.8896749248167027  1.0000
  C   C19       1.0  0.7597992271804797  0.3557690863813008  0.38962829296752244  1.0000
  C   C20       1.0  0.8844168283286604  0.3557789022173026  0.11032530332809654  1.0000
  C   C21       1.0  0.30728417131080493  0.5844718742555485  0.5500403920318391  1.0000
  C   C22       1.0  0.10829836598347961  0.5844635239737456  0.9500158468179618  1.0000
  C   C23       1.0  0.6927157470543007  0.41552774929161973  0.4499594617874862  1.0000
  C   C24       1.0  0.8917017297237776  0.4155373793768007  0.04998494101668175  1.0000
  C   C25       1.0  0.33505761256393635  0.4698274533685876  0.463917318658595  1.0000
  C   C26       1.0  0.19527551978451652  0.4698387823982272  0.03610772406525338  1.0000
  C   C27       1.0  0.664941985862626  0.5301728100707522  0.5360825351657752  1.0000
  C   C28       1.0  0.804724891976406  0.530161481053149  0.9638925040845904  1.0000
  C   C29       1.0  0.3062571113876161  0.413219154900453  0.43504437793518497  1.0000
  C   C30       1.0  0.28068885273657435  0.4132789509037663  0.06499474201253722  1.0000
  C   C31       1.0  0.6937416737045865  0.5867811085268501  0.5649551015637115  1.0000
  C   C32       1.0  0.7193112352009409  0.5867219524327891  0.9350049264625893  1.0000
  C   C33       1.0  0.38423161069434286  0.3581931562797678  0.3667893215597644  1.0000
  C   C34       1.0  0.2577478812322127  0.35828444938198334  0.13328534637796  1.0000
  C   C35       1.0  0.615767182167602  0.6418071071615257  0.6332112772986491  1.0000
  C   C36       1.0  0.7422536560318848  0.6417151741752604  0.8667141367327957  1.0000
  C   C37       1.0  0.9214142759352767  0.5466188417819852  0.6647876987021988  1.0000
  C   C38       1.0  0.5319835860649106  0.5466097469427567  0.8350986894732629  1.0000
  C   C39       1.0  0.07858532249128561  0.45338142165735457  0.3352121551221714  1.0000
  C   C40       1.0  0.46801601236165186  0.4533905164965829  0.16490116435110738  1.0000
  C   C41       1.0  0.7976741364635632  0.9656071182758978  0.5249244660686757  1.0000
  C   C42       1.0  0.2367654497923228  0.9656504991465551  0.975105904452164  1.0000
  C   C43       1.0  0.20232772073907063  0.034391865389174804  0.47507501703702804  1.0000
  C   C44       1.0  0.7632328535586623  0.03434912439752219  0.024894879755486096  1.0000
  C   C45       1.0  0.6895763480910162  0.9573603026362036  0.5645831750969849  1.0000
  C   C46       1.0  0.35314311326393266  0.9573503432965538  0.9354612531722496  1.0000
  C   C47       1.0  0.3104232503355462  0.04263996080313599  0.4354166787273854  1.0000
  C   C48       1.0  0.646855999536548  0.042649280252568596  0.06453934568111926  1.0000
  C   C49       1.0  0.6821820760870522  0.8974156008717955  0.623785977318711  1.0000
  C   C50       1.0  0.42040697083204726  0.8974502786792016  0.8762132154802488  1.0000
  C   C51       1.0  0.3178183356738771  0.1025846625795808  0.37621425083112564  1.0000
  C   C52       1.0  0.5795931171054676  0.1025506246573542  0.123786452994878  1.0000
  C   C53       1.0  0.7818048404156384  0.8436713755732725  0.6477604764332271  1.0000
  C   C54       1.0  0.374476466372826  0.8437457294331168  0.852230361066134  1.0000
  C   C55       1.0  0.2181950779494599  0.1563282479738959  0.3522393773860912  1.0000
  C   C56       1.0  0.6255239415032321  0.1562545340112678  0.14776930740394784  1.0000
  C   C57       1.0  0.8883147124126083  0.8527673249194192  0.6086927388508344  1.0000
  C   C58       1.0  0.25888006106817574  0.8528451148318795  0.8913529198238733  1.0000
  C   C59       1.0  0.11168633145566527  0.14723165873362376  0.3913063699293957  1.0000
  C   C60       1.0  0.7411195412432576  0.14715514861445203  0.10864749368025879  1.0000
  C   C61       1.0  0.8960373640203444  0.9121706627200438  0.5482266474481179  1.0000
  C   C62       1.0  0.19180911409940654  0.9122224022215732  0.9518313880884718  1.0000
  C   C63       1.0  0.1039625582296324  0.08782896083411627  0.45177376605096237  1.0000
  C   C64       1.0  0.8081896748776599  0.0877778612127287  0.04816865109017957  1.0000
  C   C65       1.0  0.8102518029200922  0.025931400438125297  0.4614357096085087  1.0000
  C   C66       1.0  0.16389611988431332  0.0259919455031223  0.03858618349662631  1.0000
  C   C67       1.0  0.18974924094818152  0.9740675832149107  0.5385633991717284  1.0000
  C   C68       1.0  0.8361030006859095  0.9740076780599907  0.9614155347162525  1.0000
  C   C69       1.0  0.7246596285777684  0.08386317768477619  0.43354026608584206  1.0000
  C   C70       1.0  0.19155378086598057  0.0839651168846913  0.06642044163866961  1.0000
  C   C71       1.0  0.27534109535196183  0.9161364458604381  0.5664588426994328  1.0000
  C   C72       1.0  0.808445821445453  0.9160351465616399  0.9335799718654556  1.0000
  C   C73       1.0  0.7467395304353984  0.1401272404460272  0.366634528292245  1.0000
  C   C74       1.0  0.11317096519904624  0.1402894415737137  0.133281158832105  1.0000
  C   C75       1.0  0.25326168689015544  0.8598730230033951  0.6333649548235485  1.0000
  C   C76       1.0  0.8868297626155481  0.8597101819784922  0.8667185096329318  1.0000
  C   C77       1.0  0.47300568773595597  0.9481546345206978  0.660108259712679  1.0000
  C   C78       1.0  0.5788453587239671  0.948157190554042  0.839890402818682  1.0000
  C   C79       1.0  0.5269947279098446  0.051845628937670085  0.3398925281169198  1.0000
  C   C80       1.0  0.421153923648923  0.051843712784467796  0.160110010690488  1.0000
  O   O1        1.0  0.3425554332822074  0.3135636087078382  0.3404811081043562  1.0000
  O   O2        1.0  0.3440668478046689  0.3136586371239645  0.1595852313311568  1.0000
  O   O3        1.0  0.6574433595797303  0.6864366547334554  0.6595194907540572  1.0000
  O   O4        1.0  0.6559338838947968  0.6863409864352404  0.8404149968136351  1.0000
  O   O5        1.0  0.4870976828620215  0.3597467514210776  0.337543783314274  1.0000
  O   O6        1.0  0.15330988359155384  0.35987528483806125  0.16256728859735148  1.0000
  O   O7        1.0  0.5129011061150451  0.6402535120132242  0.6624562558643773  1.0000
  O   O8        1.0  0.8466908442230405  0.640124338714152  0.8374323798676855  1.0000
  O   O9        1.0  0.9676498317164076  0.6092554624177281  0.6705342122369942  1.0000
  O   O10       1.0  0.423123187201263  0.6092339391271294  0.8293578334772603  1.0000
  O   O11       1.0  0.03234944677161879  0.39074544091378977  0.32946564159241376  1.0000
  O   O12       1.0  0.5768764151101705  0.3907663243192019  0.1706425800268647  1.0000
  O   O13       1.0  0.055958678623724695  0.7085363501986208  0.7092203206373995  1.0000
  O   O14       1.0  0.23547069727458575  0.7085287549346903  0.7907758014563556  1.0000
  O   O15       1.0  0.9440409236877088  0.29146391324771764  0.2907800928667258  1.0000
  O   O16       1.0  0.7645297144863362  0.29147150851668613  0.20922442669348842  1.0000
  O   O17       1.0  0.660228701440566  0.1858440825080905  0.34117412911537315  1.0000
  O   O18       1.0  0.15395288444712207  0.18604518550871058  0.15871617040333771  1.0000
  O   O19       1.0  0.3397723463125785  0.8141549011519444  0.6588255393446188  1.0000
  O   O20       1.0  0.8460467139794403  0.813955077930629  0.8412836834210253  1.0000
  O   O21       1.0  0.8507210775794006  0.14016813517112328  0.3375034991221355  1.0000
  O   O22       1.0  0.00912018980892531  0.14040276052124057  0.16237899360864816  1.0000
  O   O23       1.0  0.14928013586127525  0.8598321282713073  0.662495424313903  1.0000
  O   O24       1.0  0.9908802180671259  0.859597502923137  0.8376206748614337  1.0000
  O   O25       1.0  0.5815728140802889  0.8839588429282869  0.6646880407765963  1.0000
  O   O26       1.0  0.5344628092324868  0.8839771739589394  0.8352819964052286  1.0000
  O   O27       1.0  0.4184279098494413  0.11604078061692039  0.3353110680086786  1.0000
  O   O28       1.0  0.46553760252844256  0.1160230894924368  0.16471823174460812  1.0000
  O   O29       1.0  0.7685522209832242  0.7884541662696877  0.7070269590477735  1.0000
  O   O30       1.0  0.4428892354655718  0.7885393052145844  0.7929487546069253  1.0000
  O   O31       1.0  0.23144770126675243  0.21154545728447965  0.2929734544513138  1.0000
  O   O32       1.0  0.5571111685256226  0.21146095822280134  0.20705035418340154  1.0000
