data_image0
_chemical_formula_structural       Zn4H34C68N4O16F10
_chemical_formula_sum              "Zn4 H34 C68 N4 O16 F10"
_cell_length_a       9.935344321542384
_cell_length_b       10.986628925610555
_cell_length_c       24.064467540709984
_cell_angle_alpha    89.77969927236208
_cell_angle_beta     89.9865711423205
_cell_angle_gamma    89.70143281924501

_space_group_name_H-M_alt    "P 1"
_space_group_IT_number       1

loop_
  _space_group_symop_operation_xyz
  'x, y, z'

loop_
  _atom_site_type_symbol
  _atom_site_label
  _atom_site_symmetry_multiplicity
  _atom_site_fract_x
  _atom_site_fract_y
  _atom_site_fract_z
  _atom_site_occupancy
  Zn  Zn1       1.0  0.6247568722917833  0.5155767897351424  0.5061891985869025  1.0000
  Zn  Zn2       1.0  0.3377638517466366  0.5211132684936572  0.49962090997328806  1.0000
  Zn  Zn3       1.0  0.3796081652862497  0.4961028956465936  0.0481494930647983  1.0000
  Zn  Zn4       1.0  0.6660189675226816  0.4972702942117023  0.0507240206659887  1.0000
  H   H1        1.0  0.2308058295223532  0.6922717297089419  0.5747606150390041  1.0000
  H   H2        1.0  0.10774745335496759  0.8044909167031021  0.648141706977583  1.0000
  H   H3        1.0  0.7332705099550766  0.6429212027218797  0.5957741440821209  1.0000
  H   H4        1.0  0.8591886919341291  0.7789937771236879  0.6590873886431154  1.0000
  H   H5        1.0  0.42588153914869753  0.8026081925197133  0.6130600322071587  1.0000
  H   H6        1.0  0.3428050657623984  0.9233050971916158  0.692405560842346  1.0000
  H   H7        1.0  0.37030199816955195  0.25249446771143613  0.5953923248013453  1.0000
  H   H8        1.0  0.3117117140809498  0.1489558837622624  0.6830427442847408  1.0000
  H   H9        1.0  0.7287196809761056  0.4845454290522468  0.8827214230893289  1.0000
  H   H10       1.0  0.24105195072661448  0.5138980712553829  0.6701709623923477  1.0000
  H   H11       1.0  0.6835843851904784  0.7040186296687166  0.1729427694929981  1.0000
  H   H12       1.0  0.8359380178556746  0.8380742837865753  0.2251342074488747  1.0000
  H   H13       1.0  0.6836318030057171  0.6978761976977381  0.3798750529778872  1.0000
  H   H14       1.0  0.8375347536650394  0.8334069815890502  0.3289292459940825  1.0000
  H   H15       1.0  0.769022258206178  0.6379153195936665  0.964096212028622  1.0000
  H   H16       1.0  0.8925686458674704  0.7587957195182538  0.8935399909365033  1.0000
  H   H17       1.0  0.2717566186832627  0.6431944307100607  0.9640990338468144  1.0000
  H   H18       1.0  0.14408099192405643  0.7604409966952443  0.8933059196163526  1.0000
  H   H19       1.0  0.5953457722652901  0.7900506162579289  0.9357372669773981  1.0000
  H   H20       1.0  0.6641299899919842  0.9177864369259864  0.8558592447070907  1.0000
  H   H21       1.0  0.6271600822503558  0.24039785170955946  0.9558552380939815  1.0000
  H   H22       1.0  0.6806153830979156  0.14400900850620954  0.8664124594856516  1.0000
  H   H23       1.0  0.10546022800102153  0.4106816336508884  0.781253410293246  1.0000
  H   H24       1.0  0.1624761478453536  0.5456005836337141  0.8128946743229903  1.0000
  H   H25       1.0  0.10800150371478173  0.547526689951944  0.7426099031153797  1.0000
  H   H26       1.0  0.2233025096895744  0.3216795469832049  0.8390279351883976  1.0000
  H   H27       1.0  0.30454522264886214  0.30952289718996445  0.9044874469774413  1.0000
  H   H28       1.0  0.20930952791434274  0.44008508147511793  0.8891468551887769  1.0000
  H   H29       1.0  0.8586540663150829  0.3911671677106979  0.7652663621804906  1.0000
  H   H30       1.0  0.8166083738640424  0.5412530586690849  0.7452345499840689  1.0000
  H   H31       1.0  0.8694928184354468  0.5100138411350698  0.8142799036595605  1.0000
  H   H32       1.0  0.7399943250085955  0.32452384979146837  0.7018790463478837  1.0000
  H   H33       1.0  0.664956083729855  0.3491081471558886  0.6360350807612036  1.0000
  H   H34       1.0  0.7645205367914869  0.4637293082777276  0.6655820491392888  1.0000
  C   C1        1.0  0.5006891553015579  0.7535763380512603  0.5111021561748927  1.0000
  C   C2        1.0  0.45771342832734524  0.49003940816219677  0.6099366440368783  1.0000
  C   C3        1.0  0.47628444110632984  0.2838457959376228  0.4994754741773306  1.0000
  C   C4        1.0  0.4913902544398497  0.5397366672706169  0.39703370911581  1.0000
  C   C5        1.0  0.5322023587796779  0.7329801576089849  0.0373373269706292  1.0000
  C   C6        1.0  0.5104889059717834  0.46144950400966417  0.9418364899624264  1.0000
  C   C7        1.0  0.5383730549325634  0.2625121354177081  0.0560589930723197  1.0000
  C   C8        1.0  0.5084788829107865  0.5314646521597267  0.1545487440661475  1.0000
  C   C9        1.0  0.0535157739972121  0.6013960104757246  0.5444301712478747  1.0000
  C   C10       1.0  0.05208479899431499  0.46660263435043703  0.4713419917007471  1.0000
  C   C11       1.0  0.1231997272901495  0.6800392434765996  0.580456621058481  1.0000
  C   C12       1.0  0.053161437369738  0.742866326633198  0.6209062218265302  1.0000
  C   C13       1.0  0.9095259521863213  0.45600203290744185  0.4760288887556073  1.0000
  C   C14       1.0  0.9102835612231102  0.589809443491241  0.5494871473106997  1.0000
  C   C15       1.0  0.8414607139372025  0.6541986928697483  0.5915297025563646  1.0000
  C   C16       1.0  0.9127840429709196  0.7289516222556286  0.6268057632027677  1.0000
  C   C17       1.0  0.49498772744527025  0.8900732261367066  0.5109171292528671  1.0000
  C   C18       1.0  0.44686719050356055  0.9575828135175968  0.557575888581475  1.0000
  C   C19       1.0  0.5316372482982246  0.9514355614534226  0.4633244323968526  1.0000
  C   C20       1.0  0.413353399712257  0.9008806666006632  0.608889705598564  1.0000
  C   C21       1.0  0.3666582062776627  0.9685708467335843  0.6531927840059097  1.0000
  C   C22       1.0  0.4758268473513639  0.1471827240204817  0.5033453075576233  1.0000
  C   C23       1.0  0.5232838505241376  0.07937084092566239  0.4597055419565805  1.0000
  C   C24       1.0  0.4346766151420737  0.08763702522375637  0.5532591707952292  1.0000
  C   C25       1.0  0.38397866519181895  0.1542989656745135  0.5992711878669823  1.0000
  C   C26       1.0  0.3502238449453543  0.09604373719968608  0.6481646301896546  1.0000
  C   C27       1.0  0.4049026647905407  0.425942376415385  0.8467241628158889  1.0000
  C   C28       1.0  0.6445595921768047  0.4656759472072878  0.8551126618414173  1.0000
  C   C29       1.0  0.6666032784465231  0.4563683083742519  0.7987741311065903  1.0000
  C   C30       1.0  0.55163375461143  0.44442493723855864  0.7627392060817257  1.0000
  C   C31       1.0  0.5644517518791545  0.4400398367796185  0.7031795976205117  1.0000
  C   C32       1.0  0.32494468616784644  0.4869908121462032  0.696791183929541  1.0000
  C   C33       1.0  0.3039879483585253  0.4695864188567141  0.752850563010128  1.0000
  C   C34       1.0  0.4187357602624645  0.4442203677042966  0.7876580611613733  1.0000
  C   C35       1.0  0.5172818219438113  0.44798064786245817  0.8799665189061657  1.0000
  C   C36       1.0  0.45150018072066433  0.46949318117554384  0.6713556167337701  1.0000
  C   C37       1.0  0.5038946334003852  0.5442592595993362  0.2165163670386505  1.0000
  C   C38       1.0  0.5945587332803441  0.6214340929013034  0.24619689690526772  1.0000
  C   C39       1.0  0.4126603687205161  0.4754040775030432  0.24604126810984886  1.0000
  C   C40       1.0  0.6838993892569292  0.7014420888074113  0.2181647487801399  1.0000
  C   C41       1.0  0.7692346042924499  0.77626883990677  0.2474305741856426  1.0000
  C   C42       1.0  0.49793677633948624  0.5463010782552046  0.3348774904453223  1.0000
  C   C43       1.0  0.409173200820753  0.47705524310222097  0.30458461290474764  1.0000
  C   C44       1.0  0.5931224153496331  0.6209807322113648  0.3060044882839819  1.0000
  C   C45       1.0  0.6838067013626841  0.6980649117283234  0.3346914524306754  1.0000
  C   C46       1.0  0.7698883874455333  0.7738776460158334  0.3060709391121463  1.0000
  C   C47       1.0  0.9493401522717875  0.5722211792538231  0.0042418093529548  1.0000
  C   C48       1.0  0.9518625156169164  0.4462555162933766  0.0809978927097106  1.0000
  C   C49       1.0  0.878236828220018  0.6394294658913324  0.9636186196183304  1.0000
  C   C50       1.0  0.9482159788241731  0.7056766444310013  0.9243260023163841  1.0000
  C   C51       1.0  0.09531936708020791  0.44516167467320134  0.0801986458354236  1.0000
  C   C52       1.0  0.0936844666440493  0.5728547149582185  0.004000061880610399  1.0000
  C   C53       1.0  0.16254594028719543  0.6415325399242845  0.9634176974955934  1.0000
  C   C54       1.0  0.0901876319255379  0.706875192646848  0.9243050314433461  1.0000
  C   C55       1.0  0.5292651616105672  0.8698275866577065  0.0386958814996277  1.0000
  C   C56       1.0  0.5695227845906105  0.9418467099189695  0.9922822046683493  1.0000
  C   C57       1.0  0.4917499004467345  0.9259638924421549  0.0872437054005033  1.0000
  C   C58       1.0  0.602526866013875  0.8886048855250125  0.9402985411012422  1.0000
  C   C59       1.0  0.6409518504574052  0.9599176683576048  0.895748912696952  1.0000
  C   C60       1.0  0.536501006189404  0.12658996080484997  0.049288616464558295  1.0000
  C   C61       1.0  0.4937987434103732  0.05382055208177408  0.09238260960414381  1.0000
  C   C62       1.0  0.5758586178572004  0.0718509332692747  0.9979261395603345  1.0000
  C   C63       1.0  0.6181877567087071  0.1421764251907618  0.9514812950760358  1.0000
  C   C64       1.0  0.6495780943805585  0.0876506732733588  0.901535458431482  1.0000
  C   C65       1.0  0.16329948098867672  0.49417274355154456  0.7739081214689989  1.0000
  C   C66       1.0  0.2778439717189514  0.3725327901852821  0.8708156826653521  1.0000
  C   C67       1.0  0.809622383892588  0.47531729048616705  0.7794873577011003  1.0000
  C   C68       1.0  0.6907426433193962  0.3927830955030132  0.6754344936456107  1.0000
  N   N1        1.0  0.1217387950339486  0.5361006813969738  0.5042336759786537  1.0000
  N   N2        1.0  0.8408562962363251  0.515729603312323  0.5133015539707557  1.0000
  N   N3        1.0  0.8814191519783137  0.5066102861951477  0.0443676562643915  1.0000
  N   N4        1.0  0.1637162252649134  0.5062899803607265  0.0433735574956344  1.0000
  O   O1        1.0  0.6146741355595111  0.703579898986966  0.503772908146253  1.0000
  O   O2        1.0  0.3891037124364232  0.6994673975672043  0.5182618594963415  1.0000
  O   O3        1.0  0.3483958461225996  0.47701537319031223  0.582757704598926  1.0000
  O   O4        1.0  0.5693232330305092  0.5236918388211365  0.5888577695447522  1.0000
  O   O5        1.0  0.3667871225544772  0.33652641308029974  0.4868991939780329  1.0000
  O   O6        1.0  0.5886151942964516  0.33297307862205366  0.5107821604617229  1.0000
  O   O7        1.0  0.6005674756601352  0.5151108937948904  0.4224226382087862  1.0000
  O   O8        1.0  0.37678949757403046  0.5582466684516021  0.4191998681398061  1.0000
  O   O9        1.0  0.42233776352853875  0.6786909395258647  0.028108531358149905  1.0000
  O   O10       1.0  0.6463176168818094  0.6840152068394117  0.0463417989480632  1.0000
  O   O11       1.0  0.6212644808428323  0.4836515503181289  0.9667718322660335  1.0000
  O   O12       1.0  0.3962952446949828  0.4554485572358615  0.96576594420074  1.0000
  O   O13       1.0  0.6533892984612777  0.3123661056408126  0.05289211204251389  1.0000
  O   O14       1.0  0.42561365889879726  0.31503563480404745  0.0628320453893636  1.0000
  O   O15       1.0  0.39732026273527776  0.5418255070687934  0.1285974750386671  1.0000
  O   O16       1.0  0.6230112476192176  0.509390937675647  0.1331106110727092  1.0000
  F   F1        1.0  0.8463695690792932  0.3824606358995409  0.4411952243051545  1.0000
  F   F2        1.0  0.1145679057908069  0.4029581790091754  0.4322584700852019  1.0000
  F   F3        1.0  0.5636559338561469  0.1336303235463845  0.4119950019600438  1.0000
  F   F4        1.0  0.5743658319786605  0.890666849461709  0.4177834266071585  1.0000
  F   F5        1.0  0.3186607203543801  0.4035254504302301  0.3297278972236057  1.0000
  F   F6        1.0  0.3262535636328466  0.39926420069093627  0.2203929504317728  1.0000
  F   F7        1.0  0.15970537106344554  0.3787934398129309  0.1179699197914488  1.0000
  F   F8        1.0  0.8894486373150913  0.3834404029659452  0.12043491662976182  1.0000
  F   F9        1.0  0.4557923594118662  0.10223534624378058  0.141520011404495  1.0000
  F   F10       1.0  0.4542241891705033  0.8590132775840117  0.1319825979690421  1.0000
