data_image0
_chemical_formula_structural       Cd3H22C30O16
_chemical_formula_sum              "Cd3 H22 C30 O16"
_cell_length_a       7.938787238774341
_cell_length_b       9.802351708383629
_cell_length_c       11.09619388251564
_cell_angle_alpha    68.49647119802808
_cell_angle_beta     74.91711721715949
_cell_angle_gamma    74.0532205120117

_space_group_name_H-M_alt    "P 1"
_space_group_IT_number       1

loop_
  _space_group_symop_operation_xyz
  'x, y, z'

loop_
  _atom_site_type_symbol
  _atom_site_label
  _atom_site_symmetry_multiplicity
  _atom_site_fract_x
  _atom_site_fract_y
  _atom_site_fract_z
  _atom_site_occupancy
  Cd  Cd1       1.0  0.1703625999451432  0.09368688681179552  0.49642703216596834  1.0000
  Cd  Cd2       1.0  0.8296348121517806  0.9063099263097812  0.5035704476508869  1.0000
  Cd  Cd3       1.0  0.9999971837222715  0.5000020264276088  0.49999949020840967  1.0000
  H   H1        1.0  0.91686223662132  0.3494079098765114  0.8271601693403314  1.0000
  H   H2        1.0  0.08312258742147091  0.6505878127085368  0.17284564048519974  1.0000
  H   H3        1.0  0.33361638842723806  0.9614342692810354  0.9227166474484891  1.0000
  H   H4        1.0  0.6663781899226037  0.0385679421429472  0.07727586200004313  1.0000
  H   H5        1.0  0.25740111047174696  0.9569465765277203  0.15802978078396981  1.0000
  H   H6        1.0  0.7426095282862377  0.04304921792530081  0.8419627014901965  1.0000
  H   H7        1.0  0.6637398323214184  0.20589965372411004  0.22582997582566128  1.0000
  H   H8        1.0  0.3362537716000205  0.7940973028543965  0.7741727275926493  1.0000
  H   H9        1.0  0.3805807854318673  0.6611992774597865  0.16593673266771702  1.0000
  H   H10       1.0  0.6194315768604852  0.338801752526436  0.8340688655640351  1.0000
  H   H11       1.0  0.6202400223091827  0.7473952823917431  0.9767775813891219  1.0000
  H   H12       1.0  0.37977557585028887  0.2526036836072548  0.023230811627975412  1.0000
  H   H13       1.0  0.8787437837209707  0.5629944350658389  0.9126653172193286  1.0000
  H   H14       1.0  0.121267009050392  0.43699754093551485  0.08734293298811485  1.0000
  H   H15       1.0  0.4547240014977021  0.8368708135746201  0.5433906403034855  1.0000
  H   H16       1.0  0.5452736425309439  0.16313074764702412  0.4566105067342151  1.0000
  H   H17       1.0  0.47620529528764866  0.913298956167239  0.39354496303409564  1.0000
  H   H18       1.0  0.5237963583174476  0.08669693356371512  0.6064547016189226  1.0000
  H   H19       1.0  0.2751402018759705  0.6399216178506321  0.4985121585885894  1.0000
  H   H20       1.0  0.7248547526225335  0.36008987848975244  0.5014832682211648  1.0000
  H   H21       1.0  0.1377644353298351  0.6262578289657625  0.6309685302347817  1.0000
  H   H22       1.0  0.8622363217652165  0.373741372471443  0.3690292276755898  1.0000
  C   C1        1.0  0.029895901994620982  0.1594235936797475  0.2586474765385276  1.0000
  C   C2        1.0  0.9701122798468588  0.8405724936093649  0.7413526107450681  1.0000
  C   C3        1.0  0.0472310061480812  0.15174677876684226  0.12356721598506944  1.0000
  C   C4        1.0  0.9527730433162276  0.8482546842157461  0.8764281697705272  1.0000
  C   C5        1.0  0.9480406705331533  0.26318062623702326  0.03074233943944908  1.0000
  C   C6        1.0  0.05196019181965276  0.7368188287406454  0.9692607189675045  1.0000
  C   C7        1.0  0.9937666723283058  0.26538745455873425  0.8995130134815312  1.0000
  C   C8        1.0  0.006227884605316077  0.7346105158461286  0.10048642973931271  1.0000
  C   C9        1.0  0.13282568146098572  0.15840865313615643  0.8602001685418871  1.0000
  C   C10       1.0  0.8671676684306036  0.8415937047058719  0.13979614341135974  1.0000
  C   C11       1.0  0.22779181411408436  0.04597151133775411  0.9536718280174981  1.0000
  C   C12       1.0  0.7722053790389011  0.9540307875608465  0.04632102716648486  1.0000
  C   C13       1.0  0.1839830325836473  0.0425616462808094  0.08436924222296231  1.0000
  C   C14       1.0  0.8160229404479931  0.9574418866112424  0.9156205065538005  1.0000
  C   C15       1.0  0.1691695207062196  0.1533726295352977  0.7227660305238572  1.0000
  C   C16       1.0  0.830818394304856  0.8466308826289008  0.277233665930126  1.0000
  C   C17       1.0  0.7933473285868329  0.3729915801079713  0.0693669779742622  1.0000
  C   C18       1.0  0.20665763105722595  0.6270024146627335  0.9306390151284845  1.0000
  C   C19       1.0  0.6575750972152149  0.3251358349580968  0.17406951722533395  1.0000
  C   C20       1.0  0.34242664410467677  0.6748602660565837  0.8259345645081665  1.0000
  C   C21       1.0  0.50860834391419  0.4286638319965661  0.20772740055898717  1.0000
  C   C22       1.0  0.49139222544958727  0.5713367409687747  0.7922753167391081  1.0000
  C   C23       1.0  0.496853785773858  0.5817510782261123  0.13821074667237818  1.0000
  C   C24       1.0  0.5031538978043598  0.41824745632205657  0.8617930754739973  1.0000
  C   C25       1.0  0.6301825797747184  0.6290541155961404  0.032838051576220606  1.0000
  C   C26       1.0  0.36982929268279463  0.370943368791167  0.9671653051580266  1.0000
  C   C27       1.0  0.7765868371601313  0.5254920295207411  0.9971470736959066  1.0000
  C   C28       1.0  0.22342046184099473  0.4745032129689902  0.0028598074495392264  1.0000
  C   C29       1.0  0.35725633363929177  0.37607308794976296  0.3117089342473065  1.0000
  C   C30       1.0  0.6427394433241674  0.6239307288950184  0.6882926828291219  1.0000
  O   O1        1.0  0.006690981504547712  0.28481183575212293  0.27364745740113966  1.0000
  O   O2        1.0  0.9933191726598736  0.7151822494543226  0.72635746034031  1.0000
  O   O3        1.0  0.0580655271221033  0.0345273089345  0.353852285222743  1.0000
  O   O4        1.0  0.9419346485500595  0.9654639368576882  0.6461466312980378  1.0000
  O   O5        1.0  0.0665153312486595  0.2426456462131554  0.6411965922037693  1.0000
  O   O6        1.0  0.9334721114705359  0.7573543626088792  0.3588017461688083  1.0000
  O   O7        1.0  0.2943073212888976  0.051761677167363004  0.6914037781465227  1.0000
  O   O8        1.0  0.7056816207794511  0.9482472166125504  0.30858837458598026  1.0000
  O   O9        1.0  0.22005242808921807  0.47311316083174404  0.3321838385713321  1.0000
  O   O10       1.0  0.7799444285603981  0.5268961643989983  0.6678128850319  1.0000
  O   O11       1.0  0.3759719152839409  0.234261727306297  0.3723446954111794  1.0000
  O   O12       1.0  0.6240213345911627  0.7657422133475933  0.6276609930102808  1.0000
  O   O13       1.0  0.3835259609367582  0.8809170428876952  0.470823548453865  1.0000
  O   O14       1.0  0.6164738256031513  0.11908110246639579  0.5291765862378739  1.0000
  O   O15       1.0  0.2069786820352704  0.5704614561112394  0.5681546217588931  1.0000
  O   O16       1.0  0.7930202294108141  0.42954424196822316  0.43183667241788737  1.0000
