data_image0
_chemical_formula_structural       Zn6H36C48N24O12
_chemical_formula_sum              "Zn6 H36 C48 N24 O12"
_cell_length_a       11.44388712792672
_cell_length_b       12.731251125895707
_cell_length_c       12.7317
_cell_angle_alpha    111.45079136802975
_cell_angle_beta     107.3890971710172
_cell_angle_gamma    107.458495248544

_space_group_name_H-M_alt    "P 1"
_space_group_IT_number       1

loop_
  _space_group_symop_operation_xyz
  'x, y, z'

loop_
  _atom_site_type_symbol
  _atom_site_label
  _atom_site_symmetry_multiplicity
  _atom_site_fract_x
  _atom_site_fract_y
  _atom_site_fract_z
  _atom_site_occupancy
  Zn  Zn1       1.0  0.1245901971170085  0.0048316021137467  0.3608353550086605  1.0000
  Zn  Zn2       1.0  0.6198362742779723  0.9952187475354679  0.3560877254614568  1.0000
  Zn  Zn3       1.0  0.1199431928826229  0.3560808028176083  0.9952328206497613  1.0000
  Zn  Zn4       1.0  0.7640340124479578  0.6392054597247636  0.6437877137204141  1.0000
  Zn  Zn5       1.0  0.6246077979294996  0.360828724359422  0.004678892192004069  1.0000
  Zn  Zn6       1.0  0.26410531249136676  0.6439162955585616  0.6392126193350975  1.0000
  H   H1        1.0  0.9013411672958753  0.2423427399907396  0.20042388942174943  1.0000
  H   H2        1.0  0.15913198495694306  0.7576315364112604  0.9581582424353599  1.0000
  H   H3        1.0  0.6589807107159301  0.958085493738608  0.757595118877866  1.0000
  H   H4        1.0  0.7007615421224145  0.7992692773588531  0.04184871839309785  1.0000
  H   H5        1.0  0.40108336169313213  0.2004111661257824  0.24232684893481604  1.0000
  H   H6        1.0  0.200973242922025  0.0419429848520352  0.7993151576921208  1.0000
  H   H7        1.0  0.8473372406553636  0.9399952755508565  0.35355441780570385  1.0000
  H   H8        1.0  0.407198228899034  0.0601235400208537  0.4136061142583429  1.0000
  H   H9        1.0  0.9073352525929153  0.41364733081644545  0.06013688049345949  1.0000
  H   H10       1.0  0.4941182953228491  0.6465427244186586  0.586487388279899  1.0000
  H   H11       1.0  0.3474965139885811  0.35356277833479066  0.9400488379468045  1.0000
  H   H12       1.0  0.9940915367314602  0.5864505646122851  0.6465504011505843  1.0000
  H   H13       1.0  0.6974850216813948  0.1589693137897754  0.23487692301735316  1.0000
  H   H14       1.0  0.038464540826503066  0.84098118972247  0.07581000380726269  1.0000
  H   H15       1.0  0.538428797201  0.0758383710643074  0.8409024621153094  1.0000
  H   H16       1.0  0.4626567956987344  0.7650144450534883  0.9241433202250774  1.0000
  H   H17       1.0  0.1974221178352735  0.23491894197813684  0.1590393665690328  1.0000
  H   H18       1.0  0.9627458575803729  0.9241292489285655  0.7649732020518557  1.0000
  H   H19       1.0  0.4914535630379078  0.4689877654186461  0.691796037499543  1.0000
  H   H20       1.0  0.5226211659702286  0.5310797007111958  0.22279716272340974  1.0000
  H   H21       1.0  0.022553427104639905  0.22275387883285452  0.5311500062339647  1.0000
  H   H22       1.0  0.7993684515435575  0.3084199625217678  0.7771746165998435  1.0000
  H   H23       1.0  0.991328039106939  0.6916722274134202  0.46884625942549  1.0000
  H   H24       1.0  0.299358313854782  0.7772308576406388  0.3084108396614126  1.0000
  H   H25       1.0  0.2798931264023565  0.0368746047563349  0.6140388139635888  1.0000
  H   H26       1.0  0.7432651624670327  0.9631453155939981  0.577251560813302  1.0000
  H   H27       1.0  0.2433491665765786  0.5773160694529338  0.9631207709508872  1.0000
  H   H28       1.0  0.6659720664195063  0.3856894615493118  0.42258287231647523  1.0000
  H   H29       1.0  0.7800322305011632  0.6142125452678401  0.03698913778219291  1.0000
  H   H30       1.0  0.166013483390266  0.4225697717991821  0.3857688664753312  1.0000
  H   H31       1.0  0.3055094536464509  0.2867647617864009  0.4739876244802232  1.0000
  H   H32       1.0  0.5190805949140511  0.7133397900514568  0.18726658922409462  1.0000
  H   H33       1.0  0.019138470092634908  0.1871487463894255  0.7133690756200437  1.0000
  H   H34       1.0  0.8316155592114355  0.5263013498704936  0.8126176790072533  1.0000
  H   H35       1.0  0.805391124164359  0.4737841836555603  0.28653614928285254  1.0000
  H   H36       1.0  0.3316994307242497  0.8127313893691481  0.5262368289010696  1.0000
  C   C1        1.0  0.8904716534663777  0.1759184332692953  0.2358947099943265  1.0000
  C   C2        1.0  0.21460651711449694  0.8241081434901646  0.06002553194583977  1.0000
  C   C3        1.0  0.7145388003919848  0.0599818535979182  0.824090904147141  1.0000
  C   C4        1.0  0.6545460392316471  0.7638657390205381  0.9399867909711119  1.0000
  C   C5        1.0  0.3903556516698714  0.2358917286269033  0.17592896059171179  1.0000
  C   C6        1.0  0.15467244620823112  0.9400352140056472  0.7638684736202207  1.0000
  C   C7        1.0  0.9998302674998882  0.1422170338374258  0.2703158902345422  1.0000
  C   C8        1.0  0.35768881144518616  0.8578799106757131  0.12825942124309353  1.0000
  C   C9        1.0  0.8576770372463827  0.1282062435315865  0.8579065591588559  1.0000
  C   C10       1.0  0.7295976195536724  0.7295833301630594  0.8718294504621583  1.0000
  C   C11       1.0  0.499772846263255  0.2702454561536456  0.14218048607542502  1.0000
  C   C12       1.0  0.22967720065219766  0.8718659771762063  0.7295752726689884  1.0000
  C   C13       1.0  0.8603489330012479  0.0089072263332994  0.3208180766022083  1.0000
  C   C14       1.0  0.35137670548878214  0.991184012686297  0.3119642682396986  1.0000
  C   C15       1.0  0.8514574554084433  0.3119868469005596  0.9911905793016871  1.0000
  C   C16       1.0  0.5398464213113385  0.6792665826238249  0.6881275813086347  1.0000
  C   C17       1.0  0.3604550700016205  0.32078757068775593  0.008921293792617706  1.0000
  C   C18       1.0  0.039835755019964815  0.6881005884566704  0.6792589913444048  1.0000
  C   C19       1.0  0.7782433080171669  0.1297105919952628  0.2538797473945777  1.0000
  C   C20       1.0  0.1484929072974381  0.8702703408158713  0.12414643530208018  1.0000
  C   C21       1.0  0.6484734917145828  0.12415819586415472  0.8702139159331708  1.0000
  C   C22       1.0  0.5244500529380716  0.7459809186002745  0.8758663948242287  1.0000
  C   C23       1.0  0.2782225866021193  0.2539153827233349  0.1297668449654381  1.0000
  C   C24       1.0  0.024510302662548677  0.8758617244861783  0.7459391527076633  1.0000
  C   C25       1.0  0.4436498736077041  0.3725440044305445  0.6739845095814588  1.0000
  C   C26       1.0  0.5713129925333931  0.6275196580369382  0.3014693626899573  1.0000
  C   C27       1.0  0.07127204367036911  0.3014269292715213  0.6275803750195763  1.0000
  C   C28       1.0  0.7694627530323572  0.3261440782072924  0.6985009052517127  1.0000
  C   C29       1.0  0.9435747513349994  0.6739053205263374  0.37245838572254547  1.0000
  C   C30       1.0  0.2694659481571477  0.6985283288186821  0.3261443783609579  1.0000
  C   C31       1.0  0.4845676074055874  0.3455646273057127  0.7743600619701284  1.0000
  C   C32       1.0  0.6390716894481514  0.6544058454339279  0.42878780083560736  1.0000
  C   C33       1.0  0.139027641716531  0.4287982689149175  0.6544277523250345  1.0000
  C   C34       1.0  0.7100373979827879  0.22560757651901045  0.5711523517474433  1.0000
  C   C35       1.0  0.9845142750549413  0.7744104420001393  0.3455871809496074  1.0000
  C   C36       1.0  0.2100833096964649  0.5711569891752788  0.2256435573818933  1.0000
  C   C37       1.0  0.3277716381983069  0.134143760476725  0.6325814940379572  1.0000
  C   C38       1.0  0.6938726299980615  0.8658790126203826  0.4985122976578041  1.0000
  C   C39       1.0  0.19390304107056977  0.4985193999875435  0.8658858189412654  1.0000
  C   C40       1.0  0.6953292935422013  0.3672749811453073  0.5013657549880505  1.0000
  C   C41       1.0  0.8278297684358691  0.632686933354023  0.13420606515152408  1.0000
  C   C42       1.0  0.1953694050457386  0.5013788031672419  0.3673489434807422  1.0000
  C   C43       1.0  0.34340270183625415  0.2738608372275451  0.5556279753544828  1.0000
  C   C44       1.0  0.5698134072431245  0.7262370582011854  0.28182894287984794  1.0000
  C   C45       1.0  0.0698640822204979  0.2817648476131893  0.7262954743889694  1.0000
  C   C46       1.0  0.7877886714341996  0.4445264127766393  0.7180942319262229  1.0000
  C   C47       1.0  0.8433437078527388  0.555522035041399  0.27373587389926257  1.0000
  C   C48       1.0  0.2878348538773849  0.7181571284313506  0.4445215255931102  1.0000
  N   N1        1.0  0.973458352240982  0.05031009113010751  0.30781211892118426  1.0000
  N   N2        1.0  0.4231311563700828  0.9497526204217834  0.2576486691972875  1.0000
  N   N3        1.0  0.9231914889150232  0.25762585535625254  0.9498097786823365  1.0000
  N   N4        1.0  0.6658763519493505  0.6922132983842388  0.7424804360725047  1.0000
  N   N5        1.0  0.47348584018871515  0.3077457633683239  0.05028553895218123  1.0000
  N   N6        1.0  0.16592590570262186  0.7424967638778242  0.6922543036985189  1.0000
  N   N7        1.0  0.7628323356504652  0.0462392214885128  0.29928083949871354  1.0000
  N   N8        1.0  0.21651916149372843  0.9538139809074764  0.25300774178307955  1.0000
  N   N9        1.0  0.7165568663499968  0.2530586077765733  0.9537536559449291  1.0000
  N   N10       1.0  0.46379958137917743  0.7007373057346911  0.7470266838325871  1.0000
  N   N11       1.0  0.2628911047471618  0.2992873691935928  0.04629170191598319  1.0000
  N   N12       1.0  0.9637800330610273  0.7469708217296613  0.7006585382295751  1.0000
  N   N13       1.0  0.42361522325087714  0.2232654714203761  0.7496021969043837  1.0000
  N   N14       1.0  0.7005354097955774  0.7767259214622514  0.5263698942023325  1.0000
  N   N15       1.0  0.2004746596212001  0.5263878831892016  0.7767121009928672  1.0000
  N   N16       1.0  0.673975715247387  0.2502030082592412  0.47353754268763737  1.0000
  N   N17       1.0  0.9236629921230061  0.7497465443374196  0.22337024196508537  1.0000
  N   N18       1.0  0.17398813952116396  0.47353884743328933  0.2502942852435339  1.0000
  N   N19       1.0  0.2833344275268672  0.15257535736135  0.5330130504474653  1.0000
  N   N20       1.0  0.6310042493280291  0.8474949615152667  0.3805194047750577  1.0000
  N   N21       1.0  0.13109303504754174  0.3804584748876821  0.847537880938482  1.0000
  N   N22       1.0  0.7505171017242275  0.46700795915987925  0.6193735321993046  1.0000
  N   N23       1.0  0.7833433843065477  0.5329976974566009  0.15254329407394354  1.0000
  N   N24       1.0  0.2506129874915501  0.6194302191112016  0.4670668256658814  1.0000
  O   O1        1.0  0.11379283738091317  0.1884229732802751  0.2718421031328759  1.0000
  O   O2        1.0  0.4255661933856985  0.8117272225059083  0.08370122903990314  1.0000
  O   O3        1.0  0.9255510911376916  0.0836273206635454  0.8117685169309254  1.0000
  O   O4        1.0  0.8420294433044191  0.7280932454332358  0.91645284836747  1.0000
  O   O5        1.0  0.6136645912008092  0.2717117679937147  0.18829210737131066  1.0000
  O   O6        1.0  0.34213420145946566  0.9165038568108415  0.7280422825386522  1.0000
  O   O7        1.0  0.5774075302072035  0.43190776289483784  0.8885759962905054  1.0000
  O   O8        1.0  0.6453795827313371  0.568015164065301  0.4566404960529482  1.0000
  O   O9        1.0  0.14534246548116414  0.45666960486334324  0.5680474567217786  1.0000
  O   O10       1.0  0.6884874523592543  0.11135316652667632  0.5433529286293322  1.0000
  O   O11       1.0  0.07729586945644241  0.8886743611483824  0.431971350698575  1.0000
  O   O12       1.0  0.18863264713472458  0.5433522173181659  0.11142956182693814  1.0000
