data_image0
_chemical_formula_structural       Cu2H40C40N4O8
_chemical_formula_sum              "Cu2 H40 C40 N4 O8"
_cell_length_a       7.61059159042038
_cell_length_b       10.788312140349948
_cell_length_c       14.081014284043126
_cell_angle_alpha    89.99971098827595
_cell_angle_beta     90.00240530482456
_cell_angle_gamma    101.91680359954884

_space_group_name_H-M_alt    "P 1"
_space_group_IT_number       1

loop_
  _space_group_symop_operation_xyz
  'x, y, z'

loop_
  _atom_site_type_symbol
  _atom_site_label
  _atom_site_symmetry_multiplicity
  _atom_site_fract_x
  _atom_site_fract_y
  _atom_site_fract_z
  _atom_site_occupancy
  Cu  Cu1       1.0  0.5000073187615115  0.500002454696137  0.5000050277003538  1.0000
  Cu  Cu2       1.0  0.999996129049684  0.9999986169142188  0.9999972720295818  1.0000
  H   H1        1.0  0.05158766070044149  0.5649365536653193  0.3915814298382899  1.0000
  H   H2        1.0  0.5516078493485068  0.06494425174649619  0.10841460194766481  1.0000
  H   H3        1.0  0.9484226340332571  0.4350606917323673  0.60842436446994  1.0000
  H   H4        1.0  0.44837815073297094  0.9350502490738536  0.8915670460986153  1.0000
  H   H5        1.0  0.021967449549791226  0.4581970789684109  0.2922830413827455  1.0000
  H   H6        1.0  0.5219884138900852  0.9582023458091344  0.20771441312337663  1.0000
  H   H7        1.0  0.9780425754583109  0.5418048498966073  0.7077234630898774  1.0000
  H   H8        1.0  0.4779937607321472  0.041798588782064904  0.7922736264521364  1.0000
  H   H9        1.0  0.058717364245360705  0.40371011363716036  0.40760622231077553  1.0000
  H   H10       1.0  0.5587227035765636  0.9037146289884959  0.09238446511517401  1.0000
  H   H11       1.0  0.9413079408662883  0.5962895448667496  0.5923967314610226  1.0000
  H   H12       1.0  0.4412584732595875  0.09627594517426992  0.9076078355246224  1.0000
  H   H13       1.0  0.4195864051079  0.1011531919703472  0.3277913912217302  1.0000
  H   H14       1.0  0.919599179090149  0.6011693702249303  0.17221935499359384  1.0000
  H   H15       1.0  0.5804305212186379  0.8988442901905886  0.672232867741215  1.0000
  H   H16       1.0  0.08035714279532874  0.39885129106821193  0.8277949607647842  1.0000
  H   H17       1.0  0.40740072910318764  0.1976051682450262  0.22802411288752475  1.0000
  H   H18       1.0  0.9074366581748735  0.697631726870604  0.2719817374785123  1.0000
  H   H19       1.0  0.5925941556082677  0.8023643070681954  0.771993044112577  1.0000
  H   H20       1.0  0.09254272537134513  0.3024038370064943  0.7280268971084922  1.0000
  H   H21       1.0  0.24125779011927767  0.1854612244588836  0.3194538501031374  1.0000
  H   H22       1.0  0.7412675997924297  0.6854848198405533  0.1805539082741205  1.0000
  H   H23       1.0  0.7587637127619618  0.814521403179164  0.6805718292919567  1.0000
  H   H24       1.0  0.25870376840352094  0.31455608960737885  0.8194589872676374  1.0000
  H   H25       1.0  0.82627839479283  0.12734572627132223  0.3637643053434588  1.0000
  H   H26       1.0  0.32632996379263807  0.6273880306832141  0.1362271565049369  1.0000
  H   H27       1.0  0.17373276747593286  0.8726318390902181  0.6362365177781584  1.0000
  H   H28       1.0  0.673651401874338  0.3726269543226833  0.8637686949726702  1.0000
  H   H29       1.0  0.470343953640608  0.5189940568008139  0.26258780586455543  1.0000
  H   H30       1.0  0.9703139484430423  0.018991732005581193  0.23739245074209953  1.0000
  H   H31       1.0  0.5296479851026563  0.4810034718896149  0.737396682948841  1.0000
  H   H32       1.0  0.02969480811182728  0.9810045198444468  0.7625948789713278  1.0000
  H   H33       1.0  0.38056328383574833  0.7729866743197958  0.4671894656038589  1.0000
  H   H34       1.0  0.8805635406261915  0.2730254469081217  0.0328019968178452  1.0000
  H   H35       1.0  0.6194521035919395  0.2270098142522841  0.5327978641853194  1.0000
  H   H36       1.0  0.11942122790382115  0.7269812120012703  0.9671867529530404  1.0000
  H   H37       1.0  0.726127716716505  0.38963311522111604  0.14940879517060776  1.0000
  H   H38       1.0  0.22613658216862836  0.8896282627734069  0.3505978640491635  1.0000
  H   H39       1.0  0.2738792919260789  0.6103611970079897  0.8505998398097178  1.0000
  H   H40       1.0  0.7738733842319689  0.11037929571147491  0.6494050895318537  1.0000
  C   C1        1.0  0.9926287761948063  0.4689571839671559  0.3676253950976687  1.0000
  C   C2        1.0  0.4926428395876529  0.968962475419467  0.132370051891904  1.0000
  C   C3        1.0  0.007388149467097109  0.5310402981557445  0.6323818196385389  1.0000
  C   C4        1.0  0.5073446981741796  0.031033018920005914  0.8676172775791217  1.0000
  C   C5        1.0  0.7940001139219531  0.44099127018218093  0.38774529442760314  1.0000
  C   C6        1.0  0.2940048039280114  0.9410027635493846  0.1122492419682644  1.0000
  C   C7        1.0  0.20602196351222804  0.5589998255222001  0.6122590796750914  1.0000
  C   C8        1.0  0.7059775820615571  0.0589991172086073  0.8877409281362674  1.0000
  C   C9        1.0  0.6798455459313857  0.33894284280605563  0.33972348219849385  1.0000
  C   C10       1.0  0.17986522477039568  0.8389577677881023  0.1602823001728169  1.0000
  C   C11       1.0  0.32017297571376707  0.6610500031986672  0.6602851529168137  1.0000
  C   C12       1.0  0.820121081661526  0.1610498846530888  0.8397178124317366  1.0000
  C   C13       1.0  0.49347219026459055  0.30119944950113364  0.3584920751861205  1.0000
  C   C14       1.0  0.9934862785354283  0.8012203162097364  0.14151395111134243  1.0000
  C   C15       1.0  0.5065438903710702  0.6987942479799756  0.6415179802517983  1.0000
  C   C16       1.0  0.0064959909314552785  0.19879282382760263  0.8584868716128398  1.0000
  C   C17       1.0  0.3836666586927251  0.1902307690364538  0.3048918959686944  1.0000
  C   C18       1.0  0.8836866758727171  0.6902538146597408  0.1951134359791595  1.0000
  C   C19       1.0  0.6163466170001328  0.8097562579786983  0.6951238408581872  1.0000
  C   C20       1.0  0.11628571272890303  0.30977399054503957  0.8048959087178674  1.0000
  C   C21       1.0  0.7631814771193177  0.2684305611502111  0.2672006745459328  1.0000
  C   C22       1.0  0.2631993355292082  0.7684417884516747  0.23279591951664005  1.0000
  C   C23       1.0  0.2368364105346075  0.7315594463604853  0.7328044096867431  1.0000
  C   C24       1.0  0.7367851636352187  0.23156955394566126  0.7672027727081243  1.0000
  C   C25       1.0  0.8338071179175517  0.16231613032720563  0.2908249795438351  1.0000
  C   C26       1.0  0.33382467119337644  0.6623282456767683  0.20916723642758234  1.0000
  C   C27       1.0  0.16621607415770973  0.8376740665452829  0.709173002988301  1.0000
  C   C28       1.0  0.666148431546546  0.3376733036687654  0.7908222233947911  1.0000
  C   C29       1.0  0.4156848416592922  0.602491816461871  0.2792584084576148  1.0000
  C   C30       1.0  0.915679098118439  0.10249783877227972  0.2207309376988249  1.0000
  C   C31       1.0  0.5842812662191008  0.39750197421610517  0.7207338920031248  1.0000
  C   C32       1.0  0.08433894185223072  0.8974987444997141  0.7792613633534486  1.0000
  C   C33       1.0  0.36564723666947435  0.743360668930258  0.3928850423186958  1.0000
  C   C34       1.0  0.8656298622149806  0.24337734862409371  0.10710263535295182  1.0000
  C   C35       1.0  0.6343691486550683  0.25664618007660067  0.6071008671106527  1.0000
  C   C36       1.0  0.1343728391831007  0.756627134636787  0.8928932163891191  1.0000
  C   C37       1.0  0.7794950937410337  0.307943985161117  0.17204003071956467  1.0000
  C   C38       1.0  0.2795077097348084  0.8079401672104395  0.3279546622104519  1.0000
  C   C39       1.0  0.22051345205574086  0.6920513205569919  0.8279607923393402  1.0000
  C   C40       1.0  0.7204965288451673  0.1920653095410358  0.6720340877863152  1.0000
  N   N1        1.0  0.4331898353285057  0.6419118286782535  0.3696987549443449  1.0000
  N   N2        1.0  0.9331641407135294  0.1419244958029111  0.13028729723891533  1.0000
  N   N3        1.0  0.5668096378936411  0.35808409175456996  0.630285733958573  1.0000
  N   N4        1.0  0.06683856040763199  0.8580799874421244  0.8697014527420138  1.0000
  O   O1        1.0  0.7428054864955131  0.51229994337357  0.4496733524610903  1.0000
  O   O2        1.0  0.24280537902400579  0.012300646499511503  0.050326556674996  1.0000
  O   O3        1.0  0.2572148423063681  0.48768921266867704  0.5503338623295377  1.0000
  O   O4        1.0  0.7571814305388928  0.9876798039362527  0.9496607728153494  1.0000
  O   O5        1.0  0.4050936363730814  0.3521839423339017  0.4191684130869859  1.0000
  O   O6        1.0  0.9050984386814849  0.8521959280625567  0.0808375251294393  1.0000
  O   O7        1.0  0.5949254607111811  0.6478173717878803  0.5808416423715671  1.0000
  O   O8        1.0  0.09489693954967043  0.1478111096195533  0.9191590366999024  1.0000
