data_image0
_chemical_formula_structural       U4H16C24N8O28
_chemical_formula_sum              "U4 H16 C24 N8 O28"
_cell_length_a       9.092195177003111
_cell_length_b       9.851815128004176
_cell_length_c       10.30526797200077
_cell_angle_alpha    89.99995569150344
_cell_angle_beta     89.99999904069912
_cell_angle_gamma    90.00009526999175

_space_group_name_H-M_alt    "P 1"
_space_group_IT_number       1

loop_
  _space_group_symop_operation_xyz
  'x, y, z'

loop_
  _atom_site_type_symbol
  _atom_site_label
  _atom_site_symmetry_multiplicity
  _atom_site_fract_x
  _atom_site_fract_y
  _atom_site_fract_z
  _atom_site_occupancy
  U   U1        1.0  0.4047523657246046  0.9157245747891025  0.9601289833300509  1.0000
  U   U2        1.0  0.0952477000511465  0.08427471206328357  0.46012677011273667  1.0000
  U   U3        1.0  0.5952482650918823  0.4157266729830198  0.539873233513873  1.0000
  U   U4        1.0  0.9047501344101077  0.5842747322183897  0.03987161351268748  1.0000
  H   H1        1.0  0.2528070940383884  0.178773969693296  0.9543788006528044  1.0000
  H   H2        1.0  0.24719627131196384  0.8212263368523055  0.4543799203667475  1.0000
  H   H3        1.0  0.7471942075559285  0.6787757747196108  0.5456187395116314  1.0000
  H   H4        1.0  0.7528041919056037  0.3212256258340531  0.04561925842782699  1.0000
  H   H5        1.0  0.3589311131829049  0.211185693516846  0.07261908694741237  1.0000
  H   H6        1.0  0.14107225485494723  0.7888149217913561  0.5726175188413832  1.0000
  H   H7        1.0  0.6410702506192792  0.7111849976658033  0.4273792028367466  1.0000
  H   H8        1.0  0.8589270463094465  0.28881507908421605  0.9273779992013967  1.0000
  H   H9        1.0  0.46737259816686105  0.3536942073297808  0.8967499554189046  1.0000
  H   H10       1.0  0.0326274680532137  0.6463031006992421  0.3967492688834823  1.0000
  H   H11       1.0  0.5326279203272789  0.8536976682245409  0.6032484257815511  1.0000
  H   H12       1.0  0.9673704787276449  0.14630267067806096  0.10324809849912239  1.0000
  H   H13       1.0  0.3416637769880566  0.45603286487354916  0.2742537338987744  1.0000
  H   H14       1.0  0.15833848978317627  0.543964542230931  0.7742513760476866  1.0000
  H   H15       1.0  0.6583358304972009  0.9560394637525885  0.22574825634587362  1.0000
  H   H16       1.0  0.8416625676962753  0.04396179111526519  0.7257482045552236  1.0000
  C   C1        1.0  0.373958662221753  0.625562108362672  0.14304019791067898  1.0000
  C   C2        1.0  0.12603810625208212  0.3744364199028637  0.6430369958135528  1.0000
  C   C3        1.0  0.6260403468490524  0.12556501215628657  0.3569630070720392  1.0000
  C   C4        1.0  0.8739569505763  0.8744361365864461  0.856962340428467  1.0000
  C   C5        1.0  0.44595442279900516  0.5687672323915434  0.9361539946278724  1.0000
  C   C6        1.0  0.0540478428352458  0.4312330888942242  0.43615249622933305  1.0000
  C   C7        1.0  0.5540466795970714  0.06876924828755189  0.5638465380109564  1.0000
  C   C8        1.0  0.945951719735227  0.9312311224825504  0.06384660122367337  1.0000
  C   C9        1.0  0.4402472056105681  0.4313082815378876  0.968426859858546  1.0000
  C   C10       1.0  0.05975505979557029  0.5686909986043458  0.4684262300595775  1.0000
  C   C11       1.0  0.5597523535815654  0.9313118418176952  0.5315743750843395  1.0000
  C   C12       1.0  0.9402471458241664  0.06869058513737507  0.03157410584395139  1.0000
  C   C13       1.0  0.3694612733713285  0.48754387043103253  0.17581377811498555  1.0000
  C   C14       1.0  0.1305387944040817  0.5124536162885107  0.6758114442329556  1.0000
  C   C15       1.0  0.6305372913271867  0.9875483171674655  0.3241891592078544  1.0000
  C   C16       1.0  0.869460006328886  0.012452858082013997  0.8241891300467753  1.0000
  C   C17       1.0  0.33875274813043177  0.7422461270921088  0.2319713700344437  1.0000
  C   C18       1.0  0.1612517186290816  0.25775334429170016  0.7319750460114064  1.0000
  C   C19       1.0  0.6612486719197577  0.2422501716092427  0.26802980791347136  1.0000
  C   C20       1.0  0.838748626131661  0.7577510490605164  0.7680311691523725  1.0000
  C   C21       1.0  0.4899647479650681  0.6249001213717448  0.8071801316546042  1.0000
  C   C22       1.0  0.010035318887396697  0.375099289183069  0.3071786758217597  1.0000
  C   C23       1.0  0.5100364560744595  0.12490095071827059  0.6928203594784534  1.0000
  C   C24       1.0  0.9899630421943044  0.8750993157405631  0.19282046313741563  1.0000
  N   N1        1.0  0.41041084037552616  0.6637744323839454  0.023132578480847595  1.0000
  N   N2        1.0  0.08958702878683769  0.33622419286190547  0.5231294055161584  1.0000
  N   N3        1.0  0.5895893377347292  0.16377819858464446  0.47686962786880815  1.0000
  N   N4        1.0  0.9104079588465126  0.8362228531790163  0.9768699589814389  1.0000
  N   N5        1.0  0.40049439640500856  0.39142661647386473  0.08796165819910577  1.0000
  N   N6        1.0  0.0995078716795064  0.608572971383225  0.5879602243688281  1.0000
  N   N7        1.0  0.5995061939318944  0.8914278996528392  0.41203940944166106  1.0000
  N   N8        1.0  0.9004911031066527  0.10857421958608171  0.9120393084593628  1.0000
  O   O1        1.0  0.33665874976289706  0.8584135744003161  0.17410965853325416  1.0000
  O   O2        1.0  0.1633457174030752  0.14158492874408773  0.6741027462052854  1.0000
  O   O3        1.0  0.663345080328355  0.3584155452352674  0.3258933742729439  1.0000
  O   O4        1.0  0.8366500176259848  0.6415846135929966  0.8258928807036411  1.0000
  O   O5        1.0  0.3162785074371328  0.7204927106003892  0.3496044183900082  1.0000
  O   O6        1.0  0.18372595849156428  0.27950362052416716  0.8495964332123973  1.0000
  O   O7        1.0  0.6837250729121607  0.22049789961383223  0.15039871639750396  1.0000
  O   O8        1.0  0.8162733258126735  0.7795044312375833  0.6503971509602022  1.0000
  O   O9        1.0  0.4889706049877134  0.7533871072534449  0.7974569017799026  1.0000
  O   O10       1.0  0.011026162399979  0.24661231116203192  0.2974574816849653  1.0000
  O   O11       1.0  0.5110330314018512  0.25338691521358203  0.7025454351016406  1.0000
  O   O12       1.0  0.9889719660195694  0.7466123283437155  0.20254272265852077  1.0000
  O   O13       1.0  0.5243249142379298  0.5441394319397471  0.716898180802829  1.0000
  O   O14       1.0  0.9756756837048215  0.4558598000054274  0.21689665404756645  1.0000
  O   O15       1.0  0.4756750437160164  0.044139120763659896  0.7831013996698671  1.0000
  O   O16       1.0  0.024321723773653  0.9558613243035264  0.2831024251945066  1.0000
  O   O17       1.0  0.2214555724375415  0.888773081226446  0.8982383196113585  1.0000
  O   O18       1.0  0.2785455936201586  0.11122828576735337  0.39823220054355335  1.0000
  O   O19       1.0  0.7785472092655465  0.38877642426852077  0.6017658579157226  1.0000
  O   O20       1.0  0.721454489335791  0.6112269609599464  0.10176519277464277  1.0000
  O   O21       1.0  0.5905556998326773  0.9337238104489244  0.020184469714763495  1.0000
  O   O22       1.0  0.9094470991837014  0.06627558059643948  0.5201843997927823  1.0000
  O   O23       1.0  0.4094471667824351  0.43372323905254007  0.4798165666509461  1.0000
  O   O24       1.0  0.0905539986991215  0.566276031877734  0.9798141939340538  1.0000
  O   O25       1.0  0.31289045586026987  0.13295846857977978  0.025376288645802  1.0000
  O   O26       1.0  0.1871140123536392  0.8670411698967864  0.5253756319662415  1.0000
  O   O27       1.0  0.6871107662902602  0.6329588198563624  0.47462302935883116  1.0000
  O   O28       1.0  0.8128865303068052  0.3670422337249588  0.9746217689884986  1.0000
