data_image0
_chemical_formula_structural       Zn2H24C32N4O8
_chemical_formula_sum              "Zn2 H24 C32 N4 O8"
_cell_length_a       7.773854101806648
_cell_length_b       9.536784415426531
_cell_length_c       12.910438395889313
_cell_angle_alpha    112.01287323749165
_cell_angle_beta     107.9043374463098
_cell_angle_gamma    89.00151128182019

_space_group_name_H-M_alt    "P 1"
_space_group_IT_number       1

loop_
  _space_group_symop_operation_xyz
  'x, y, z'

loop_
  _atom_site_type_symbol
  _atom_site_label
  _atom_site_symmetry_multiplicity
  _atom_site_fract_x
  _atom_site_fract_y
  _atom_site_fract_z
  _atom_site_occupancy
  Zn  Zn1       1.0  0.2901436891244203  0.10863475157404423  0.1979875862406502  1.0000
  Zn  Zn2       1.0  0.5919836915616516  0.9106833926610137  0.8021282478893355  1.0000
  H   H1        1.0  0.6598302034562664  0.15828707691598254  0.7255768590946089  1.0000
  H   H2        1.0  0.43420149919005285  0.4327081408530802  0.27422368855582857  1.0000
  H   H3        1.0  0.8086220648990264  0.4261073489992313  0.8182373076183609  1.0000
  H   H4        1.0  0.49024842943100577  0.6076058440402293  0.18141615935685715  1.0000
  H   H5        1.0  0.98102391675981  0.37281773151322994  0.15286838369010525  1.0000
  H   H6        1.0  0.3278325312146819  0.21935239978098764  0.8468457833919911  1.0000
  H   H7        1.0  0.8291189689755357  0.10834868209429524  0.04596136654505051  1.0000
  H   H8        1.0  0.28317436194096507  0.06201001448116018  0.9539767699794622  1.0000
  H   H9        1.0  0.05159407031457163  0.6167201869520654  0.15586959663433222  1.0000
  H   H10       1.0  0.39514453696942553  0.4605299624482271  0.8438163361414652  1.0000
  H   H11       1.0  0.995556471149847  0.6510412437189004  0.9203479161917016  1.0000
  H   H12       1.0  0.5754421618059952  0.7300912834520971  0.07946777300485049  1.0000
  H   H13       1.0  0.6309380105077907  0.0359482075384108  0.1506514811263742  1.0000
  H   H14       1.0  0.9798452563304425  0.8856641696280648  0.8494155388727762  1.0000
  H   H15       1.0  0.9387624860493633  0.9837918355039862  0.25305596020216115  1.0000
  H   H16       1.0  0.18547168561257624  0.7311657679328292  0.7471457238163807  1.0000
  H   H17       1.0  0.7492047435367583  0.028646018469025612  0.5449556057605491  1.0000
  H   H18       1.0  0.7042641133489697  0.4832813060257948  0.4553068111362037  1.0000
  H   H19       1.0  0.4545194938154325  0.0816061395880467  0.43414649592282467  1.0000
  H   H20       1.0  0.5202188599945075  0.6469628215724583  0.5660227994326164  1.0000
  H   H21       1.0  0.15313779358824317  0.9664575406946765  0.4193234221159726  1.0000
  H   H22       1.0  0.23379054302778005  0.5473230722009461  0.5808122299871386  1.0000
  H   H23       1.0  0.033122020913964406  0.0011931241468233005  0.6336114036030764  1.0000
  H   H24       1.0  0.8993446234316379  0.36674966945872717  0.3669820361529688  1.0000
  C   C1        1.0  0.7366392664295776  0.21133098217981683  0.8197540527795155  1.0000
  C   C2        1.0  0.4168508886614859  0.391416821635204  0.18004258438352136  1.0000
  C   C3        1.0  0.8196836745712305  0.3596553861473383  0.8722330629658329  1.0000
  C   C4        1.0  0.4473584189812528  0.48711781826150247  0.1274836234905763  1.0000
  C   C5        1.0  0.9111716123885503  0.4233889508674338  0.9949027989962929  1.0000
  C   C6        1.0  0.41589119534860697  0.4280680469055015  0.004771395737712775  1.0000
  C   C7        1.0  0.9127114454194684  0.3308162929621972  0.05790457126473569  1.0000
  C   C8        1.0  0.3545230706479359  0.2724487278828249  0.9418011040424616  1.0000
  C   C9        1.0  0.8282869458793697  0.18274971689533703  0.9991729674125835  1.0000
  C   C10       1.0  0.32905649379605256  0.1832394980760625  0.0006589376107442056  1.0000
  C   C11       1.0  0.0014248327624315398  0.5778866264243876  0.05956696222053646  1.0000
  C   C12       1.0  0.4414508593280291  0.5179407343540776  0.9401310130190623  1.0000
  C   C13       1.0  0.03436049220712079  0.677478059821361  0.01485758756869159  1.0000
  C   C14       1.0  0.519507062232023  0.6621520182587305  0.9849449703924974  1.0000
  C   C15       1.0  0.13061474887416588  0.8310757104985103  0.09670296238133606  1.0000
  C   C16       1.0  0.5338493609522531  0.7340698003392917  0.9032179226956529  1.0000
  C   C17       1.0  0.6645753521776784  0.036958738171115606  0.23941883276743428  1.0000
  C   C18       1.0  0.9248520043135786  0.7976969390834585  0.7607187254176679  1.0000
  C   C19       1.0  0.8345543022148547  0.005805628495984606  0.295591232832777  1.0000
  C   C20       1.0  0.038758669435743805  0.7104512272133762  0.704575673708746  1.0000
  C   C21       1.0  0.873953772889891  0.006525304902730501  0.40954818991689723  1.0000
  C   C22       1.0  0.9643249581598499  0.5968981802056348  0.5906887327301504  1.0000
  C   C23       1.0  0.7325019776006629  0.032293660628269494  0.459131798768034  1.0000
  C   C24       1.0  0.7732894324176911  0.5728518759493754  0.5411261523190305  1.0000
  C   C25       1.0  0.5656229407392743  0.0620880852225341  0.39740237137143447  1.0000
  C   C26       1.0  0.6680352814117898  0.6643527632163214  0.6028120543776012  1.0000
  C   C27       1.0  0.05834290215674541  0.984576151508371  0.4693578194328155  1.0000
  C   C28       1.0  0.08895298021522542  0.5150637846434095  0.5308788222405951  1.0000
  C   C29       1.0  0.12100998713448516  0.9873083022514136  0.5795269292363442  1.0000
  C   C30       1.0  0.041347375625974805  0.407217163608891  0.42081102494912404  1.0000
  C   C31       1.0  0.31382607716693667  0.9680569560085318  0.6341902673131017  1.0000
  C   C32       1.0  0.17940275513233672  0.3334400495489902  0.3659297342418668  1.0000
  N   N1        1.0  0.7407169611847949  0.12360874402589418  0.8819247209605549  1.0000
  N   N2        1.0  0.35873054093473666  0.24148816678023624  0.117915427983533  1.0000
  N   N3        1.0  0.5326392172204777  0.06691520961685882  0.2897890924719491  1.0000
  N   N4        1.0  0.7425689199769963  0.776974262655223  0.7103554084477963  1.0000
  O   O1        1.0  0.16166975396961203  0.92220548155855  0.04903966404869932  1.0000
  O   O2        1.0  0.6127114376680112  0.8728554122146407  0.9509469633719192  1.0000
  O   O3        1.0  0.17766857616356904  0.8690876310142246  0.20683232859288847  1.0000
  O   O4        1.0  0.4705315406586621  0.6620761824230926  0.7930799495119274  1.0000
  O   O5        1.0  0.4337953898494505  0.9710182519263953  0.5887158830080281  1.0000
  O   O6        1.0  0.3447997045503187  0.38207627826237467  0.41135422625969653  1.0000
  O   O7        1.0  0.3427074803838508  0.9498458040727012  0.7333883562317779  1.0000
  O   O8        1.0  0.10917701981029641  0.21611780788027352  0.2666448763923626  1.0000
