data_image0
_chemical_formula_structural       Cu2H28C30N4O10
_chemical_formula_sum              "Cu2 H28 C30 N4 O10"
_cell_length_a       8.830911247712708
_cell_length_b       10.721292948229872
_cell_length_c       11.552451279483119
_cell_angle_alpha    100.2443860570138
_cell_angle_beta     104.87238619388499
_cell_angle_gamma    101.66406796276102

_space_group_name_H-M_alt    "P 1"
_space_group_IT_number       1

loop_
  _space_group_symop_operation_xyz
  'x, y, z'

loop_
  _atom_site_type_symbol
  _atom_site_label
  _atom_site_symmetry_multiplicity
  _atom_site_fract_x
  _atom_site_fract_y
  _atom_site_fract_z
  _atom_site_occupancy
  Cu  Cu1       1.0  6.442753956999999e-07  1.9797825956000006e-06  2.1699184671e-06  1.0000
  Cu  Cu2       1.0  0.4999990499091568  0.9999983630618204  0.49999941973988643  1.0000
  H   H1        1.0  0.018781073843186325  0.8367240340199161  0.32720323991662076  1.0000
  H   H2        1.0  0.9812254968722414  0.1632831062030462  0.6727989108116647  1.0000
  H   H3        1.0  0.9451908445001039  0.4261031387083846  0.7176475605616375  1.0000
  H   H4        1.0  0.05480252409205384  0.5738922009008578  0.2823466847745665  1.0000
  H   H5        1.0  0.06938146091422938  0.652093027268613  0.6974136888420973  1.0000
  H   H6        1.0  0.9306172405174068  0.3479042939828858  0.3025845080247294  1.0000
  H   H7        1.0  0.7065465616029556  0.827684721086854  0.561376442094982  1.0000
  H   H8        1.0  0.29345469898654397  0.17230965029076376  0.43862178850544353  1.0000
  H   H9        1.0  0.651839292588214  0.05243662176612671  0.30318533044692947  1.0000
  H   H10       1.0  0.3481592163291154  0.9475636952797333  0.6968184960310354  1.0000
  H   H11       1.0  0.678976361654989  0.5928235795725529  0.3639375266219035  1.0000
  H   H12       1.0  0.32102179259882035  0.40717568214107314  0.6360582730224138  1.0000
  H   H13       1.0  0.5600599985049258  0.36930682068925347  0.3842678625892547  1.0000
  H   H14       1.0  0.4399354913620074  0.6306914542932988  0.615726395156898  1.0000
  H   H15       1.0  0.14387855500017108  0.20079516473771258  0.24658840428495668  1.0000
  H   H16       1.0  0.8561255885656963  0.799208082941114  0.7534161200113518  1.0000
  H   H17       1.0  0.1357253299521162  0.28813953163031414  0.12943108985203372  1.0000
  H   H18       1.0  0.8642788176794767  0.7118637242286212  0.8705743021785751  1.0000
  H   H19       1.0  0.32734303656600616  0.29989082627928815  0.23780297928288263  1.0000
  H   H20       1.0  0.6726616379147785  0.7001104482169395  0.7622004712987264  1.0000
  H   H21       1.0  0.4471418356115747  0.11343808219699274  0.2200346908095625  1.0000
  H   H22       1.0  0.5528575222926408  0.8865612433774507  0.7799682791786324  1.0000
  H   H23       1.0  0.34373100859313865  0.9694652391611671  0.09604101841047454  1.0000
  H   H24       1.0  0.6562674921927396  0.0305350615244606  0.9039610725988823  1.0000
  H   H25       1.0  0.2710376524607625  0.0004919039219685993  0.2260678762800126  1.0000
  H   H26       1.0  0.7289608483251087  0.9995083967636519  0.7739342147293513  1.0000
  H   H27       1.0  0.26815865027531766  0.1490504118256197  0.03418743896874331  1.0000
  H   H28       1.0  0.7318440000282607  0.8509518475420209  0.9658157718988677  1.0000
  C   C1        1.0  0.9197522415205555  0.86584092568706  0.35613000603154193  1.0000
  C   C2        1.0  0.08025157177615232  0.1341613157402293  0.6438716978369288  1.0000
  C   C3        1.0  0.8884021431600003  0.4642954708748945  0.6409067165918217  1.0000
  C   C4        1.0  0.11159366477890124  0.535703785818839  0.35908775837926754  1.0000
  C   C5        1.0  0.9572748516163327  0.5887549982721084  0.6303331233955307  1.0000
  C   C6        1.0  0.042722988631226165  0.4112432899104521  0.3696633267581576  1.0000
  C   C7        1.0  0.8818294754737791  0.6333521726022654  0.5296353560830412  1.0000
  C   C8        1.0  0.11816985397034328  0.3666470957113575  0.4703615397650367  1.0000
  C   C9        1.0  0.8355457849074382  0.947156361258749  0.29929471923389883  1.0000
  C   C10       1.0  0.16445952978301653  0.05284688483995842  0.7007100335318769  1.0000
  C   C11       1.0  0.7460948925739785  0.38372591622524505  0.5516556242580037  1.0000
  C   C12       1.0  0.2539037844632901  0.6162713559455498  0.44833736620300624  1.0000
  C   C13       1.0  0.874822610012508  0.824604119941654  0.45307565200874234  1.0000
  C   C14       1.0  0.1251782248910871  0.17539616122351023  0.5469251604709413  1.0000
  C   C15       1.0  0.7483519369169188  0.8622414512413743  0.4890592648975913  1.0000
  C   C16       1.0  0.25164559339012976  0.13775587159023672  0.5109387034997681  1.0000
  C   C17       1.0  0.6807747345431779  0.2466625262261104  0.5598747171436785  1.0000
  C   C18       1.0  0.3192271499930755  0.7533337840335153  0.4401213447036981  1.0000
  C   C19       1.0  0.7140891207703318  0.9851321088446459  0.34269431704462516  1.0000
  C   C20       1.0  0.28591086921210257  0.014869171972044602  0.6573082196591359  1.0000
  C   C21       1.0  0.736946442212613  0.5566876718164764  0.44169538839891237  1.0000
  C   C22       1.0  0.2630525528966245  0.44331058206550017  0.5582978192870274  1.0000
  C   C23       1.0  0.6708087295216174  0.4319124779826142  0.4532051170441279  1.0000
  C   C24       1.0  0.32918707841728434  0.5680867787111269  0.5467893579269545  1.0000
  C   C25       1.0  0.8705277494320356  0.9946879361628619  0.19128142823205962  1.0000
  C   C26       1.0  0.1294711665233663  0.0053172664786629  0.8087206526981917  1.0000
  C   C27       1.0  0.20745758755405327  0.23392334196709905  0.18332297504790773  1.0000
  C   C28       1.0  0.792547723070669  0.7660798959514922  0.8166809099835606  1.0000
  C   C29       1.0  0.32841216438155396  0.046415643130636404  0.16503720897220833  1.0000
  C   C30       1.0  0.6715883605815235  0.9535836726835782  0.8349651217511538  1.0000
  N   N1        1.0  0.6709538208454687  0.9421892799221396  0.43488274394626814  1.0000
  N   N2        1.0  0.32904553299302103  0.05781003747218701  0.5651193583076265  1.0000
  N   N3        1.0  0.22231123969991268  0.11883911560005342  0.10026346175061461  1.0000
  N   N4        1.0  0.7776902435448036  0.8811631535278154  0.8997403883818367  1.0000
  O   O1        1.0  0.9629327269570213  0.7535686856784595  0.518768229583671  1.0000
  O   O2        1.0  0.03706712933629319  0.24642860127246277  0.48122672481540724  1.0000
  O   O3        1.0  0.7395584984660462  0.20598626722991042  0.6521554522822371  1.0000
  O   O4        1.0  0.26044135782726835  0.7940110197210046  0.347839502116841  1.0000
  O   O5        1.0  0.5614696690186491  0.17360258144466204  0.4640223254395579  1.0000
  O   O6        1.0  0.43852637209184303  0.8263937612558865  0.5359751972634117  1.0000
  O   O7        1.0  0.9709204642342825  0.94205658722327  0.14757614316374662  1.0000
  O   O8        1.0  0.0290778196429073  0.057946660176007504  0.8524263710509459  1.0000
  O   O9        1.0  0.8029237515228472  0.0760368441393098  0.1496666555069766  1.0000
  O   O10       1.0  0.1970826226125411  0.9239732836978904  0.8503402570981466  1.0000
