data_image0
_chemical_formula_structural       Zn12H72C112N16O48
_chemical_formula_sum              "Zn12 H72 C112 N16 O48"
_cell_length_a       15.319256615018825
_cell_length_b       15.31927489102475
_cell_length_c       22.75937158501153
_cell_angle_alpha    90.00010751164396
_cell_angle_beta     89.99995943825202
_cell_angle_gamma    90.00017547862308

_space_group_name_H-M_alt    "P 1"
_space_group_IT_number       1

loop_
  _space_group_symop_operation_xyz
  'x, y, z'

loop_
  _atom_site_type_symbol
  _atom_site_label
  _atom_site_symmetry_multiplicity
  _atom_site_fract_x
  _atom_site_fract_y
  _atom_site_fract_z
  _atom_site_occupancy
  Zn  Zn1       1.0  0.7813559963764052  0.2186476627369558  0.25000027367477173  1.0000
  Zn  Zn2       1.0  0.2813633004234219  0.2813583952457321  1.1449859730000008e-07  1.0000
  Zn  Zn3       1.0  0.21864194033589973  0.7813510221850567  0.7500000636364563  1.0000
  Zn  Zn4       1.0  0.718640787214433  0.718643511471427  0.49999652290883745  1.0000
  Zn  Zn5       1.0  0.8350199639031788  0.2560514048340892  0.10665845401214823  1.0000
  Zn  Zn6       1.0  0.2439466033572302  0.3350200316885151  0.8566591348768998  1.0000
  Zn  Zn7       1.0  0.16498074213039626  0.743948840009395  0.6066586602749454  1.0000
  Zn  Zn8       1.0  0.7560518683981174  0.6649809079947887  0.35665772490060016  1.0000
  Zn  Zn9       1.0  0.3350185090934943  0.24394894251726384  0.1433414704750788  1.0000
  Zn  Zn10      1.0  0.2560504165847917  0.8350209207243395  0.8933436778798339  1.0000
  Zn  Zn11      1.0  0.6649795453482242  0.7560474876462919  0.6433436625080732  1.0000
  Zn  Zn12      1.0  0.743953889639677  0.16498273201734995  0.3933420793548095  1.0000
  H   H1        1.0  0.026041800255406092  0.15069492252478509  0.2974305337437358  1.0000
  H   H2        1.0  0.3493003658949618  0.5260372478646858  0.047430825540473606  1.0000
  H   H3        1.0  0.9739586951925787  0.8493019359075618  0.7974283101786099  1.0000
  H   H4        1.0  0.6507010582831755  0.47395891573012244  0.5474313485478604  1.0000
  H   H5        1.0  0.5260412005506084  0.34929934060973983  0.9525681428994943  1.0000
  H   H6        1.0  0.15069691229846427  0.0260357291503439  0.7025738623283361  1.0000
  H   H7        1.0  0.47396042919248765  0.6506972962472658  0.4525729939067703  1.0000
  H   H8        1.0  0.8492991184501407  0.9739647822653837  0.20257016526885255  1.0000
  H   H9        1.0  0.17987886206231002  0.13908238633096912  0.33301056005040414  1.0000
  H   H10       1.0  0.3609062364001049  0.6798755363280266  0.08301274637214111  1.0000
  H   H11       1.0  0.8201222468821214  0.8609139182232894  0.8330106177676772  1.0000
  H   H12       1.0  0.6390918846365778  0.3201207261544994  0.58301132223378  1.0000
  H   H13       1.0  0.679880295511282  0.3609051674037289  0.9169884862928585  1.0000
  H   H14       1.0  0.13907845754483364  0.1798719248396452  0.6669908182450968  1.0000
  H   H15       1.0  0.3201246373687496  0.6390881067022819  0.41698987723486175  1.0000
  H   H16       1.0  0.860905862562042  0.8201271821150585  0.16698736042209114  1.0000
  H   H17       1.0  0.1262126737015521  0.231385998092918  0.12918734044037453  1.0000
  H   H18       1.0  0.2686185995963939  0.6262173037562634  0.8791876158951696  1.0000
  H   H19       1.0  0.873786049151647  0.7686182259947502  0.6291850600279646  1.0000
  H   H20       1.0  0.7313811528417986  0.3737863096332248  0.3791858482003434  1.0000
  H   H21       1.0  0.626211540287045  0.2686221958745989  0.12081399676146991  1.0000
  H   H22       1.0  0.2313816973944824  0.12621054063284023  0.8708162504790807  1.0000
  H   H23       1.0  0.373785233484341  0.7313800466253255  0.6208154106679233  1.0000
  H   H24       1.0  0.7686174115090337  0.8737917439439259  0.3708146599570412  1.0000
  H   H25       1.0  0.30879893823450283  0.13591732252750427  0.356196142655243  1.0000
  H   H26       1.0  0.36407563488370437  0.8087955134153191  0.10619844111791112  1.0000
  H   H27       1.0  0.6912027978989885  0.86408426864606  0.8561945052570152  1.0000
  H   H28       1.0  0.6359139745090874  0.19119950794413404  0.6061920219240308  1.0000
  H   H29       1.0  0.8088030180841772  0.36408498700105  0.8938076784811388  1.0000
  H   H30       1.0  0.1359257732755168  0.3087866056224797  0.6438026505337862  1.0000
  H   H31       1.0  0.1912058570411759  0.6359186670353908  0.39380472999683047  1.0000
  H   H32       1.0  0.864082725029711  0.6912104786099037  0.1438038611384584  1.0000
  H   H33       1.0  0.46873684940798915  0.14010709272638167  0.3792081680147207  1.0000
  H   H34       1.0  0.3598922437633902  0.9687339184125179  0.12921060229631823  1.0000
  H   H35       1.0  0.5312655140976831  0.859895215180906  0.8792074765058546  1.0000
  H   H36       1.0  0.6401038679620469  0.0312631252350783  0.6292052967328844  1.0000
  H   H37       1.0  0.9687389835083806  0.35989635934590325  0.8707947019260873  1.0000
  H   H38       1.0  0.14010900152368322  0.4687236539256149  0.6207902525880941  1.0000
  H   H39       1.0  0.031269917023188  0.6401091890444093  0.370790513047858  1.0000
  H   H40       1.0  0.8598962583161127  0.5312727135702743  0.12079214123530595  1.0000
  H   H41       1.0  0.5131798535031606  0.23856653945072986  0.20482379211729554  1.0000
  H   H42       1.0  0.2614384194258008  0.013181202180014399  0.9548259608753398  1.0000
  H   H43       1.0  0.486819438617026  0.7614287560511885  0.704825192900401  1.0000
  H   H44       1.0  0.7385703883403211  0.9868193575872016  0.4548232090124317  1.0000
  H   H45       1.0  0.013180518915888199  0.2614249890680895  0.04517583874977761  1.0000
  H   H46       1.0  0.2385615313314915  0.5131758898577133  0.7951742472681079  1.0000
  H   H47       1.0  0.9868189494249222  0.738565946074189  0.545174347840053  1.0000
  H   H48       1.0  0.7614246056028121  0.4868248789162521  0.295172169784891  1.0000
  H   H49       1.0  0.66301452840478  0.059897733527776595  0.2016812032426287  1.0000
  H   H50       1.0  0.4401033253465059  0.163010364468235  0.9516796191306157  1.0000
  H   H51       1.0  0.33698607272958014  0.940098206019414  0.701686413264362  1.0000
  H   H52       1.0  0.5598969998343151  0.8369869226838061  0.4516802734162297  1.0000
  H   H53       1.0  0.16301377932264674  0.44010665650547054  0.04832143542703451  1.0000
  H   H54       1.0  0.05989643159206539  0.6630162636717359  0.7983212182058284  1.0000
  H   H55       1.0  0.8369843800201338  0.5598973428243569  0.5483189072710318  1.0000
  H   H56       1.0  0.9401047156654556  0.33699234713670734  0.2983162337072899  1.0000
  H   H57       1.0  0.6925461279040591  0.9835549943598351  0.1448941855547332  1.0000
  H   H58       1.0  0.516443268099934  0.1925424790700276  0.894892903254288  1.0000
  H   H59       1.0  0.3074577997839683  0.016444703999035  0.6449026326413546  1.0000
  H   H60       1.0  0.4835545086750345  0.8074566085619709  0.39489223656675426  1.0000
  H   H61       1.0  0.19254467121680824  0.5164478612885334  0.10510687625108521  1.0000
  H   H62       1.0  0.9835509253037387  0.6925485279178716  0.8551064269008537  1.0000
  H   H63       1.0  0.8074540782137164  0.48355433755468613  0.6051055828965702  1.0000
  H   H64       1.0  0.016448200954698705  0.3074608934847234  0.3550996264285544  1.0000
  H   H65       1.0  0.6125917624336737  0.0646738939616114  0.131096667757177  1.0000
  H   H66       1.0  0.4353223762475551  0.11259207637426977  0.8810937202102809  1.0000
  H   H67       1.0  0.38740826384469074  0.9353238077198257  0.6311009701336517  1.0000
  H   H68       1.0  0.5646773740759982  0.887405667365364  0.3810948755812475  1.0000
  H   H69       1.0  0.1125928791221398  0.4353270778035495  0.11890599374699214  1.0000
  H   H70       1.0  0.0646739623917796  0.6125988391695216  0.8689066138772008  1.0000
  H   H71       1.0  0.887405855079635  0.564677117709273  0.6189043275684796  1.0000
  H   H72       1.0  0.9353277597277626  0.3874125789140023  0.3689025741727434  1.0000
  C   C1        1.0  0.9708965397222258  0.20699588392368182  0.19135624917351632  1.0000
  C   C2        1.0  0.29300985040281097  0.47089741287765463  0.9413544305592654  1.0000
  C   C3        1.0  0.029102767277855407  0.7930052490861288  0.6913486702918592  1.0000
  C   C4        1.0  0.7069937500457044  0.5291011511205284  0.4413506737724121  1.0000
  C   C5        1.0  0.470897286990251  0.29300879616322834  0.058647128811323106  1.0000
  C   C6        1.0  0.20699215514468958  0.9708926940976712  0.8086494330837015  1.0000
  C   C7        1.0  0.5291047775871718  0.706991968013611  0.5586475627196066  1.0000
  C   C8        1.0  0.7930063696031483  0.0291061538297939  0.3086467614540425  1.0000
  C   C9        1.0  0.063833563658946  0.19293249914782248  0.21102790269842595  1.0000
  C   C10       1.0  0.3070694108302519  0.5638307115284249  0.9610255038835618  1.0000
  C   C11       1.0  0.9361670271708321  0.807069341319874  0.7110265215043159  1.0000
  C   C12       1.0  0.6929302512634054  0.43616855991719916  0.461027347668896  1.0000
  C   C13       1.0  0.5638326383620865  0.3070709343898983  0.0389730233731811  1.0000
  C   C14       1.0  0.19293004230272004  0.0638294781461255  0.7889756471852181  1.0000
  C   C15       1.0  0.43616683683759305  0.6929297751061938  0.5389769965949541  1.0000
  C   C16       1.0  0.8070678513929225  0.9361725789631877  0.28897411827357905  1.0000
  C   C17       1.0  0.08077491276968368  0.1657035095209736  0.26859405804054864  1.0000
  C   C18       1.0  0.33428929337713237  0.5807734569847439  0.0185943907951298  1.0000
  C   C19       1.0  0.9192230034130163  0.8342913104434474  0.7685922796302977  1.0000
  C   C20       1.0  0.6657121626354439  0.4192245847781564  0.5185935195258226  1.0000
  C   C21       1.0  0.5807774991236273  0.3342883101377936  0.9814050331905548  1.0000
  C   C22       1.0  0.1657042358405221  0.08077271714955712  0.7314081695186588  1.0000
  C   C23       1.0  0.4192234460155434  0.6657077540906543  0.4814072917279689  1.0000
  C   C24       1.0  0.8342878464409297  0.919228527175612  0.23140572805402126  1.0000
  C   C25       1.0  0.1664167771611318  0.15987506302345622  0.2881864036777557  1.0000
  C   C26       1.0  0.34011802553806086  0.6664178861899901  0.038189448722953004  1.0000
  C   C27       1.0  0.8335817701739998  0.8401237280309247  0.7881846714417196  1.0000
  C   C28       1.0  0.659880797754589  0.3335815155743376  0.5381875928401457  1.0000
  C   C29       1.0  0.6664200557726974  0.34011962998523165  0.9618122093873113  1.0000
  C   C30       1.0  0.1598738076823167  0.16641054632371782  0.7118180532568914  1.0000
  C   C31       1.0  0.3335835220919492  0.6598796436523388  0.46181362056862  1.0000
  C   C32       1.0  0.8401176434427172  0.833584768596701  0.21181286438369545  1.0000
  C   C33       1.0  0.23413291357883986  0.1831797412881002  0.24986768253944558  1.0000
  C   C34       1.0  0.31681555392953  0.7341312691051911  0.9998720248219473  1.0000
  C   C35       1.0  0.7658676343749067  0.8168195960384637  0.7498650726910869  1.0000
  C   C36       1.0  0.6831801486488304  0.2658681102933258  0.4998666272113682  1.0000
  C   C37       1.0  0.734133366568493  0.3168196443500478  0.00013316639861220002  1.0000
  C   C38       1.0  0.1831798514209311  0.23412402296057164  0.7501363720549749  1.0000
  C   C39       1.0  0.2658694153725706  0.6831809571939759  0.5001323712271458  1.0000
  C   C40       1.0  0.8168154740489298  0.7658733567844748  0.25013154733654375  1.0000
  C   C41       1.0  0.13520065184628288  0.21131071247397412  0.17476327650683035  1.0000
  C   C42       1.0  0.2886920165483744  0.6352008517432067  0.9247635678573973  1.0000
  C   C43       1.0  0.8647993262434499  0.7886923327421939  0.6747601468370236  1.0000
  C   C44       1.0  0.7113102966709591  0.3648002772313603  0.4247604797330596  1.0000
  C   C45       1.0  0.6351989774544791  0.2886948979286573  0.07523937476106113  1.0000
  C   C46       1.0  0.21130896073562166  0.13519520602005028  0.8252385523801637  1.0000
  C   C47       1.0  0.3647998049413559  0.7113059123605582  0.575240767308202  1.0000
  C   C48       1.0  0.7886921567914983  0.8648030352484285  0.32523738076141484  1.0000
  C   C49       1.0  0.327102168605343  0.18423544123249513  0.2675746536897848  1.0000
  C   C50       1.0  0.3157620097614923  0.8271003602253586  0.017578266365887905  1.0000
  C   C51       1.0  0.6728977070261594  0.8157626397662412  0.7675747208869766  1.0000
  C   C52       1.0  0.6842387946031323  0.17289833147821554  0.517572680859921  1.0000
  C   C53       1.0  0.8271040443046972  0.3157630077054918  0.982427401637118  1.0000
  C   C54       1.0  0.18423488505713695  0.327094457778948  0.7324263635131988  1.0000
  C   C55       1.0  0.1729008163533976  0.6842363232241909  0.48242364389605547  1.0000
  C   C56       1.0  0.8157604599572963  0.6729015672045052  0.23242581528946724  1.0000
  C   C57       1.0  0.3554278848250263  0.1581214018515809  0.32336878986822637  1.0000
  C   C58       1.0  0.34187751933975363  0.8554268837354969  0.0733719981485663  1.0000
  C   C59       1.0  0.644571276451238  0.8418807508545997  0.823369781737874  1.0000
  C   C60       1.0  0.6581193067964153  0.1445706574894103  0.5733668279656784  1.0000
  C   C61       1.0  0.8554312076550871  0.3418810504614598  0.9266310557346104  1.0000
  C   C62       1.0  0.15812142056221026  0.35541813515291665  0.6766291525772844  1.0000
  C   C63       1.0  0.1445782840068617  0.6581200837172502  0.4266299140131836  1.0000
  C   C64       1.0  0.8418798610011535  0.6445777347600554  0.17662987478236408  1.0000
  C   C65       1.0  0.44397721691930053  0.1603383707143139  0.3364469003276938  1.0000
  C   C66       1.0  0.3396614827596879  0.9439748232449291  0.08644710818916221  1.0000
  C   C67       1.0  0.5560238882388903  0.8396618600229644  0.8364452932156042  1.0000
  C   C68       1.0  0.6603359817172461  0.05602340709566532  0.5864431429670276  1.0000
  C   C69       1.0  0.9439785890679673  0.33966108890371766  0.9135577383424762  1.0000
  C   C70       1.0  0.1603383811478807  0.4439680034248283  0.6635528365735723  1.0000
  C   C71       1.0  0.05602895870636362  0.6603393561585237  0.41355268512256066  1.0000
  C   C72       1.0  0.8396616093045068  0.5560284829138311  0.16355300822734625  1.0000
  C   C73       1.0  0.5031263684120049  0.1889095977614232  0.2938758702202336  1.0000
  C   C74       1.0  0.31109079390775213  0.0031292754643673006  0.043877241426464805  1.0000
  C   C75       1.0  0.4968721726398684  0.8110879035638877  0.7938760112195811  1.0000
  C   C76       1.0  0.6889093286553631  0.9968707948791294  0.5438726976279399  1.0000
  C   C77       1.0  0.0031293434059663006  0.31108720630072634  0.9561272105969041  1.0000
  C   C78       1.0  0.18890902520081448  0.5031210366404936  0.706124781140602  1.0000
  C   C79       1.0  0.9968716296442751  0.6889120515244189  0.45612308559176296  1.0000
  C   C80       1.0  0.8110850433099444  0.4968807901880156  0.20612225452626382  1.0000
  C   C81       1.0  0.4700706569193827  0.21501514569538926  0.23940338847076253  1.0000
  C   C82       1.0  0.2849886586645241  0.9700731825659474  0.9894039662582089  1.0000
  C   C83       1.0  0.5299299025764487  0.7849789403696408  0.739402163286826  1.0000
  C   C84       1.0  0.715017499839597  0.029926820529567504  0.48940089161187234  1.0000
  C   C85       1.0  0.9700736119222031  0.28497582364580154  0.010600429258381902  1.0000
  C   C86       1.0  0.2150107332670501  0.4700680212905724  0.760595941925928  1.0000
  C   C87       1.0  0.029929811225017  0.7150150154001979  0.5105958268662009  1.0000
  C   C88       1.0  0.7849774001575797  0.5299346097001275  0.26059566590462424  1.0000
  C   C89       1.0  0.5997146029025587  0.19114746629875162  0.3059816321660875  1.0000
  C   C90       1.0  0.3088604091610919  0.09971414752538271  0.0559835248901308  1.0000
  C   C91       1.0  0.4002845775661968  0.8088539853072874  0.8059809353199369  1.0000
  C   C92       1.0  0.6911449222215467  0.9002846509308214  0.5559801758622527  1.0000
  C   C93       1.0  0.09971758440933341  0.30885289740803057  0.9440227230456275  1.0000
  C   C94       1.0  0.1911397057970561  0.5997065346512258  0.6940146656178144  1.0000
  C   C95       1.0  0.9002886241876951  0.691145021232586  0.44401512957938394  1.0000
  C   C96       1.0  0.8088543760729437  0.400291994665082  0.1940181689675597  1.0000
  C   C97       1.0  0.7423938271047916  0.11334610986286012  0.13158086533783833  1.0000
  C   C98       1.0  0.3866622501448447  0.24239383808208714  0.881578009593021  1.0000
  C   C99       1.0  0.2576016292499261  0.8866646485976161  0.6315794529209456  1.0000
  C   C100      1.0  0.6133342357764492  0.7576006431283205  0.38157326655582596  1.0000
  C   C101      1.0  0.2423980591223156  0.3866657037602579  0.11842437366019004  1.0000
  C   C102      1.0  0.1133390555049161  0.7424033596357377  0.868419413274296  1.0000
  C   C103      1.0  0.7576039394908207  0.6133443653586141  0.6184140403313167  1.0000
  C   C104      1.0  0.8866613616068763  0.257608709864499  0.36841567055220287  1.0000
  C   C105      1.0  0.6739400058154532  0.05111397925259811  0.15458718841301797  1.0000
  C   C106      1.0  0.448889695212479  0.1739429448072229  0.9045842991356071  1.0000
  C   C107      1.0  0.3260554251301144  0.9488890098870472  0.6545893388600066  1.0000
  C   C108      1.0  0.5511100291828441  0.8260548642177172  0.4045827466543345  1.0000
  C   C109      1.0  0.17394510661839746  0.44889436088283224  0.0954167634478651  1.0000
  C   C110      1.0  0.0511081368817017  0.6739404619537696  0.8454152339072324  1.0000
  C   C111      1.0  0.8260601812409619  0.5511071582613669  0.5954124715894125  1.0000
  C   C112      1.0  0.9488942639234496  0.32605914093655036  0.3454115497217316  1.0000
  N   N1        1.0  0.2175616812913077  0.20740467530122692  0.19406695181091752  1.0000
  N   N2        1.0  0.29259375738595145  0.7175611795933108  0.9440659974326664  1.0000
  N   N3        1.0  0.7824415393510548  0.7925958124855158  0.6940660612865345  1.0000
  N   N4        1.0  0.7074033123382648  0.2824386974793782  0.444064564258028  1.0000
  N   N5        1.0  0.717560692939742  0.2925972706809574  0.05593566215218  1.0000
  N   N6        1.0  0.20740159721933082  0.21755742657833815  0.8059335908663243  1.0000
  N   N7        1.0  0.28243941631254194  0.7074041387280516  0.5559353295406595  1.0000
  N   N8        1.0  0.7925949722065585  0.7824427193482109  0.305934949418763  1.0000
  N   N9        1.0  0.3847479820778545  0.21255273996769833  0.2267721260182256  1.0000
  N   N10       1.0  0.2874436149257279  0.8847499397476497  0.9767726314430548  1.0000
  N   N11       1.0  0.6152512858124837  0.7874406582183298  0.726772622827646  1.0000
  N   N12       1.0  0.7125573353372445  0.11525133377887188  0.47677054475855135  1.0000
  N   N13       1.0  0.8847489723645056  0.28743927362743454  0.0232277759407395  1.0000
  N   N14       1.0  0.21255225178671108  0.3847441532861923  0.7732289261701695  1.0000
  N   N15       1.0  0.115253131299454  0.7125548643832147  0.5232292830978126  1.0000
  N   N16       1.0  0.7874410898773334  0.6152565545029204  0.2732256814667694  1.0000
  O   O1        1.0  0.9157280472671872  0.20935824007211323  0.2325634641834499  1.0000
  O   O2        1.0  0.29064278758382034  0.41572905900173407  0.9825594002742833  1.0000
  O   O3        1.0  0.08427382533130161  0.790639743618364  0.7325620086322433  1.0000
  O   O4        1.0  0.7093548924198176  0.5842702722930895  0.4825623029971312  1.0000
  O   O5        1.0  0.4157294855526672  0.29064170166365233  0.0174373025080641  1.0000
  O   O6        1.0  0.20935839620410232  0.9157216218492293  0.7674399996844059  1.0000
  O   O7        1.0  0.5842732772855755  0.7093582952048935  0.5174381538076533  1.0000
  O   O8        1.0  0.7906395212512366  0.08427319491076453  0.2674404746718864  1.0000
  O   O9        1.0  0.9572177233924037  0.2171842585968164  0.1365467489215035  1.0000
  O   O10       1.0  0.2828200702192305  0.45721978078600506  0.8865440356412934  1.0000
  O   O11       1.0  0.0427822968808442  0.7828173748546232  0.6365422265939672  1.0000
  O   O12       1.0  0.7171875073693884  0.5427799364312167  0.3865451247401452  1.0000
  O   O13       1.0  0.4572196845020784  0.28282233791830436  0.11345487774180901  1.0000
  O   O14       1.0  0.2171845045291931  0.9572165510937154  0.8634571743982918  1.0000
  O   O15       1.0  0.5427836251212669  0.7171779258211259  0.6134566364974674  1.0000
  O   O16       1.0  0.7828211402305527  0.04278701858645211  0.3634571609881051  1.0000
  O   O17       1.0  0.6474891845141357  0.22255497557781467  0.2659462651940033  1.0000
  O   O18       1.0  0.2774542807505043  0.1474969842586091  0.015946428703522003  1.0000
  O   O19       1.0  0.35250220686183553  0.7774424481109746  0.7659473077149105  1.0000
  O   O20       1.0  0.7225504420595854  0.852505619552332  0.515942565542325  1.0000
  O   O21       1.0  0.14749790058344564  0.27744422888804376  0.9840549927218805  1.0000
  O   O22       1.0  0.22254793888805582  0.647488273294954  0.7340513829560038  1.0000
  O   O23       1.0  0.8525069582769336  0.722553801018307  0.4840496575826166  1.0000
  O   O24       1.0  0.77744544602254  0.3525142839274337  0.23405176434673086  1.0000
  O   O25       1.0  0.6228612131205082  0.1605318919402166  0.35565652916954354  1.0000
  O   O26       1.0  0.3394767853224039  0.12285830925073073  0.1056549392183967  1.0000
  O   O27       1.0  0.3771463985662962  0.8394696977451517  0.8556567603482251  1.0000
  O   O28       1.0  0.6605337134155462  0.8771419328215729  0.6056572866700877  1.0000
  O   O29       1.0  0.12285520441608358  0.3394698481779201  0.894346936802805  1.0000
  O   O30       1.0  0.16052601161860028  0.6228485062488859  0.6443410837098045  1.0000
  O   O31       1.0  0.8771464896120307  0.6605344601134675  0.3943401937937026  1.0000
  O   O32       1.0  0.8394746528119799  0.3771472739232564  0.14434234697709775  1.0000
  O   O33       1.0  0.7550094168199735  0.1860656695803442  0.1611432361964376  1.0000
  O   O34       1.0  0.31393548656676273  0.2550079418783183  0.9111443161215435  1.0000
  O   O35       1.0  0.24499057629543594  0.8139334211527398  0.6611448130184742  1.0000
  O   O36       1.0  0.6860583556229827  0.7449853159602  0.4111404029244242  1.0000
  O   O37       1.0  0.2550141114927627  0.3139422660385024  0.08885980018806093  1.0000
  O   O38       1.0  0.18606324661418233  0.7550097706989335  0.838857077136247  1.0000
  O   O39       1.0  0.7449911836065581  0.686061193200807  0.5888570341461661  1.0000
  O   O40       1.0  0.813937203114854  0.24499373059951077  0.33885642703246094  1.0000
  O   O41       1.0  0.7818918323950899  0.09977496663289998  0.0845993221427292  1.0000
  O   O42       1.0  0.4002295745441202  0.2818976215437203  0.8345982634060009  1.0000
  O   O43       1.0  0.21810106472209162  0.900235008481154  0.584604535498862  1.0000
  O   O44       1.0  0.5997676160140628  0.7181012985033278  0.3345956733693357  1.0000
  O   O45       1.0  0.28189605412007523  0.400234356849836  0.16540238392905596  1.0000
  O   O46       1.0  0.09976336605791401  0.7819059265603698  0.9153943763327065  1.0000
  O   O47       1.0  0.7181045870810296  0.5997712734362752  0.6653968844716547  1.0000
  O   O48       1.0  0.9002350408797783  0.21810627350259892  0.4153940924555003  1.0000
