data_image0
_chemical_formula_structural       Zn6H42C92O60
_chemical_formula_sum              "Zn6 H42 C92 O60"
_cell_length_a       18.17900432268673
_cell_length_b       18.37462389054556
_cell_length_c       18.708029913698624
_cell_angle_alpha    109.56038986063466
_cell_angle_beta     108.10550577658735
_cell_angle_gamma    107.90634016538975

_space_group_name_H-M_alt    "P 1"
_space_group_IT_number       1

loop_
  _space_group_symop_operation_xyz
  'x, y, z'

loop_
  _atom_site_type_symbol
  _atom_site_label
  _atom_site_symmetry_multiplicity
  _atom_site_fract_x
  _atom_site_fract_y
  _atom_site_fract_z
  _atom_site_occupancy
  Zn  Zn1       1.0  0.4347678030722549  0.4848028243506945  0.437211413059913  1.0000
  Zn  Zn2       1.0  0.5821727287512813  0.49303079429739677  0.5636268584280869  1.0000
  Zn  Zn3       1.0  0.9916559301907314  0.944988211728912  0.43335440799531  1.0000
  Zn  Zn4       1.0  0.9835663971281791  0.06958483729833628  0.5560774124009242  1.0000
  Zn  Zn5       1.0  0.55048376095381  0.061595696498571294  0.9826955388746155  1.0000
  Zn  Zn6       1.0  0.4292371483194444  0.9247332290011981  0.9956966506430902  1.0000
  H   H1        1.0  0.89070997905511  0.7410452165827549  0.5208815794695169  1.0000
  H   H2        1.0  0.605797782970882  0.7320876232346053  0.646143928948547  1.0000
  H   H3        1.0  0.7128248351551035  0.8879002790639774  0.7197995476029176  1.0000
  H   H4        1.0  0.6811416064504243  0.9999994939379275  0.8062641253563853  1.0000
  H   H5        1.0  0.9677990551533214  0.0412549886571725  0.3183533158048346  1.0000
  H   H6        1.0  0.8772603147383863  0.9659306603687413  0.05301056634153413  1.0000
  H   H7        1.0  0.6331630030759356  0.0553758193375558  0.24857871042508609  1.0000
  H   H8        1.0  0.02927697947272638  0.7280239957797151  0.5656860518742378  1.0000
  H   H9        1.0  0.22168271265675094  0.864258352591122  0.8293828887703257  1.0000
  H   H10       1.0  0.7004761574805941  0.7942702169856658  0.5968061574979656  1.0000
  H   H11       1.0  0.806180674780599  0.8970293845389817  0.5914478734939975  1.0000
  H   H12       1.0  0.7756480458596613  0.757894756277686  0.6366024710091479  1.0000
  H   H13       1.0  0.8264689993027261  0.6936977763067914  0.4110220265592943  1.0000
  H   H14       1.0  0.48769074974306664  0.7522882642494225  0.3749090085226144  1.0000
  H   H15       1.0  0.9587823614401287  0.9283285092926262  0.6538196831306918  1.0000
  H   H16       1.0  0.3821149674015416  0.31295661042682343  0.10953229547551759  1.0000
  H   H17       1.0  0.7399208257631075  0.47317636243615613  0.4786789434973997  1.0000
  H   H18       1.0  0.5709651887325221  0.055796532929171916  0.5058495085536805  1.0000
  H   H19       1.0  0.41651122504737265  0.1937524701411277  0.35734284253051374  1.0000
  H   H20       1.0  0.5364525749530459  0.4514246123792631  0.7596061276641419  1.0000
  H   H21       1.0  0.04585927682767724  0.3131742756330949  0.5884800416474361  1.0000
  H   H22       1.0  0.20309615584832136  0.9578044118062509  0.3320168777389085  1.0000
  H   H23       1.0  0.6279391427853654  0.2517527505227903  0.5090071743813309  1.0000
  H   H24       1.0  0.4799334971134001  0.9692372332325758  0.7917458639767645  1.0000
  H   H25       1.0  0.7606197507327082  0.7584753055952261  0.3151923439857143  1.0000
  H   H26       1.0  0.20646208144391667  0.7034872982987539  0.7532432671488608  1.0000
  H   H27       1.0  0.7011881118341634  0.959192665508425  0.37972319657877307  1.0000
  H   H28       1.0  0.06266102120792992  0.025969498527210498  0.26131023863008807  1.0000
  H   H29       1.0  0.8029272401529043  0.0382044609968091  0.0042194804499828325  1.0000
  H   H30       1.0  0.2598399572291257  0.2571082385325028  0.7183649869857546  1.0000
  H   H31       1.0  0.15072460977294358  0.8935994176995549  0.5261091398343538  1.0000
  H   H32       1.0  0.6998875001014468  0.9516440227019344  0.4806871517875422  1.0000
  H   H33       1.0  0.0004235436487861587  0.6730079376470927  0.6684361611692965  1.0000
  H   H34       1.0  0.48497894163969596  0.0472731359094425  0.24944639190055531  1.0000
  H   H35       1.0  0.482093367399827  0.28032991733756063  0.9188130286910051  1.0000
  H   H36       1.0  0.8418307349376094  0.6934278415578633  0.6084533188096443  1.0000
  H   H37       1.0  0.5859201561958614  0.47845908230370066  0.2986606823028595  1.0000
  H   H38       1.0  0.42617194183768004  0.19232913730538573  0.08336829271318891  1.0000
  H   H39       1.0  0.6083666765532456  0.6473272691110664  0.3664586944301789  1.0000
  H   H40       1.0  0.31221717649798114  0.5024330175135248  0.7178602598107844  1.0000
  H   H41       1.0  0.1543986900560412  0.417057556795342  0.6243603079495087  1.0000
  H   H42       1.0  0.32940590706035516  0.5741204552705595  0.623638146776436  1.0000
  C   C1        1.0  0.4813111246457566  0.38255807620560484  0.353553016662957  1.0000
  C   C2        1.0  0.5251778832735781  0.26218896480418863  0.3271488674750103  1.0000
  C   C3        1.0  0.4922837267038247  0.31278957692065745  0.29568720936624254  1.0000
  C   C4        1.0  0.6249536524277559  0.6163338752717634  0.5060226687865848  1.0000
  C   C5        1.0  0.4568133594297593  0.2869009004426958  0.20822855957458591  1.0000
  C   C6        1.0  0.4473686069761271  0.20838772833217686  0.15028513383510503  1.0000
  C   C7        1.0  0.46626135122654233  0.15242347202505607  0.1780718516233577  1.0000
  C   C8        1.0  0.3417931625747316  0.4083707575458888  0.6438529780988062  1.0000
  C   C9        1.0  0.2864329701106243  0.438189022079122  0.6646736875584692  1.0000
  C   C10       1.0  0.1957792688529949  0.38643857206290727  0.6146554664637945  1.0000
  C   C11       1.0  0.16045486448827262  0.30023269029561556  0.554178062481057  1.0000
  C   C12       1.0  0.810246508377233  0.8017348906368936  0.4891232504356821  1.0000
  C   C13       1.0  0.217551905743349  0.26424617754788926  0.5392527872204764  1.0000
  C   C14       1.0  0.3066942997747404  0.3240303423202917  0.5733070533887883  1.0000
  C   C15       1.0  0.354819576495359  0.29847475977074817  0.5307626802424891  1.0000
  C   C16       1.0  0.46452250122143834  0.5976749659790457  0.5888165688103156  1.0000
  C   C17       1.0  0.3255564106930252  0.21093781453688357  0.4792054094411639  1.0000
  C   C18       1.0  0.2486036032014667  0.14752528673503917  0.46876910704509095  1.0000
  C   C19       1.0  0.1918645186824008  0.17315576042489056  0.4925997011036287  1.0000
  C   C20       1.0  0.5960346841400865  0.7811504421986655  0.6886049232557453  1.0000
  C   C21       1.0  0.6549216343212905  0.867695401136693  0.7289019335474122  1.0000
  C   C22       1.0  0.6382545040216386  0.9309397627994328  0.7787530584176777  1.0000
  C   C23       1.0  0.8155652092824611  0.8385940083767663  0.5798640365413662  1.0000
  C   C24       1.0  0.5656582704232349  0.9073450262825061  0.7920059422685596  1.0000
  C   C25       1.0  0.5072473168777947  0.8173879230530189  0.7578658067349408  1.0000
  C   C26       1.0  0.5206804207039469  0.7539319316309728  0.7004406167307734  1.0000
  C   C27       1.0  0.45575546391664556  0.6653296307892447  0.6534849243850899  1.0000
  C   C28       1.0  0.4224983658549135  0.36948525619402517  0.5277378449244593  1.0000
  C   C29       1.0  0.38135724424047623  0.6406574103931747  0.6636409755963938  1.0000
  C   C30       1.0  0.37337291296086056  0.6998920917505913  0.7278258171916931  1.0000
  C   C31       1.0  0.4375972199449478  0.7865223579165812  0.7782025403707634  1.0000
  C   C32       1.0  0.8779755105980342  0.037696424167755496  0.4012271157739703  1.0000
  C   C33       1.0  0.8769044895261544  0.8716021542776317  0.4827072426107151  1.0000
  C   C34       1.0  0.8254369840850587  0.7214063561564928  0.47228079965751846  1.0000
  C   C35       1.0  0.1068826449004305  0.0308502000866753  0.6326910281503115  1.0000
  C   C36       1.0  0.11175932497993558  0.10593724160995778  0.48120064637957677  1.0000
  C   C37       1.0  0.6266519479455468  0.0102168726842464  0.09911460816729085  1.0000
  C   C38       1.0  0.46358703679000973  0.0757394281325858  0.11286028536020612  1.0000
  C   C39       1.0  0.36959016511139  0.016595700729268994  0.894229198147073  1.0000
  C   C40       1.0  0.6458998100194934  0.7066971865563689  0.42885121185838676  1.0000
  C   C41       1.0  0.4402881064075431  0.843549460690916  0.8579937570127212  1.0000
  C   C42       1.0  0.9164091703179054  0.02505195233487  0.2582981401275929  1.0000
  C   C43       1.0  0.9312915040476427  0.006664168809130899  0.1878996489126123  1.0000
  C   C44       1.0  0.8657073723818559  0.985407751766637  0.10875725018954807  1.0000
  C   C45       1.0  0.5796725027540006  0.29014800300500804  0.41571326603567355  1.0000
  C   C46       1.0  0.7882624255352226  0.9865779066459408  0.10177473958461289  1.0000
  C   C47       1.0  0.7731607441815315  0.010760137242954196  0.17544923649241176  1.0000
  C   C48       1.0  0.8372559312148127  0.025546211364023505  0.2541363040111478  1.0000
  C   C49       1.0  0.8219481354111338  0.04324018058861159  0.3275557342121331  1.0000
  C   C50       1.0  0.7504181272271212  0.0567018071646288  0.32554462827956593  1.0000
  C   C51       1.0  0.6899001949998436  0.046314185113338596  0.24948550000848974  1.0000
  C   C52       1.0  0.7156783804822312  0.7705562938062726  0.4173899529106393  1.0000
  C   C53       1.0  0.6987107037085208  0.021476126086597002  0.17533927990850623  1.0000
  C   C54       1.0  0.10796542699401361  0.8631428749831188  0.6148762623824594  1.0000
  C   C55       1.0  0.07662275802377394  0.7897078530735868  0.6235206727192376  1.0000
  C   C56       1.0  0.5871051108651673  0.22993096857732098  0.4419778361843569  1.0000
  C   C57       1.0  0.11243094293372734  0.7920201047433153  0.7035505054860636  1.0000
  C   C58       1.0  0.1878949595159654  0.864998315157834  0.7706454303522462  1.0000
  C   C59       1.0  0.21881661765220173  0.9434338653077247  0.7657815782916372  1.0000
  C   C60       1.0  0.16850041374406996  0.9452974166553361  0.6905863883038776  1.0000
  C   C61       1.0  0.1782372027976251  0.0276867802673451  0.6969611009748318  1.0000
  C   C62       1.0  0.2474236606960787  0.10397961016273881  0.7676454259877161  1.0000
  C   C63       1.0  0.31034464352580937  0.10000952438673488  0.8318931644987655  1.0000
  C   C64       1.0  0.7455047674120507  0.7700857828025177  0.5841783559413258  1.0000
  C   C65       1.0  0.29666291875081197  0.021332703868438295  0.8320860748212482  1.0000
  C   C66       1.0  0.752961493144582  0.6491773449427141  0.47357090987695455  1.0000
  C   C67       1.0  0.5464400362709299  0.14033794112042838  0.38185294269733555  1.0000
  C   C68       1.0  0.6910240820392133  0.685353076451193  0.4979721095583046  1.0000
  C   C69       1.0  0.5792183419885505  0.7369403840436775  0.4404977015810659  1.0000
  C   C70       1.0  0.9074932262884657  0.8713921898935197  0.6481320628434658  1.0000
  C   C71       1.0  0.4404790242793196  0.3444867875130909  0.17219740854555704  1.0000
  C   C72       1.0  0.645790696690135  0.38344146448425687  0.476558561919795  1.0000
  C   C73       1.0  0.5448158718659785  0.07252668199470948  0.40887680276132693  1.0000
  C   C74       1.0  0.3731550822293883  0.17925613847511096  0.43416160682247806  1.0000
  C   C75       1.0  0.43672493592026035  0.4626562622667477  0.7057541910772257  1.0000
  C   C76       1.0  0.064517873189061  0.2518790160360709  0.49506260380139366  1.0000
  C   C77       1.0  0.23223219918740776  0.05398188798272939  0.4339659245636369  1.0000
  C   C78       1.0  0.5101174772672579  0.11499600917284879  0.29557880048263024  1.0000
  C   C79       1.0  0.5447434756445519  0.977719996010336  0.8314686675374504  1.0000
  C   C80       1.0  0.7092832635093202  0.7215404024650879  0.3271608612523663  1.0000
  C   C81       1.0  0.2918811576661541  0.6675246111551586  0.7365471618275734  1.0000
  C   C82       1.0  0.7312362077289691  0.0796574481326502  0.40052889144205744  1.0000
  C   C83       1.0  0.0153335718641827  0.0079100136803234  0.19589024701849667  1.0000
  C   C84       1.0  0.7198019742960895  0.9513912196892987  0.012405214041685104  1.0000
  C   C85       1.0  0.25754390292090795  0.19164484328481277  0.7779286503555622  1.0000
  C   C86       1.0  0.09455404146554261  0.8484729273461297  0.5271858759402052  1.0000
  C   C87       1.0  0.7041852153803989  0.8488733726977031  0.41629770907152874  1.0000
  C   C88       1.0  0.07182905837513684  0.7138203977708243  0.7111339650053379  1.0000
  C   C89       1.0  0.5002786693892958  0.17514970462568868  0.26629122095790336  1.0000
  C   C90       1.0  0.3888855725012946  0.18378456046331593  0.9020162197615491  1.0000
  C   C91       1.0  0.8043296092759888  0.6347829691626145  0.5448942649260713  1.0000
  C   C92       1.0  0.7066127485941536  0.5663415034415279  0.3857552408868584  1.0000
  O   O1        1.0  0.4189206667442775  0.40025411321817467  0.32485131758547675  1.0000
  O   O2        1.0  0.5510904901488232  0.9540729615442556  0.07596970414756032  1.0000
  O   O3        1.0  0.5108383952288309  0.09783683628337769  0.07876974992083771  1.0000
  O   O4        1.0  0.5317041009480405  0.4181396736990877  0.43275940352337017  1.0000
  O   O5        1.0  0.41722396415166685  0.9977601807152965  0.09493550553350638  1.0000
  O   O6        1.0  0.4458090183940727  0.06692065837441422  0.9099968814034084  1.0000
  O   O7        1.0  0.350684964952741  0.9626195614956004  0.9215171561723139  1.0000
  O   O8        1.0  0.4871157057043547  0.9256133207581242  0.8904949308418322  1.0000
  O   O9        1.0  0.4018433525835264  0.8146531955115391  0.8965663682365062  1.0000
  O   O10       1.0  0.5448090260454636  0.5890061348989092  0.46226890317669955  1.0000
  O   O11       1.0  0.6603418358957711  0.5930569869016864  0.5597273994092119  1.0000
  O   O12       1.0  0.8978185597208539  0.08862620034258128  0.4783247564380488  1.0000
  O   O13       1.0  0.40547048817590076  0.5625760208234141  0.5110224547222018  1.0000
  O   O14       1.0  0.5265749913655142  0.5798693246380466  0.6135647885077801  1.0000
  O   O15       1.0  0.38717646007591366  0.3919922132510578  0.47515955637452834  1.0000
  O   O16       1.0  0.503772368017465  0.4003873389735303  0.5754652795763774  1.0000
  O   O17       1.0  0.9004194576952713  0.9776228400207428  0.38118061955042737  1.0000
  O   O18       1.0  0.5702444505377073  0.7648291749764482  0.5043933105984806  1.0000
  O   O19       1.0  0.5281574409831508  0.7300322968513343  0.36506325886879404  1.0000
  O   O20       1.0  0.9266005744762253  0.840624920093134  0.6955500280888387  1.0000
  O   O21       1.0  0.49227605016322695  0.4215633652717301  0.20443892347073242  1.0000
  O   O22       1.0  0.662597537029079  0.4257227755653474  0.5524128289056449  1.0000
  O   O23       1.0  0.9051427272395144  0.8461019264248434  0.42940671257961327  1.0000
  O   O24       1.0  0.6919856777321415  0.4110921681352764  0.44023938446554917  1.0000
  O   O25       1.0  0.5168593217044447  0.9956510181628743  0.3597408128664839  1.0000
  O   O26       1.0  0.5764703448784516  0.10511703006426387  0.494761401737307  1.0000
  O   O27       1.0  0.3974213011682295  0.12582797382941638  0.44068443922871126  1.0000
  O   O28       1.0  0.3836136526530609  0.2156704863948491  0.383875031386971  1.0000
  O   O29       1.0  0.4744455941642088  0.5418311721617074  0.7441280400851155  1.0000
  O   O30       1.0  0.4745403946362856  0.41202680443148404  0.720123579261852  1.0000
  O   O31       1.0  0.03292864981622759  0.19968988509030788  0.4197232378122848  1.0000
  O   O32       1.0  0.012087478400921725  0.2729164248189946  0.5271800604693766  1.0000
  O   O33       1.0  0.24446431121719311  0.0192319505520686  0.4785359877158512  1.0000
  O   O34       1.0  0.8974517397201537  0.9500798774793536  0.5303546294715886  1.0000
  O   O35       1.0  0.20592390397398222  0.0155933688876289  0.3487237278398893  1.0000
  O   O36       1.0  0.601017860896235  0.051413894578317396  0.8942951599733532  1.0000
  O   O37       1.0  0.6524151226122257  0.6485746873198933  0.2743377965044118  1.0000
  O   O38       1.0  0.25951803459197714  0.5978804069256896  0.7357215758099186  1.0000
  O   O39       1.0  0.25592502706058434  0.7215369965237456  0.7395037147330682  1.0000
  O   O40       1.0  0.734080412885497  0.14941720610180909  0.43819255376790517  1.0000
  O   O41       1.0  0.7047422758473944  0.014481071698313001  0.4198974599571486  1.0000
  O   O42       1.0  0.033366724625452  0.9905116024535514  0.13634725949868443  1.0000
  O   O43       1.0  0.6473451161236952  0.8912451676474472  0.9794561793772016  1.0000
  O   O44       1.0  0.7466614869531301  0.9864501192992635  0.9658907431583685  1.0000
  O   O45       1.0  0.07978082009838518  0.9798902974645073  0.5545850733670079  1.0000
  O   O46       1.0  0.2687892478669838  0.24924055506685505  0.8427141399566125  1.0000
  O   O47       1.0  0.25483652334830253  0.19935596144588885  0.7077615066134726  1.0000
  O   O48       1.0  0.03266937553760127  0.7859218733463321  0.4611827294661594  1.0000
  O   O49       1.0  0.700549155826309  0.8642592460215043  0.35619702707786155  1.0000
  O   O50       1.0  0.7019203479924342  0.8998475665535676  0.48522105079695166  1.0000
  O   O51       1.0  0.11104711837931801  0.6916531071398354  0.7595524058586846  1.0000
  O   O52       1.0  0.4064014945996064  0.214111389677285  0.9773852259038162  1.0000
  O   O53       1.0  0.4353487602791618  0.2241755285652545  0.870507027164919  1.0000
  O   O54       1.0  0.8146771040791593  0.570067376062177  0.5365482339714519  1.0000
  O   O55       1.0  0.7450780300967851  0.5458051171325949  0.3459583563451645  1.0000
  O   O56       1.0  0.07472128622472243  0.0808091580588197  0.6597561354392808  1.0000
  O   O57       1.0  0.6218854270531864  0.5230603781162557  0.3609768631167611  1.0000
  O   O58       1.0  0.080092025968014  0.027313503381144202  0.4222438121523239  1.0000
  O   O59       1.0  0.08206511078259382  0.12941083773742432  0.5332551109309306  1.0000
  O   O60       1.0  0.6474697716001926  0.061666700960543594  0.06850008970162236  1.0000
