data_image0
_chemical_formula_structural       Ag2H44C36N6O18
_chemical_formula_sum              "Ag2 H44 C36 N6 O18"
_cell_length_a       7.9845375926934
_cell_length_b       8.718374958806358
_cell_length_c       15.253217498595056
_cell_angle_alpha    89.17879222215645
_cell_angle_beta     79.35467129606549
_cell_angle_gamma    76.59181006679852

_space_group_name_H-M_alt    "P 1"
_space_group_IT_number       1

loop_
  _space_group_symop_operation_xyz
  'x, y, z'

loop_
  _atom_site_type_symbol
  _atom_site_label
  _atom_site_symmetry_multiplicity
  _atom_site_fract_x
  _atom_site_fract_y
  _atom_site_fract_z
  _atom_site_occupancy
  Ag  Ag1       1.0  0.7235818528158902  0.07816933817770892  0.0672836579987077  1.0000
  Ag  Ag2       1.0  0.27641335364447867  0.9218314134738181  0.9327172048464689  1.0000
  H   H1        1.0  0.463466854285663  0.246094580243664  0.954755933323021  1.0000
  H   H2        1.0  0.5365337626031348  0.753904970167291  0.04524377639479131  1.0000
  H   H3        1.0  0.9557890341110992  0.3012993672644201  0.9794275229808846  1.0000
  H   H4        1.0  0.044210269788422414  0.6986954425725642  0.020569740514709202  1.0000
  H   H5        1.0  0.9315423963082947  0.5333445562825219  0.8817079048504155  1.0000
  H   H6        1.0  0.06846200105906056  0.46665024653854914  0.1182895335013185  1.0000
  H   H7        1.0  0.6543133917302909  0.6286886245020044  0.8201106290340903  1.0000
  H   H8        1.0  0.3456900850643835  0.37130973182263466  0.1798881682549407  1.0000
  H   H9        1.0  0.12293987979594326  0.7294252187920521  0.8039010295528328  1.0000
  H   H10       1.0  0.8770594845634109  0.27057431331821397  0.19609683175436024  1.0000
  H   H11       1.0  0.1549459747781369  0.5515428118521585  0.7398135332863162  1.0000
  H   H12       1.0  0.8450546496879454  0.44845673126619096  0.2601855201781973  1.0000
  H   H13       1.0  0.120263785712666  0.7982059137044074  0.6509864863556344  1.0000
  H   H14       1.0  0.8797355786466953  0.2017936184058514  0.3490113749515587  1.0000
  H   H15       1.0  0.31845930067891687  0.8302135516951527  0.6781054831830531  1.0000
  H   H16       1.0  0.6815407201750789  0.16978835070209194  0.32189360123525296  1.0000
  H   H17       1.0  0.45798080220740905  0.625896722885237  0.46490975078771163  1.0000
  H   H18       1.0  0.5420195204526337  0.37410399987255977  0.5350893181537018  1.0000
  H   H19       1.0  0.4480386488600772  0.8065960657908776  0.5228636652228431  1.0000
  H   H20       1.0  0.5519626396779101  0.19340584032185154  0.4771359550994774  1.0000
  H   H21       1.0  0.25292119824041487  0.7678450278512727  0.4948617229364132  1.0000
  H   H22       1.0  0.7470788150363035  0.23215688183858427  0.5051380177351987  1.0000
  H   H23       1.0  0.9823770759028534  0.9207860204834688  0.18788227966373944  1.0000
  H   H24       1.0  0.017620092622543382  0.07921706870748581  0.8121170609300421  1.0000
  H   H25       1.0  0.44675841291179785  0.9743210999348977  0.20444282700975694  1.0000
  H   H26       1.0  0.5532402419119791  0.025676112936629605  0.7955584049594505  1.0000
  H   H27       1.0  0.42925720633189707  0.7902741402634706  0.32967718376851  1.0000
  H   H28       1.0  0.5707452666984312  0.20972306916927153  0.6703243434061363  1.0000
  H   H29       1.0  0.7097741372750973  0.6596742830387045  0.3844913313416712  1.0000
  H   H30       1.0  0.29022872075293543  0.34032644715004784  0.6155088094077641  1.0000
  H   H31       1.0  0.3138284620733883  0.5306197956454639  0.3412004244509177  1.0000
  H   H32       1.0  0.6861714755889422  0.46937740635632264  0.6588000309156925  1.0000
  H   H33       1.0  0.1846824724068696  0.5371170384820018  0.4512587879156483  1.0000
  H   H34       1.0  0.8153162656085723  0.4628848747849761  0.5487410731052478  1.0000
  H   H35       1.0  0.20544440592047417  0.276714880948404  0.3144925063810859  1.0000
  H   H36       1.0  0.794550483579293  0.7232870649277816  0.6855096844475952  1.0000
  H   H37       1.0  0.37107145846712813  0.26783167686217274  0.3794417846548653  1.0000
  H   H38       1.0  0.6289256192893261  0.7321667192259298  0.6205595831405333  1.0000
  H   H39       1.0  0.09632505755138958  0.06765599349903792  0.520153604958729  1.0000
  H   H40       1.0  0.9036714090157004  0.9323447691605721  0.47984845004376814  1.0000
  H   H41       1.0  0.314669865380317  0.05942222914878671  0.4616513630822965  1.0000
  H   H42       1.0  0.6853259219603062  0.9405761851016551  0.5383514375689984  1.0000
  H   H43       1.0  0.14972390534010324  0.0375748362971109  0.4008108843883774  1.0000
  H   H44       1.0  0.8502712708111562  0.9624259445248389  0.5991926034700157  1.0000
  C   C1        1.0  0.5648962459284447  0.3117333907239513  0.9362121007508506  1.0000
  C   C2        1.0  0.4351030956990768  0.6882661632641319  0.06378772931625319  1.0000
  C   C3        1.0  0.8394694569604084  0.3438524950583783  0.9500937791964432  1.0000
  C   C4        1.0  0.16053549855536875  0.6561399922394318  0.049907565721326805  1.0000
  C   C5        1.0  0.8242841353569689  0.47374715241166143  0.8953369863468694  1.0000
  C   C6        1.0  0.17571931128698987  0.5262464524692732  0.10465858811735268  1.0000
  C   C7        1.0  0.6723097882348269  0.5240448561089227  0.8603640350480716  1.0000
  C   C8        1.0  0.32769492593474325  0.4759535331016167  0.1396379231581903  1.0000
  C   C9        1.0  0.5407948918808998  0.440028908654604  0.8802094619125923  1.0000
  C   C10       1.0  0.45920640423437203  0.5599729901655125  0.1197895021564221  1.0000
  C   C11       1.0  0.37192521049111343  0.48546250385415135  0.847995766065118  1.0000
  C   C12       1.0  0.6280760327416034  0.5145346654000846  0.15200194393899116  1.0000
  C   C13       1.0  0.2129027940916615  0.6499931011845845  0.7515156841924266  1.0000
  C   C14       1.0  0.7870978227971361  0.35000644922636326  0.2484840255253928  1.0000
  C   C15       1.0  0.24802652973333755  0.7386704511906145  0.6677022386114473  1.0000
  C   C16       1.0  0.7519728194714616  0.2613290955048627  0.3322969352023577  1.0000
  C   C17       1.0  0.3778422386463162  0.7132263472486501  0.5158589527528433  1.0000
  C   C18       1.0  0.6221593592749955  0.2867743719320189  0.48413999583927136  1.0000
  C   C19       1.0  0.8633160474684441  0.8867265941944498  0.2201392797839503  1.0000
  C   C20       1.0  0.1366839582309964  0.11327532278801301  0.7798611171409675  1.0000
  C   C21       1.0  0.5640354750463743  0.9161505331354507  0.22977791386770718  1.0000
  C   C22       1.0  0.4359651266878685  0.0838490318607086  0.770223108356717  1.0000
  C   C23       1.0  0.5556171505417139  0.8142841322543717  0.3007934269315555  1.0000
  C   C24       1.0  0.444381889279768  0.18571660137315865  0.699206418612448  1.0000
  C   C25       1.0  0.7090798612779495  0.7433060120976976  0.3307329963044623  1.0000
  C   C26       1.0  0.29092329097885283  0.2566935457442128  0.669267785221386  1.0000
  C   C27       1.0  0.8654283476281321  0.7817723198233895  0.2902517743640658  1.0000
  C   C28       1.0  0.13457481220594758  0.21822723072591543  0.7097483509084768  1.0000
  C   C29       1.0  0.034021932936255404  0.7153531629593886  0.3200016418430636  1.0000
  C   C30       1.0  0.965966187840536  0.28464050672491237  0.6799973455725521  1.0000
  C   C31       1.0  0.20221980389478483  0.4942966589286471  0.3820650512666504  1.0000
  C   C32       1.0  0.7977782473169057  0.5057029132217752  0.6179362116563495  1.0000
  C   C33       1.0  0.2312447932705909  0.31790435588968785  0.3776559955208612  1.0000
  C   C34       1.0  0.7687522769085859  0.6820940474910133  0.6223460285278364  1.0000
  C   C35       1.0  0.17389776304312932  0.09898097239455692  0.4584245650277694  1.0000
  C   C36       1.0  0.8260977300687316  0.9010186142027339  0.5415775948471193  1.0000
  N   N1        1.0  0.711029605578794  0.26503098580581513  0.9710680562067608  1.0000
  N   N2        1.0  0.28896683083758024  0.734965025410091  0.028930775970920312  1.0000
  N   N3        1.0  0.7160070050345198  0.9501839098934112  0.1891228477839491  1.0000
  N   N4        1.0  0.2839907443711239  0.0498168418964582  0.8108784306159507  1.0000
  N   N5        1.0  0.7963832522793908  0.8829809901416326  0.8877258759185054  1.0000
  N   N6        1.0  0.20361585557920137  0.11702445846656673  0.1122739111837987  1.0000
  O   O1        1.0  0.24232555793837213  0.4352960280460039  0.8784390077212548  1.0000
  O   O2        1.0  0.7576744553383462  0.564705881643846  0.12156073295035703  1.0000
  O   O3        1.0  0.37804579103183056  0.5891883636176589  0.7815299590742767  1.0000
  O   O4        1.0  0.6219523357942478  0.4108159162208267  0.2184705891537178  1.0000
  O   O5        1.0  0.34915150120022537  0.632268981017404  0.596786887019249  1.0000
  O   O6        1.0  0.6508503909498559  0.36773056581642294  0.403212702349272  1.0000
  O   O7        1.0  0.14959809375093153  0.787590144993409  0.3179118379286833  1.0000
  O   O8        1.0  0.8504166190490279  0.21241408104980053  0.682086489505231  1.0000
  O   O9        1.0  0.043648719957992854  0.5671664688878979  0.3486131549653138  1.0000
  O   O10       1.0  0.9563512933187254  0.4328354408019522  0.6513865857062909  1.0000
  O   O11       1.0  0.12472543669942836  0.265821675070157  0.45263860314768317  1.0000
  O   O12       1.0  0.8752722975516606  0.7341790913049236  0.5473639877588212  1.0000
  O   O13       1.0  0.8184473928155711  0.857536974196677  0.8044768421099419  1.0000
  O   O14       1.0  0.18155748773732225  0.14247081580478496  0.19552237419969737  1.0000
  O   O15       1.0  0.6437286993551581  0.9098890448131342  0.9353769381013208  1.0000
  O   O16       1.0  0.3562713214988378  0.09011285758411704  0.0646221463169852  1.0000
  O   O17       1.0  0.9272162454528541  0.8844072727328367  0.9244924432169838  1.0000
  O   O18       1.0  0.07278412251245919  0.11559818688344593  0.07550853604262642  1.0000
