data_image0
_chemical_formula_structural       Cu4H40C64N16O16
_chemical_formula_sum              "Cu4 H40 C64 N16 O16"
_cell_length_a       13.295525631263418
_cell_length_b       13.970351321704955
_cell_length_c       14.893793840757757
_cell_angle_alpha    92.78152988193686
_cell_angle_beta     89.99942386422657
_cell_angle_gamma    90.00045908801916

_space_group_name_H-M_alt    "P 1"
_space_group_IT_number       1

loop_
  _space_group_symop_operation_xyz
  'x, y, z'

loop_
  _atom_site_type_symbol
  _atom_site_label
  _atom_site_symmetry_multiplicity
  _atom_site_fract_x
  _atom_site_fract_y
  _atom_site_fract_z
  _atom_site_occupancy
  Cu  Cu1       1.0  5.584975330000045e-08  0.5000002052365957  0.4999994591674194  1.0000
  Cu  Cu2       1.0  0.4999981355722626  0.5000000148036392  6.378727733085811e-07  1.0000
  Cu  Cu3       1.0  3.008525268900003e-06  0.9999985667257436  0.9999999305937946  1.0000
  Cu  Cu4       1.0  0.49999999247367555  1.6733896760022923e-07  0.5000010170839531  1.0000
  H   H1        1.0  0.7041250047855244  0.69492050052942  0.8972162669512684  1.0000
  H   H2        1.0  0.2041274807514881  0.305082975258081  0.6027812931359262  1.0000
  H   H3        1.0  0.2958716748400009  0.3050777391323933  0.1027840717731578  1.0000
  H   H4        1.0  0.7958729595574782  0.6949202809148216  0.39721928844814863  1.0000
  H   H5        1.0  0.6957760772404313  0.9233860230877087  0.7119727149281302  1.0000
  H   H6        1.0  0.19577078818897323  0.07661809398921797  0.7880296516389931  1.0000
  H   H7        1.0  0.304224363048732  0.0766150765109899  0.288029776515863  1.0000
  H   H8        1.0  0.8042273957293701  0.9233823066832939  0.21196743458589398  1.0000
  H   H9        1.0  0.44039676309947856  0.7369858602790414  0.735686503199048  1.0000
  H   H10       1.0  0.9403928882734719  0.2630207260455463  0.7643137728421078  1.0000
  H   H11       1.0  0.5596021729506261  0.2630181147465365  0.26431344177158417  1.0000
  H   H12       1.0  0.05960679990466391  0.7369811012707287  0.23568539671901326  1.0000
  H   H13       1.0  0.7021736233888306  0.9188638902219709  0.9936946736404761  1.0000
  H   H14       1.0  0.20217078043079786  0.08113310848972329  0.506306619053177  1.0000
  H   H15       1.0  0.2978283211827844  0.0811357893903946  0.006303720504590197  1.0000
  H   H16       1.0  0.7978281555976211  0.918867278892172  0.4936944950677002  1.0000
  H   H17       1.0  0.7022838155842948  0.0034810108656274  0.9082163783830308  1.0000
  H   H18       1.0  0.20228096312074237  0.9965167008469249  0.5917862906829894  1.0000
  H   H19       1.0  0.2977181289741183  0.9965172310306019  0.09178328900198808  1.0000
  H   H20       1.0  0.7977179729152298  0.0034836909660712007  0.4082134808048038  1.0000
  H   H21       1.0  0.7872709397160235  0.0179353870449503  0.0006412093050159001  1.0000
  H   H22       1.0  0.28726941060539696  0.9820647212992384  0.4993623297397177  1.0000
  H   H23       1.0  0.2127295005863559  0.9820642903464714  0.9993578561631293  1.0000
  H   H24       1.0  0.7127287732987784  0.017937816007510304  0.5006388884741355  1.0000
  H   H25       1.0  0.7792766109480523  0.74339484910314  0.6640260197814882  1.0000
  H   H26       1.0  0.2792738060284777  0.25660557523454497  0.8359727278930575  1.0000
  H   H27       1.0  0.22072608576289812  0.2566055493699793  0.33597173774034417  1.0000
  H   H28       1.0  0.720726634263528  0.7433933810832584  0.16402764551160226  1.0000
  H   H29       1.0  0.8308843701315496  0.6241187340308728  0.5437228638763401  1.0000
  H   H30       1.0  0.33088197359467125  0.37587775133795986  0.9562779125251311  1.0000
  H   H31       1.0  0.16911832658317394  0.3758816666578042  0.4562742223289503  1.0000
  H   H32       1.0  0.6691169624290437  0.6241204883319327  0.0437224261894968  1.0000
  H   H33       1.0  0.10654885663814183  0.580034572223454  0.6632631755915808  1.0000
  H   H34       1.0  0.6065500055810491  0.41996245360437706  0.8367403251835482  1.0000
  H   H35       1.0  0.8934500793742685  0.4199608008763748  0.3367370243367702  1.0000
  H   H36       1.0  0.3934496825716066  0.5800386437760707  0.1632628375802554  1.0000
  H   H37       1.0  0.06916315648117431  0.7015283172814647  0.7885817428435331  1.0000
  H   H38       1.0  0.5691631824703123  0.2984720349805201  0.7114188996362143  1.0000
  H   H39       1.0  0.9308357795180343  0.2984656181022273  0.21141973032477065  1.0000
  H   H40       1.0  0.4308380099497029  0.7015276335513931  0.28858285109483006  1.0000
  C   C1        1.0  0.5146716715464662  0.6288441069334709  0.8696459917231039  1.0000
  C   C2        1.0  0.014676651803647201  0.37116087808291104  0.6303533530727775  1.0000
  C   C3        1.0  0.48532425596234674  0.3711591470077096  0.13035526119711696  1.0000
  C   C4        1.0  0.9853245406427716  0.628841665881275  0.3696458511783759  1.0000
  C   C5        1.0  0.5665874825955087  0.7078240346832557  0.8217800438809346  1.0000
  C   C6        1.0  0.06658825143802008  0.29217917234453944  0.6782187458091824  1.0000
  C   C7        1.0  0.4334122055741432  0.2921756427054731  0.1782190215904791  1.0000
  C   C8        1.0  0.9334129410017981  0.7078226527615784  0.3217810950619437  1.0000
  C   C9        1.0  0.6643662129248753  0.7346707475201766  0.8471203987178058  1.0000
  C   C10       1.0  0.16436553536671997  0.26533243453948785  0.6528801920658152  1.0000
  C   C11       1.0  0.33563347523534753  0.2653274943679662  0.15287926867701165  1.0000
  C   C12       1.0  0.83563565706838  0.7346701027780397  0.347121026134964  1.0000
  C   C13       1.0  0.7092119216469756  0.8124874635036576  0.8081254163573559  1.0000
  C   C14       1.0  0.20921165479180104  0.18751460878785758  0.6918740441041037  1.0000
  C   C15       1.0  0.2907892707890838  0.18751149946349696  0.19187294309440964  1.0000
  C   C16       1.0  0.7907895376423684  0.8124857830332245  0.3081257273738841  1.0000
  C   C17       1.0  0.6600922163530498  0.8629003404486824  0.7427707240297038  1.0000
  C   C18       1.0  0.1600862785445258  0.1371042531180606  0.7572272880353808  1.0000
  C   C19       1.0  0.33990897607356624  0.137100046941292  0.2572303900813678  1.0000
  C   C20       1.0  0.8399119053690924  0.8628968597658611  0.24277117551915947  1.0000
  C   C21       1.0  0.5636838764666692  0.8339499963646444  0.7150275453595254  1.0000
  C   C22       1.0  0.06367711943439501  0.16605462533370025  0.7849706676658386  1.0000
  C   C23       1.0  0.43631656383193734  0.16604967881122687  0.2849721914251688  1.0000
  C   C24       1.0  0.9363210644754504  0.8339464853346712  0.21502846720524357  1.0000
  C   C25       1.0  0.5165163307377015  0.7576278144122381  0.7557284708705223  1.0000
  C   C26       1.0  0.0165166908427423  0.24237359837563585  0.744271355753092  1.0000
  C   C27       1.0  0.4834811010422372  0.24237401289595786  0.2442706987003973  1.0000
  C   C28       1.0  0.9834837494690731  0.7576275145163719  0.2557271077916496  1.0000
  C   C29       1.0  0.5129208166370418  0.8843696945099778  0.6397858036974924  1.0000
  C   C30       1.0  0.0129180553920563  0.1156345635075908  0.8602128503299864  1.0000
  C   C31       1.0  0.48708037580465197  0.11563356166561789  0.3602147778833141  1.0000
  C   C32       1.0  0.9870808806552347  0.8843658349520637  0.13978490720817396  1.0000
  C   C33       1.0  0.7504210969821942  0.9654888065350987  0.9546935002820759  1.0000
  C   C34       1.0  0.25042043192919294  0.034509964494787895  0.5453094565803196  1.0000
  C   C35       1.0  0.24957934331830237  0.03450943978684509  0.0453048244763892  1.0000
  C   C36       1.0  0.7495807605040243  0.9654911417532543  0.4546910209107863  1.0000
  C   C37       1.0  0.8275704008147001  0.9084711306938543  0.9045039090033951  1.0000
  C   C38       1.0  0.3275673971718546  0.0915296307847697  0.5954971043712334  1.0000
  C   C39       1.0  0.17243154375032083  0.09152783006044271  0.09549512176165109  1.0000
  C   C40       1.0  0.6724330431210819  0.908471471029479  0.4045047157562179  1.0000
  C   C41       1.0  0.9009305199379367  0.8054165629076165  0.8090122578953183  1.0000
  C   C42       1.0  0.40092731412350696  0.19458544523702412  0.6909868102053947  1.0000
  C   C43       1.0  0.09906992035596571  0.19458096455625912  0.19098670348312646  1.0000
  C   C44       1.0  0.5990723740423647  0.8054142299361472  0.309012926582561  1.0000
  C   C45       1.0  0.9208109898707945  0.7330740001996362  0.7372312405154277  1.0000
  C   C46       1.0  0.4208090931282058  0.2669267148839651  0.7627682567853853  1.0000
  C   C47       1.0  0.07918945041650723  0.2669228084061643  0.2627683574829831  1.0000
  C   C48       1.0  0.579190595027292  0.7330722392155878  0.23723278793908517  1.0000
  C   C49       1.0  0.8528019372509591  0.709740050448346  0.667420539841636  1.0000
  C   C50       1.0  0.3527987020475862  0.290260894017905  0.8325795830108331  1.0000
  C   C51       1.0  0.14720000730463306  0.29025747480535796  0.3325790928468138  1.0000
  C   C52       1.0  0.6472009861107395  0.7097387767241726  0.16742149641020626  1.0000
  C   C53       1.0  0.8806181592870246  0.6429899158272719  0.5999038753410841  1.0000
  C   C54       1.0  0.38061698595510046  0.3570076402937303  0.9000971749908044  1.0000
  C   C55       1.0  0.11938303314903462  0.35700904713988274  0.40009448411068144  1.0000
  C   C56       1.0  0.619383454329352  0.6429913115929724  0.0999045410469392  1.0000
  C   C57       1.0  0.03580716305570061  0.6194016440107789  0.6660376205677279  1.0000
  C   C58       1.0  0.5358065069327723  0.38059703598264605  0.8339632423121515  1.0000
  C   C59       1.0  0.964191772959538  0.3805944457315746  0.3339626140571922  1.0000
  C   C60       1.0  0.4641924290928259  0.6194026347567316  0.16603783711214953  1.0000
  C   C61       1.0  0.014282518597212902  0.6858819384489079  0.7356185774783197  1.0000
  C   C62       1.0  0.5142820824172321  0.31411730618872014  0.7643818357825082  1.0000
  C   C63       1.0  0.9857149131469074  0.3141127180030167  0.26438158775999904  1.0000
  C   C64       1.0  0.4857191100027832  0.685882362343186  0.23561991494853624  1.0000
  N   N1        1.0  0.8082564815547144  0.8414083102631548  0.8367735771346217  1.0000
  N   N2        1.0  0.3082532836476233  0.15859446055099366  0.6632283794426285  1.0000
  N   N3        1.0  0.19174395873447028  0.15858992941213051  0.163226761573469  1.0000
  N   N4        1.0  0.6917456523930596  0.8414080789740054  0.3367721674514072  1.0000
  N   N5        1.0  0.9267413097501064  0.9121233177783239  0.9158104757691985  1.0000
  N   N6        1.0  0.4267391542838581  0.08787815643501772  0.5841890047078591  1.0000
  N   N7        1.0  0.0732606348318825  0.08787708290766007  0.08418661043936027  1.0000
  N   N8        1.0  0.5732605338744676  0.9121215143070528  0.4158120747131803  1.0000
  N   N9        1.0  0.9729223212918825  0.8489209614264295  0.8572692045657814  1.0000
  N   N10       1.0  0.4729192899725875  0.15108300022470186  0.6427279648436154  1.0000
  N   N11       1.0  0.027078119024651005  0.15107943925416828  0.14272788164930716  1.0000
  N   N12       1.0  0.5270796460530106  0.8489166705146758  0.3572731145806926  1.0000
  N   N13       1.0  0.9704060805639614  0.5987044167277559  0.5986825751857052  1.0000
  N   N14       1.0  0.47040451480754086  0.4012937738207682  0.9013203803542567  1.0000
  N   N15       1.0  0.029595111861723904  0.4012938251657801  0.4013170922025821  1.0000
  N   N16       1.0  0.5295944212142841  0.5987058947030589  0.0986813703865934  1.0000
  O   O1        1.0  0.5758000267609376  0.5772902050790805  0.9165376314271539  1.0000
  O   O2        1.0  0.07580596772439918  0.42271236240632254  0.583457686924447  1.0000
  O   O3        1.0  0.4241936443506233  0.4227123344270538  0.08346291548975418  1.0000
  O   O4        1.0  0.9241959768547687  0.5772873216371434  0.4165393645875426  1.0000
  O   O5        1.0  0.42200513940265694  0.618642654961306  0.8653737292628774  1.0000
  O   O6        1.0  0.9220112384879969  0.38136379519997377  0.6346280491508408  1.0000
  O   O7        1.0  0.5779892838463283  0.38136489218292974  0.134629745792914  1.0000
  O   O8        1.0  0.07798995396125011  0.6186394654067229  0.3653711897968819  1.0000
  O   O9        1.0  0.571856904686264  0.9440088842077614  0.6005438372545129  1.0000
  O   O10       1.0  0.071850943979598  0.0559979371149524  0.8994570941176077  1.0000
  O   O11       1.0  0.42814503987683855  0.05599436532386899  0.3994587582726509  1.0000
  O   O12       1.0  0.9281487441966546  0.9440024591318449  0.1005413347338333  1.0000
  O   O13       1.0  0.4238721046850672  0.8668301683697521  0.618986334883715  1.0000
  O   O14       1.0  0.923862065294955  0.1331698608359275  0.8810104158953747  1.0000
  O   O15       1.0  0.5761283356267272  0.1331738044456614  0.3810142813969292  1.0000
  O   O16       1.0  0.076136870751391  0.8668312520506946  0.11898804765590401  1.0000
