data_image0
_chemical_formula_structural       CdH24C18N6O6
_chemical_formula_sum              "Cd1 H24 C18 N6 O6"
_cell_length_a       5.429994527419788
_cell_length_b       8.858182344760376
_cell_length_c       10.837784923907495
_cell_angle_alpha    71.990219723038
_cell_angle_beta     85.22619503426408
_cell_angle_gamma    78.01898730129443

_space_group_name_H-M_alt    "P 1"
_space_group_IT_number       1

loop_
  _space_group_symop_operation_xyz
  'x, y, z'

loop_
  _atom_site_type_symbol
  _atom_site_label
  _atom_site_symmetry_multiplicity
  _atom_site_fract_x
  _atom_site_fract_y
  _atom_site_fract_z
  _atom_site_occupancy
  Cd  Cd1       1.0  0.999999476944346  0.5000033858287553  0.9999964996740757  1.0000
  H   H1        1.0  0.7725144572715053  0.6923980424674809  0.7850687760560572  1.0000
  H   H2        1.0  0.22748651523665592  0.3076020762168312  0.21492173968705686  1.0000
  H   H3        1.0  0.3333565271402746  0.5666751769241786  0.2789760887625263  1.0000
  H   H4        1.0  0.6666318998182064  0.4333372682198089  0.7210064437480881  1.0000
  H   H5        1.0  0.9330487645946023  0.34190598074036427  0.5476611539859774  1.0000
  H   H6        1.0  0.06693973656759761  0.6580992201794943  0.4523240567943886  1.0000
  H   H7        1.0  0.7766167663759234  0.0074854663383234895  0.5095720961486805  1.0000
  H   H8        1.0  0.2233920860340246  0.9924924789759763  0.49044468392320073  1.0000
  H   H9        1.0  0.5570116254501086  0.15693451373559236  0.4039847123419377  1.0000
  H   H10       1.0  0.4430024666321374  0.843058848460501  0.5960373247620652  1.0000
  H   H11       1.0  0.7058457544410646  0.8034292475483724  0.40403618194518737  1.0000
  H   H12       1.0  0.29415700424195274  0.1965645597402883  0.5959705529512078  1.0000
  H   H13       1.0  0.5118377245904212  0.9605390069163987  0.28858712825451255  1.0000
  H   H14       1.0  0.48815885915225  0.0394643946780562  0.7114249284926188  1.0000
  H   H15       1.0  0.7159547823644274  0.7456424822435749  0.19000413096091515  1.0000
  H   H16       1.0  0.2840485180226153  0.2543561842503834  0.8099986322961144  1.0000
  H   H17       1.0  0.8677204438799675  0.10920233913631715  0.21663348878507083  1.0000
  H   H18       1.0  0.13227084945387438  0.8907928565767946  0.7833724852865912  1.0000
  H   H19       1.0  0.06054268753425159  0.9641181519611307  0.3382193528754627  1.0000
  H   H20       1.0  0.9394599852114567  0.035882916163494406  0.6617837774379821  1.0000
  H   H21       1.0  0.4097127778100712  0.7802911741055852  0.9884076217803964  1.0000
  H   H22       1.0  0.5902952750839177  0.21970369451130986  0.011602316181985392  1.0000
  H   H23       1.0  0.5332842692764074  0.6159515748240167  0.8493531322141193  1.0000
  H   H24       1.0  0.46672074596218494  0.384047263896747  0.15063844109830166  1.0000
  C   C1        1.0  0.40571999332289704  0.5381922985041427  0.37577524722203737  1.0000
  C   C2        1.0  0.5942752520801804  0.46182240658593804  0.6242092082268156  1.0000
  C   C3        1.0  0.7422536796755776  0.4103242945343482  0.5284767153633964  1.0000
  C   C4        1.0  0.2577308139569752  0.5896821365135382  0.4715102167872729  1.0000
  C   C5        1.0  0.8165457407197607  0.3940319692642618  0.30113064316550014  1.0000
  C   C6        1.0  0.18344988684090419  0.6059742990922744  0.6988558438682941  1.0000
  C   C7        1.0  0.6498344757204464  0.44792477348597975  0.40345608341342387  1.0000
  C   C8        1.0  0.35015032586598227  0.5520804650524909  0.5965302020524347  1.0000
  C   C9        1.0  0.6069760485245013  0.0264101909397354  0.4535934847760855  1.0000
  C   C10       1.0  0.39303581334976173  0.9735773459989051  0.5464208357101582  1.0000
  C   C11       1.0  0.6714986533914808  0.9342833585503173  0.3531757401534604  1.0000
  C   C12       1.0  0.32851156311106416  0.06571029044193472  0.6468334769379637  1.0000
  C   C13       1.0  0.8957081937279057  0.7777254548674862  0.1533811905605518  1.0000
  C   C14       1.0  0.10429579296845758  0.22227072693662114  0.8466258372061046  1.0000
  C   C15       1.0  0.9039741114066042  0.981100515906754  0.2742593124858884  1.0000
  C   C16       1.0  0.09602801963507797  0.018895693012581205  0.7257477894669079  1.0000
  C   C17       1.0  0.24737279370544463  0.7987661931309874  0.05191932770252809  1.0000
  C   C18       1.0  0.7526349277674741  0.20122990121899428  0.9480894043182456  1.0000
  N   N1        1.0  0.9970377085462943  0.8860855829990727  0.18534706996071276  1.0000
  N   N2        1.0  0.0029647187156668824  0.11390945002268178  0.8146584589940813  1.0000
  N   N3        1.0  0.05076099289889396  0.7189561383592608  0.06909862241494115  1.0000
  N   N4        1.0  0.9492445414982811  0.2810412088390351  0.9309089778503717  1.0000
  N   N5        1.0  0.22181123254789975  0.9015552448509112  0.12123962955724465  1.0000
  N   N6        1.0  0.7781946332703387  0.09844087661429772  0.8787691766496762  1.0000
  O   O1        1.0  0.7303769534904275  0.4421518256424264  0.1846695213839737  1.0000
  O   O2        1.0  0.2696164714587468  0.5578628567273684  0.8153177871906363  1.0000
  O   O3        1.0  0.03071758956500756  0.3082045022033882  0.3338073389421438  1.0000
  O   O4        1.0  0.9692811333972813  0.6918040969415244  0.6661802930889705  1.0000
  O   O5        1.0  0.6663625704021001  0.6677889397921533  0.8678415224817043  1.0000
  O   O6        1.0  0.33363341204681524  0.33221606960761807  0.13214802312010224  1.0000
