data_image0
_chemical_formula_structural       Cu4H28C28S4I4N4
_chemical_formula_sum              "Cu4 H28 C28 S4 I4 N4"
_cell_length_a       5.860335888823009
_cell_length_b       10.549991770763924
_cell_length_c       15.600348864814803
_cell_angle_alpha    90.0007561685546
_cell_angle_beta     90.00010699613867
_cell_angle_gamma    98.68859959852696

_space_group_name_H-M_alt    "P 1"
_space_group_IT_number       1

loop_
  _space_group_symop_operation_xyz
  'x, y, z'

loop_
  _atom_site_type_symbol
  _atom_site_label
  _atom_site_symmetry_multiplicity
  _atom_site_fract_x
  _atom_site_fract_y
  _atom_site_fract_z
  _atom_site_occupancy
  Cu  Cu1       1.0  0.7692064972284528  0.4866392564384513  0.5081673251575296  1.0000
  Cu  Cu2       1.0  0.730681890218257  0.013345296057977398  0.008224463091629297  1.0000
  Cu  Cu3       1.0  0.23057864363240546  0.5131889382292484  0.4917665134429611  1.0000
  Cu  Cu4       1.0  0.26948318545267824  0.9868816953513431  0.9917818296043066  1.0000
  H   H1        1.0  0.009840724985089411  0.23944340549554974  0.48401086177510416  1.0000
  H   H2        1.0  0.4901295092117764  0.2605006182015188  0.9839664643225134  1.0000
  H   H3        1.0  0.9898051435124915  0.7603398240121849  0.516043484508728  1.0000
  H   H4        1.0  0.5099356659315931  0.7396682843478358  0.015973160214763  1.0000
  H   H5        1.0  0.6502839236017267  0.0855756216551171  0.4932816279063559  1.0000
  H   H6        1.0  0.8496250266719372  0.4144086221330383  0.9932185955848496  1.0000
  H   H7        1.0  0.3495097843598033  0.9141166985208219  0.5067361767207927  1.0000
  H   H8        1.0  0.15040548312369142  0.5857581434330328  0.006638979328577898  1.0000
  H   H9        1.0  0.5917385076784923  0.9259978604572723  0.6131977048694992  1.0000
  H   H10       1.0  0.9082083042942488  0.5740109224668828  0.1131530562838208  1.0000
  H   H11       1.0  0.4079129314924757  0.07399119677911871  0.38696562315416827  1.0000
  H   H12       1.0  0.09209232866356136  0.4260150028354134  0.8867724597009  1.0000
  H   H13       1.0  0.8971182277011494  0.9261683592680755  0.7235542369847963  1.0000
  H   H14       1.0  0.6028440245440124  0.5738174299218529  0.22352620266408244  1.0000
  H   H15       1.0  0.10270184326792281  0.0736562281868345  0.2764924195092036  1.0000
  H   H16       1.0  0.39753560644684444  0.4263056954495782  0.7764191894720794  1.0000
  H   H17       1.0  0.2586164759689282  0.0745603730265785  0.7135503331904827  1.0000
  H   H18       1.0  0.241394604308617  0.4253842324456443  0.21352754983573155  1.0000
  H   H19       1.0  0.7412394042979429  0.9252232974311102  0.28643029726681135  1.0000
  H   H20       1.0  0.7589480415797282  0.5747683205252088  0.7864274587922182  1.0000
  H   H21       1.0  0.4834577461678791  0.22923370562913456  0.7143652197859396  1.0000
  H   H22       1.0  0.01652651299728091  0.2708149157921583  0.2143427598917427  1.0000
  H   H23       1.0  0.5164332581465629  0.7706899451108101  0.2856756724785895  1.0000
  H   H24       1.0  0.9836867291093014  0.7294612126744014  0.785662253226313  1.0000
  H   H25       1.0  0.6730304190961149  0.33749429424590727  0.6528356235628718  1.0000
  H   H26       1.0  0.8269734048562469  0.16252224856931016  0.1528272620520994  1.0000
  H   H27       1.0  0.32680472222828183  0.6623495436176016  0.3471385996030065  1.0000
  H   H28       1.0  0.17326019429786044  0.8376649895517473  0.8472309508136036  1.0000
  C   C1        1.0  0.37708280264979527  0.2603418903993743  0.5912294823684829  1.0000
  C   C2        1.0  0.12293421492004343  0.23961453522883863  0.0912243841921594  1.0000
  C   C3        1.0  0.6226567022507654  0.7395424681610694  0.4088088436523235  1.0000
  C   C4        1.0  0.8772809998229009  0.7605266382429221  0.9087960067722703  1.0000
  C   C5        1.0  0.1607701802458052  0.1699551748022969  0.59799378940653  1.0000
  C   C6        1.0  0.339261570449196  0.32998581080815376  0.09797259480416189  1.0000
  C   C7        1.0  0.8389720714540019  0.8299129279223294  0.4020612021397554  1.0000
  C   C8        1.0  0.6609665739056327  0.6701592818341526  0.9019945924363596  1.0000
  C   C9        1.0  0.9856509485241959  0.17032693916785044  0.5363097853830965  1.0000
  C   C10       1.0  0.5143418687913267  0.32962085547363534  0.0362717704986153  1.0000
  C   C11       1.0  0.014079083560780187  0.8294788639318824  0.4637445621575934  1.0000
  C   C12       1.0  0.4857840963180351  0.6705522798308579  0.9636556751565308  1.0000
  C   C13       1.0  0.7831060195864339  0.08325737796366894  0.5417352075114436  1.0000
  C   C14       1.0  0.7168543052552254  0.416724671371874  0.0416929022596975  1.0000
  C   C15       1.0  0.2166207838201971  0.9165627615664038  0.458322986773112  1.0000
  C   C16       1.0  0.2833260798664768  0.5833933070687253  0.9582262077381145  1.0000
  C   C17       1.0  0.7499871460956982  0.9947916205755122  0.6088238571511936  1.0000
  C   C18       1.0  0.7499825270356127  0.5051922322430827  0.10878479065739548  1.0000
  C   C19       1.0  0.2497401511589672  0.005091695734797999  0.3912619036303653  1.0000
  C   C20       1.0  0.250279526266553  0.49489757046423943  0.8911413692985732  1.0000
  C   C21       1.0  0.9222691394660816  0.9937608088723241  0.6704734419296656  1.0000
  C   C22       1.0  0.5777253868428788  0.5062124447878702  0.1704484736100014  1.0000
  C   C23       1.0  0.07751941624365341  0.0060673985774855  0.3295732146688478  1.0000
  C   C24       1.0  0.42260120410619356  0.49392373054764965  0.8294911499317406  1.0000
  C   C25       1.0  0.12611540585399442  0.0800826110971968  0.6651334445599629  1.0000
  C   C26       1.0  0.37390068650949354  0.4198704803622705  0.1651075017277108  1.0000
  C   C27       1.0  0.8736530940505106  0.9197540794052802  0.3349010331846145  1.0000
  C   C28       1.0  0.6264442503499197  0.5802571991904557  0.8348603259463658  1.0000
  S   S1        1.0  0.4501387016040611  0.3372560684151794  0.49674887839759657  1.0000
  S   S2        1.0  0.0498120996790519  0.16268655538223697  0.9967567228970465  1.0000
  S   S3        1.0  0.5495992964524774  0.6625746782565471  0.5032676506814582  1.0000
  S   S4        1.0  0.9503596343006464  0.8374581586224181  0.0032655911762376  1.0000
  I   I1        1.0  0.029276972664249  0.5268842384961515  0.6437037189867709  1.0000
  I   I2        1.0  0.4707362308039436  0.9729453134985776  0.14374030654965964  1.0000
  I   I3        1.0  0.9705609170772292  0.4729433476827867  0.3562397348680619  1.0000
  I   I4        1.0  0.5295739625845571  0.027329542025263706  0.8562762449203021  1.0000
  N   N1        1.0  0.5176258004725868  0.2784636764779691  0.6584785039044903  1.0000
  N   N2        1.0  0.9823788919366905  0.22154327202960647  0.15847066733954304  1.0000
  N   N3        1.0  0.4821654160762848  0.7214363413181887  0.3415463617363557  1.0000
  N   N4        1.0  0.01787695475290728  0.7786374150621784  0.8415644688549759  1.0000
