data_image0
_chemical_formula_structural       Zn16H20C96S16Cl12O52
_chemical_formula_sum              "Zn16 H20 C96 S16 Cl12 O52"
_cell_length_a       19.66575436764812
_cell_length_b       19.732799819010154
_cell_length_c       33.36536515089181
_cell_angle_alpha    78.95739420188951
_cell_angle_beta     79.16043864197354
_cell_angle_gamma    63.94726666012007

_space_group_name_H-M_alt    "P 1"
_space_group_IT_number       1

loop_
  _space_group_symop_operation_xyz
  'x, y, z'

loop_
  _atom_site_type_symbol
  _atom_site_label
  _atom_site_symmetry_multiplicity
  _atom_site_fract_x
  _atom_site_fract_y
  _atom_site_fract_z
  _atom_site_occupancy
  Zn  Zn1       1.0  0.05520812616287431  0.3998219629476124  0.47787115593887824  1.0000
  Zn  Zn2       1.0  0.9860703029329584  0.4839342196855373  0.5606487822637476  1.0000
  Zn  Zn3       1.0  0.057992453407827306  0.5611093216415597  0.48205354228515757  1.0000
  Zn  Zn4       1.0  0.9005419474543642  0.5545110365063052  0.48009688400309614  1.0000
  Zn  Zn5       1.0  0.694308671969658  0.3490091918563535  0.27145012825172193  1.0000
  Zn  Zn6       1.0  0.6886057720442196  0.1897450606920543  0.2660100717403964  1.0000
  Zn  Zn7       1.0  0.7698442434480556  0.26568510692026576  0.1903789122066968  1.0000
  Zn  Zn8       1.0  0.8477946934348354  0.19470901259165171  0.272941739020375  1.0000
  Zn  Zn9       1.0  0.26681433523352643  0.7666455296814617  0.6898900580980865  1.0000
  Zn  Zn10      1.0  0.3490299723529517  0.6972874969493503  0.7723082485849915  1.0000
  Zn  Zn11      1.0  0.19222105719909172  0.8478234956709725  0.7714505103045894  1.0000
  Zn  Zn12      1.0  0.19150764469899428  0.6872751818552629  0.7669112023658258  1.0000
  Zn  Zn13      1.0  0.5603138020798613  0.05979719182063536  0.9833341273671579  1.0000
  Zn  Zn14      1.0  0.4014661407181777  0.05480332615760365  0.9781850193232486  1.0000
  Zn  Zn15      1.0  0.5551786629041685  0.9010717756764419  0.9783909479742121  1.0000
  Zn  Zn16      1.0  0.4837620575116758  0.9826389026205931  0.06059326144777796  1.0000
  H   H1        1.0  0.9552610806282189  0.24907639992476743  0.3519416689271679  1.0000
  H   H2        1.0  0.7472930091124964  0.45309167850857063  0.34924848377090717  1.0000
  H   H3        1.0  0.9989628551387285  0.3011181709446261  0.3999687625584373  1.0000
  H   H4        1.0  0.09685422374896291  0.5965176902096873  0.6994876710891801  1.0000
  H   H5        1.0  0.20276958423499994  0.7015917062174425  0.5984347420457327  1.0000
  H   H6        1.0  0.050814162498916494  0.5514544339231691  0.6491403297896383  1.0000
  H   H7        1.0  0.462875549505199  0.23970014217631075  0.34100209712107704  1.0000
  H   H8        1.0  0.47948902113806463  0.7026396973773359  0.6010900316310241  1.0000
  H   H9        1.0  0.20336559413778588  0.9790361516332883  0.6009993015585734  1.0000
  H   H10       1.0  0.9481320478554308  0.9702045703382823  0.3481761056436809  1.0000
  H   H11       1.0  0.5503172183478996  0.0502205242580018  0.15394883417592808  1.0000
  H   H12       1.0  0.65082257543029  0.15158825599124962  0.04832550025644619  1.0000
  H   H13       1.0  0.6007285908043655  0.1002513494290582  0.1995790171164629  1.0000
  H   H14       1.0  0.5475768170464692  0.769995783833373  0.14892892193694962  1.0000
  H   H15       1.0  0.1623433535250527  0.1415445208216965  0.040335944054724814  1.0000
  H   H16       1.0  0.5012027875125042  0.794890245751617  0.8981936209306908  1.0000
  H   H17       1.0  0.29736247202486504  0.003048146789062437  0.900024368774389  1.0000
  H   H18       1.0  0.44848683391814603  0.7519390510021894  0.8501786915373728  1.0000
  H   H19       1.0  0.30042340603068146  0.2801157933477256  0.901939101270976  1.0000
  H   H20       1.0  0.7873048547984637  0.01011569001996547  0.9087049471943729  1.0000
  C   C1        1.0  0.0619225732354991  0.3162633666104496  0.5617983391772299  1.0000
  C   C2        1.0  0.06986864161297748  0.5707553772665007  0.5685089067684643  1.0000
  C   C3        1.0  0.1831575729369277  0.4392729488636887  0.43837506332705795  1.0000
  C   C4        1.0  0.9365097602075136  0.683872791126433  0.4385386556481379  1.0000
  C   C5        1.0  0.930010512777912  0.43079417251760765  0.43100243324707327  1.0000
  C   C6        1.0  0.8172682687347576  0.5611399519649962  0.5628141268627687  1.0000
  C   C7        1.0  0.5655414126961488  0.3108343904533086  0.3111880822544606  1.0000
  C   C8        1.0  0.6815418350239425  0.18062352038020169  0.18041777860938174  1.0000
  C   C9        1.0  0.6899144901303629  0.4331200413993273  0.18834754749779137  1.0000
  C   C10       1.0  0.9356403485748358  0.18779709300108038  0.18989062550401312  1.0000
  C   C11       1.0  0.8200369523627842  0.31864718976687106  0.3193728648894165  1.0000
  C   C12       1.0  0.8109475906395645  0.06599746180086186  0.3115340376841402  1.0000
  C   C13       1.0  0.43343746330822336  0.6897383313033033  0.6881995455224938  1.0000
  C   C14       1.0  0.31791075225670085  0.8206930662996825  0.8193260267379827  1.0000
  C   C15       1.0  0.18858730290859427  0.9330314280106293  0.6879868791038674  1.0000
  C   C16       1.0  0.06544468366258369  0.8092142414494673  0.811131672285441  1.0000
  C   C17       1.0  0.1811479066708159  0.6797588974676926  0.6809611301818776  1.0000
  C   C18       1.0  0.31331944706044373  0.5660661952914835  0.8116759406536431  1.0000
  C   C19       1.0  0.4378246195090583  0.18368233167128523  0.9386074113388786  1.0000
  C   C20       1.0  0.4316070184679289  0.92971245748312  0.9306631570466806  1.0000
  C   C21       1.0  0.6840059250276127  0.9395401830544756  0.9388528606017771  1.0000
  C   C22       1.0  0.5612683050371244  0.8159593068625381  0.061946250375115135  1.0000
  C   C23       1.0  0.5688922644737957  0.06869507464323017  0.0699518440705376  1.0000
  C   C24       1.0  0.3157803402268939  0.0613049103735435  0.060905864595831395  1.0000
  C   C25       1.0  0.8986299243405184  0.40557920443607987  0.4018820491217738  1.0000
  C   C26       1.0  0.8483422164056478  0.3481249191774365  0.3477778364303746  1.0000
  C   C27       1.0  0.8268986809939634  0.44875230643444297  0.3871014472058789  1.0000
  C   C28       1.0  0.9197435415769776  0.3047810396453484  0.3619331909858444  1.0000
  C   C29       1.0  0.8026148877646121  0.41965413003073576  0.3603715473868618  1.0000
  C   C30       1.0  0.9437796127900738  0.3337164541192765  0.3885186878510609  1.0000
  C   C31       1.0  0.10033670602914668  0.6005722741662254  0.5957387480647328  1.0000
  C   C32       1.0  0.15267459863689226  0.651847606962356  0.6518579990616971  1.0000
  C   C33       1.0  0.14384402416013137  0.643456046007664  0.581505534560648  1.0000
  C   C34       1.0  0.10970901656264691  0.6093819165228354  0.6664802378697628  1.0000
  C   C35       1.0  0.16937972306283908  0.6686091456177649  0.6095840346526417  1.0000
  C   C36       1.0  0.08430068637274961  0.5845211212315747  0.6385545780101083  1.0000
  C   C37       1.0  0.304668030946786  0.4542115196103679  0.40095267193595424  1.0000
  C   C38       1.0  0.44594048708121653  0.29629444234457464  0.3489608779581914  1.0000
  C   C39       1.0  0.25830353885864815  0.4153479179125839  0.4138389144246942  1.0000
  C   C40       1.0  0.4908989059095461  0.3360698200176202  0.3363890963513683  1.0000
  C   C41       1.0  0.3778968890536162  0.3392254669218319  0.3726098714132817  1.0000
  C   C42       1.0  0.3728473702617947  0.41076775761351303  0.37742011934954434  1.0000
  C   C43       1.0  0.7258506661668421  0.5755953590740999  0.6307778070645327  1.0000
  C   C44       1.0  0.5241057824457229  0.6736128800893937  0.621223814661157  1.0000
  C   C45       1.0  0.7430145365459069  0.5850173783490362  0.5881950429105061  1.0000
  C   C46       1.0  0.5086368737167959  0.6638289721082272  0.6636384522800399  1.0000
  C   C47       1.0  0.6034818217007755  0.641422562227575  0.6090812204811584  1.0000
  C   C48       1.0  0.6462935828148274  0.607831112276763  0.6426964788874798  1.0000
  C   C49       1.0  0.0765946322309077  0.22484718914047613  0.6298762992807809  1.0000
  C   C50       1.0  0.1743528488310204  0.02357864867512663  0.6209579948495758  1.0000
  C   C51       1.0  0.08614837780552159  0.2419757982263562  0.587245856294011  1.0000
  C   C52       1.0  0.16392994860498794  0.008159654699113597  0.6633519420409897  1.0000
  C   C53       1.0  0.14248098084613053  0.10275027390801482  0.6085979004228079  1.0000
  C   C54       1.0  0.10871687120815207  0.14547018460720554  0.6420285538562851  1.0000
  C   C55       1.0  0.8417901023977732  0.8011056445587457  0.39689693889431493  1.0000
  C   C56       1.0  0.9037582654003059  0.9498213548381288  0.3526187395578901  1.0000
  C   C57       1.0  0.9104042809286879  0.7584392834476288  0.41351528518426056  1.0000
  C   C58       1.0  0.8351871203354763  0.9910956063723685  0.3363654003220872  1.0000
  C   C59       1.0  0.9064343011566223  0.880267739277876  0.3746935759641374  1.0000
  C   C60       1.0  0.8395731019996048  0.8705572272400773  0.37470108246699857  1.0000
  C   C61       1.0  0.6539338453924161  0.15375885900348846  0.15022843018756762  1.0000
  C   C62       1.0  0.5977803479188921  0.09784926414327072  0.09825385657914858  1.0000
  C   C63       1.0  0.6678568381261272  0.16826957930862804  0.10694903941285361  1.0000
  C   C64       1.0  0.5832637937883617  0.08317561224253471  0.14105622148229463  1.0000
  C   C65       1.0  0.6398195755758634  0.1402326242323682  0.08155857371555444  1.0000
  C   C66       1.0  0.6112108008637522  0.11098213644457632  0.16624557087322964  1.0000
  C   C67       1.0  0.674060667713789  0.5240983712167874  0.12017513892785557  1.0000
  C   C68       1.0  0.5763534536452752  0.7254231887047454  0.1289783366064299  1.0000
  C   C69       1.0  0.6650015734773335  0.5072288367306469  0.1628284185855975  1.0000
  C   C70       1.0  0.5862318773140913  0.7408271660074062  0.08656476690742922  1.0000
  C   C71       1.0  0.6083100821017523  0.6462674504130272  0.14136855674493629  1.0000
  C   C72       1.0  0.6417028743928339  0.6034486199639347  0.10794766497902947  1.0000
  C   C73       1.0  0.0831986907271727  0.12319651290954427  0.178335446022821  1.0000
  C   C74       1.0  0.17013578744928984  0.12487241791958328  0.0727306266723673  1.0000
  C   C75       1.0  0.010849811561769198  0.16229822740167069  0.1655001143114561  1.0000
  C   C76       1.0  0.24139252503329797  0.08602869974143348  0.08625435620808732  1.0000
  C   C77       1.0  0.1121464088660815  0.13860444967861696  0.1063072482368881  1.0000
  C   C78       1.0  0.14098904017665598  0.10970266454503273  0.144573558905293  1.0000
  C   C79       1.0  0.3438696267691341  0.8522191672069681  0.8479868263065029  1.0000
  C   C80       1.0  0.4021683991278309  0.9018022228583363  0.9020368597213064  1.0000
  C   C81       1.0  0.3011206699907945  0.923942656358406  0.8623575950545971  1.0000
  C   C82       1.0  0.44533585407076964  0.8306051873423783  0.8880820733090288  1.0000
  C   C83       1.0  0.33057064155164545  0.9478352894713709  0.8891091644279001  1.0000
  C   C84       1.0  0.41600416316814653  0.8069492319439959  0.8614937275832943  1.0000
  C   C85       1.0  0.4079885862575097  0.44821302398705126  0.8531100339994566  1.0000
  C   C86       1.0  0.34504192317331217  0.3001669523248438  0.8974910553642701  1.0000
  C   C87       1.0  0.33944762254237293  0.49119045530217426  0.8364718094356505  1.0000
  C   C88       1.0  0.41360321749607454  0.2585571130588492  0.9137295179653578  1.0000
  C   C89       1.0  0.34278689211562613  0.36951897688499696  0.8752862653268139  1.0000
  C   C90       1.0  0.40988497605052027  0.3788131553240675  0.8752621612827626  1.0000
  C   C91       1.0  0.9442432088403266  0.7945458930359732  0.8493951673728192  1.0000
  C   C92       1.0  0.8039125428961285  0.9534062044272315  0.9010066286846694  1.0000
  C   C93       1.0  0.9907529125280234  0.833102786480765  0.8360865269235873  1.0000
  C   C94       1.0  0.758700661659276  0.9139546826217777  0.9138233448336948  1.0000
  C   C95       1.0  0.871769670835114  0.9099644706822755  0.8774128915261343  1.0000
  C   C96       1.0  0.876368665638303  0.8384088961512857  0.8729514845392002  1.0000
  S   S1        1.0  0.2985768294816181  0.3258540613675863  0.3971745548054386  1.0000
  S   S2        1.0  0.451321818341448  0.4253859611890292  0.3530717652968249  1.0000
  S   S3        1.0  0.6616119849935415  0.6330215147868113  0.5629563918358543  1.0000
  S   S4        1.0  0.5895918756365575  0.6156946500497611  0.689046023738932  1.0000
  S   S5        1.0  0.13429588614472723  0.16074713577008742  0.5623365611556466  1.0000
  S   S6        1.0  0.11585623918928431  0.08890112168376163  0.6885023815770239  1.0000
  S   S7        1.0  0.9717731534122153  0.8035723360638446  0.40192384585557045  1.0000
  S   S8        1.0  0.7736748193443219  0.946310088544514  0.34762587056114574  1.0000
  S   S9        1.0  0.616850760850923  0.5884975641494066  0.18768872029050238  1.0000
  S   S10       1.0  0.633996871679429  0.6599909159302865  0.06144022340158273  1.0000
  S   S11       1.0  0.013948887003358801  0.1822659885588465  0.11217719512757181  1.0000
  S   S12       1.0  0.23883108371151707  0.06590164286008363  0.1394779881058597  1.0000
  S   S13       1.0  0.27777110271472344  0.4463811510205886  0.8479723933736095  1.0000
  S   S14       1.0  0.47559210010390973  0.302843005413436  0.9023363804374683  1.0000
  S   S15       1.0  0.9511689721422483  0.9227900876789331  0.8524720742345835  1.0000
  S   S16       1.0  0.7977743954575799  0.8243538937805895  0.8975342997522092  1.0000
  Cl  Cl1       1.0  0.7640800515326234  0.5382074500398916  0.3996140724234323  1.0000
  Cl  Cl2       1.0  0.1695220756210745  0.6681153990602553  0.5302396866610195  1.0000
  Cl  Cl3       1.0  0.7183379108944123  0.22010486674358995  0.08170260858419451  1.0000
  Cl  Cl4       1.0  0.21198828016505183  0.9873461553628925  0.8490493068415432  1.0000
  Cl  Cl5       1.0  0.28585429788590494  0.5428165577373179  0.4110005895382329  1.0000
  Cl  Cl6       1.0  0.7895279903396216  0.5312801987977095  0.6660269011328381  1.0000
  Cl  Cl7       1.0  0.0321855837719411  0.2881383976407362  0.6650341226848937  1.0000
  Cl  Cl8       1.0  0.7674054999701027  0.776494311409486  0.40128936624800826  1.0000
  Cl  Cl9       1.0  0.7176658636136396  0.4605512400646745  0.08514066350921469  1.0000
  Cl  Cl10      1.0  0.10403241064191349  0.09339534130980098  0.22785238991081513  1.0000
  Cl  Cl11      1.0  0.4827952500146607  0.4722430451117318  0.8485608482845066  1.0000
  Cl  Cl12      1.0  0.9627949521583049  0.7057730380088072  0.8397504358245484  1.0000
  O   O1        1.0  0.0008415258341188  0.4980575276341668  0.5001679038834368  1.0000
  O   O2        1.0  0.0771284394174501  0.3145994773658601  0.5227960591816228  1.0000
  O   O3        1.0  0.033929490019318095  0.5306491654138411  0.5865844638163723  1.0000
  O   O4        1.0  0.1542962140409614  0.5053552407301041  0.4496891888281951  1.0000
  O   O5        1.0  0.02841768692757539  0.37502466414310476  0.5805635581883806  1.0000
  O   O6        1.0  0.15358750664341866  0.39108488989241147  0.4460058917513051  1.0000
  O   O7        1.0  0.08150405921977469  0.5873794695607657  0.529896275896391  1.0000
  O   O8        1.0  0.003798845099211699  0.6579177985053661  0.4489967181309993  1.0000
  O   O9        1.0  0.8882239058302162  0.4945404963482926  0.44400342569211665  1.0000
  O   O10       1.0  0.8908808465431973  0.6517596206984851  0.4476828146785365  1.0000
  O   O11       1.0  0.9966740846173394  0.38567913245893926  0.44062832945933644  1.0000
  O   O12       1.0  0.8768640260346885  0.5273412957835006  0.5812109034206685  1.0000
  O   O13       1.0  0.8147174190713713  0.577149767215431  0.5238464813927592  1.0000
  O   O14       1.0  0.7494674605214158  0.24966237683118916  0.25064506476822856  1.0000
  O   O15       1.0  0.5967419328884914  0.3575750868660918  0.30343634659006824  1.0000
  O   O16       1.0  0.6620885421051882  0.16419809450871975  0.2185644782875045  1.0000
  O   O17       1.0  0.7263265628839761  0.3741783605054465  0.16986674729238874  1.0000
  O   O18       1.0  0.5921881131219279  0.24516208612669735  0.29937415151673014  1.0000
  O   O19       1.0  0.672517372853477  0.4349009757875565  0.22728902672940882  1.0000
  O   O20       1.0  0.7219567032715516  0.21725539539874447  0.1661131777911606  1.0000
  O   O21       1.0  0.8784341549430151  0.2230283831490212  0.16922109453842893  1.0000
  O   O22       1.0  0.8637293328180319  0.2526403596594377  0.30914711706261505  1.0000
  O   O23       1.0  0.9334739310277272  0.17310036653299196  0.2288614459262348  1.0000
  O   O24       1.0  0.7546323602674433  0.36190537402244144  0.3078182430667908  1.0000
  O   O25       1.0  0.745046723081451  0.09321492700586738  0.29926976884865303  1.0000
  O   O26       1.0  0.8577883354456972  0.09685203564138327  0.30451998001060326  1.0000
  O   O27       1.0  0.2501979990805125  0.7491875445266631  0.7501503256006927  1.0000
  O   O28       1.0  0.3753673463950379  0.7242415672783196  0.668429783384795  1.0000
  O   O29       1.0  0.3646530297498601  0.7555921822477883  0.8085688172272683  1.0000
  O   O30       1.0  0.1719406136010164  0.9328206106097454  0.7269778915920639  1.0000
  O   O31       1.0  0.43335236692283274  0.675298370506148  0.7272839155727555  1.0000
  O   O32       1.0  0.2240606591047225  0.8751705804377963  0.6684256545488125  1.0000
  O   O33       1.0  0.2520919414275937  0.8602624638345019  0.8079574445676841  1.0000
  O   O34       1.0  0.09444677356366778  0.8579048716170163  0.8033547720451111  1.0000
  O   O35       1.0  0.16541610435265847  0.6620924846741046  0.7192862744738947  1.0000
  O   O36       1.0  0.09466963670622161  0.7433502157694322  0.7995099021260685  1.0000
  O   O37       1.0  0.21877451426044564  0.7189554403204284  0.6649015417141442  1.0000
  O   O38       1.0  0.35779859173405276  0.5994619819616246  0.8039841373021162  1.0000
  O   O39       1.0  0.2469900415931505  0.5909097319644302  0.8000805703202758  1.0000
  O   O40       1.0  0.500090652760207  0.9994875465906643  0.00020384555852360998  1.0000
  O   O41       1.0  0.5041011554069498  0.15638485202784122  0.950448877436969  1.0000
  O   O42       1.0  0.38839837474343847  0.9952005284254425  0.9417367393186781  1.0000
  O   O43       1.0  0.6527133399027107  0.8928984212606538  0.9466837559895042  1.0000
  O   O44       1.0  0.39100512493072875  0.15275727347642493  0.9461274238622366  1.0000
  O   O45       1.0  0.6572785401827019  0.005415001126529256  0.9504440073988222  1.0000
  O   O46       1.0  0.4973612242764959  0.8857994941295145  0.941581501605107  1.0000
  O   O47       1.0  0.5768932898561872  0.8161172233304017  0.0229130052449733  1.0000
  O   O48       1.0  0.5307239710570854  0.03028873548036155  0.08663750495730943  1.0000
  O   O49       1.0  0.5265364898327575  0.8738524701927162  0.08152870277759659  1.0000
  O   O50       1.0  0.5849162487941939  0.0847178678504433  0.03146716158926209  1.0000
  O   O51       1.0  0.31527522847245837  0.07695998378343921  0.021980928114082605  1.0000
  O   O52       1.0  0.3743189117501514  0.026177469679183215  0.080453202123131  1.0000
