data_image0
_chemical_formula_structural       Zn2H26C40N2O12
_chemical_formula_sum              "Zn2 H26 C40 N2 O12"
_cell_length_a       11.058922065420028
_cell_length_b       16.403876115524348
_cell_length_c       17.81905811493194
_cell_angle_alpha    95.24917166290939
_cell_angle_beta     90.38846729463347
_cell_angle_gamma    92.04494013312662

_space_group_name_H-M_alt    "P 1"
_space_group_IT_number       1

loop_
  _space_group_symop_operation_xyz
  'x, y, z'

loop_
  _atom_site_type_symbol
  _atom_site_label
  _atom_site_symmetry_multiplicity
  _atom_site_fract_x
  _atom_site_fract_y
  _atom_site_fract_z
  _atom_site_occupancy
  Zn  Zn1       1.0  0.4955674814828654  0.4146673706351935  0.501450395991327  1.0000
  Zn  Zn2       1.0  0.5032967171260765  0.5852671886832399  0.506788834359142  1.0000
  H   H1        1.0  0.37414422076788867  0.7128161914968986  0.4288147945104654  1.0000
  H   H2        1.0  0.379047518679556  0.8636233247382209  0.4292829116344237  1.0000
  H   H3        1.0  0.6686764526480715  0.8680547884990519  0.5969049571976868  1.0000
  H   H4        1.0  0.6488972165186552  0.7197600068792555  0.5878572945662198  1.0000
  H   H5        1.0  0.33508766206058027  0.13217216391139894  0.40252946363800385  1.0000
  H   H6        1.0  0.6219210158811421  0.13425880596679465  0.5715578557081358  1.0000
  H   H7        1.0  0.625170948154306  0.28531349319615634  0.5752459121188949  1.0000
  H   H8        1.0  0.3513436382188501  0.28090745690506946  0.41592021633803  1.0000
  H   H9        1.0  0.5058957403615308  0.618481925754388  0.26631889128410785  1.0000
  H   H10       1.0  0.5066412926463215  0.6111674333341032  0.1278962709595959  1.0000
  H   H11       1.0  0.4915041007090295  0.34555469650368315  0.1223272225901297  1.0000
  H   H12       1.0  0.4910620356173893  0.35672361943428404  0.2583019966518592  1.0000
  H   H13       1.0  0.508900911080424  0.656456471195284  0.8870189788355842  1.0000
  H   H14       1.0  0.4936882078924825  0.3905869990597353  0.8781344874093903  1.0000
  H   H15       1.0  0.49387268072444357  0.3856834056208813  0.7395720275690039  1.0000
  H   H16       1.0  0.5094796822542804  0.6477073446675592  0.7514525912667764  1.0000
  H   H17       1.0  0.7796228695478007  0.6014628548548018  0.3972710958308951  1.0000
  H   H18       1.0  0.8963450326706877  0.6848468789916995  0.312771991070136  1.0000
  H   H19       1.0  0.22957117844309494  0.5948333714124986  0.3937360679626636  1.0000
  H   H20       1.0  0.1221219313270225  0.6813513961350567  0.3105783413184753  1.0000
  H   H21       1.0  0.10806777055054789  0.4059679140921661  0.5707500149737611  1.0000
  H   H22       1.0  0.8817224519276297  0.4072075263219973  0.5711358322495528  1.0000
  H   H23       1.0  0.6573505371987025  0.9672549623774744  0.5953762207043809  1.0000
  H   H24       1.0  0.3420243088030475  0.03175193170506669  0.4057138036619676  1.0000
  H   H25       1.0  0.4905636140059427  0.35316996523858535  0.03314298521152641  1.0000
  H   H26       1.0  0.5097138404003801  0.6477503091055824  0.9747778566541926  1.0000
  C   C1        1.0  0.4968886672749093  0.4935832466468427  0.35576712446894726  1.0000
  C   C2        1.0  0.2623852957029271  0.49599182828349353  0.49862466407205375  1.0000
  C   C3        1.0  0.5028254075229412  0.512353836070588  0.6518863958554704  1.0000
  C   C4        1.0  0.7364850110867708  0.49833973906118006  0.4999405229435609  1.0000
  C   C5        1.0  0.4376718915648255  0.7508253914516775  0.4650899838786131  1.0000
  C   C6        1.0  0.4408935416733684  0.8355126361186296  0.4656494170694288  1.0000
  C   C7        1.0  0.5235167681209063  0.8837139269598923  0.5134639729948987  1.0000
  C   C8        1.0  0.599623553119649  0.8394113846611405  0.5579158189686949  1.0000
  C   C9        1.0  0.590710849601919  0.7546154775241335  0.5540030918577513  1.0000
  C   C10       1.0  0.5339946592658791  0.9734783269443527  0.5196609293705947  1.0000
  C   C11       1.0  0.4678762374878005  0.025609459321785304  0.4799833436192529  1.0000
  C   C12       1.0  0.4024628936861063  0.16044490067949374  0.44288904980882643  1.0000
  C   C13       1.0  0.47820779970815863  0.11538099163755791  0.48688815158774906  1.0000
  C   C14       1.0  0.5600880547425007  0.16298472584756502  0.5356863870881554  1.0000
  C   C15       1.0  0.5622166806428481  0.24778442406969262  0.5381523548984787  1.0000
  C   C16       1.0  0.4098569970511789  0.2454075918687692  0.4489793482061443  1.0000
  C   C17       1.0  0.49750534206945923  0.488221077775947  0.27164291400663393  1.0000
  C   C18       1.0  0.502293445800781  0.5590867280116286  0.233328272297733  1.0000
  C   C19       1.0  0.5028327052558907  0.5548443897369423  0.15516125737043748  1.0000
  C   C20       1.0  0.49849927805112054  0.4785675748282544  0.11060026779068009  1.0000
  C   C21       1.0  0.4943309211680856  0.40768874010779416  0.15076528328906144  1.0000
  C   C22       1.0  0.4938671945137117  0.412199354766969  0.22897524086277335  1.0000
  C   C23       1.0  0.4982414531841712  0.46956289269405727  0.0277890458862302  1.0000
  C   C24       1.0  0.5020409189542648  0.531348085388089  0.9798751231454829  1.0000
  C   C25       1.0  0.5059655523600668  0.5946787464891728  0.8578674968411872  1.0000
  C   C26       1.0  0.5017481787165394  0.523120194151602  0.8970656029438189  1.0000
  C   C27       1.0  0.49737816882803537  0.4474354086819333  0.8515839019357259  1.0000
  C   C28       1.0  0.4976242452229939  0.44455017324180096  0.773416063872773  1.0000
  C   C29       1.0  0.5024266700911894  0.516138449347672  0.7360718348384054  1.0000
  C   C30       1.0  0.5064004803248139  0.5915416196273714  0.7797542510881287  1.0000
  C   C31       1.0  0.8716883130683043  0.49871316409711164  0.49370191967425114  1.0000
  C   C32       1.0  0.9368685478167292  0.5502089285869546  0.44607743319669874  1.0000
  C   C33       1.0  0.9334168503371173  0.44689538248005806  0.5362919759969245  1.0000
  C   C34       1.0  0.8779743061444448  0.6004391073627817  0.3970941640242884  1.0000
  C   C35       1.0  0.943513857525346  0.6471008885232197  0.35004134357563294  1.0000
  C   C36       1.0  0.12714297750082443  0.49683134281927743  0.4926994413115152  1.0000
  C   C37       1.0  0.060384112871574296  0.44602597877376143  0.535965800328718  1.0000
  C   C38       1.0  0.06709284601351578  0.5488707900459744  0.44535923993386456  1.0000
  C   C39       1.0  0.1313349858572082  0.5971225818835891  0.39526992310618425  1.0000
  C   C40       1.0  0.07111711944459388  0.6453026292304217  0.3489397488349155  1.0000
  N   N1        1.0  0.5106513607654861  0.71056659318964  0.5084867932380632  1.0000
  N   N2        1.0  0.48860745850712556  0.288913419706141  0.49591440689989236  1.0000
  O   O1        1.0  0.49479694714829486  0.4264806661372306  0.3866861259469871  1.0000
  O   O2        1.0  0.49867057840023676  0.5652855309648573  0.3903554208222388  1.0000
  O   O3        1.0  0.319479946327668  0.565160644635249  0.505540095276757  1.0000
  O   O4        1.0  0.3095427135763559  0.42625205256591425  0.4979253531054937  1.0000
  O   O5        1.0  0.5084275792071722  0.580185144655708  0.6221772803739611  1.0000
  O   O6        1.0  0.49722340367517154  0.4411850483220478  0.6162387579651423  1.0000
  O   O7        1.0  0.6821685193921141  0.42875268061762745  0.501495581560647  1.0000
  O   O8        1.0  0.686357669477772  0.5673750669040631  0.5044051866024192  1.0000
  O   O9        1.0  0.6184440839519709  0.009630539832677702  0.570207364093875  1.0000
  O   O10       1.0  0.3840464411475324  0.9893720893445279  0.42903139594937295  1.0000
  O   O11       1.0  0.49360298496263505  0.3904359450496956  0.9937463607972532  1.0000
  O   O12       1.0  0.5066595285533638  0.6103997647535807  0.014080352866919615  1.0000
