data_image0
_chemical_formula_structural       Zn2H54C64N4O20F2
_chemical_formula_sum              "Zn2 H54 C64 N4 O20 F2"
_cell_length_a       12.062693555349876
_cell_length_b       12.876869405867746
_cell_length_c       23.49987878099706
_cell_angle_alpha    88.20680251160026
_cell_angle_beta     86.49508430628434
_cell_angle_gamma    86.42842402748889

_space_group_name_H-M_alt    "P 1"
_space_group_IT_number       1

loop_
  _space_group_symop_operation_xyz
  'x, y, z'

loop_
  _atom_site_type_symbol
  _atom_site_label
  _atom_site_symmetry_multiplicity
  _atom_site_fract_x
  _atom_site_fract_y
  _atom_site_fract_z
  _atom_site_occupancy
  Zn  Zn1       1.0  0.6284433197059941  0.5061909379813301  0.5040101841596325  1.0000
  Zn  Zn2       1.0  0.38420756435870373  0.4815768299524024  0.5010606810882763  1.0000
  H   H1        1.0  0.6938185323635508  0.7058240714060273  0.9340468529626024  1.0000
  H   H2        1.0  0.35056261245521375  0.6604734128372342  0.6673121606480096  1.0000
  H   H3        1.0  0.4283389027614747  0.6962108168482644  0.23367876272499194  1.0000
  H   H4        1.0  0.5647453262379329  0.43234588182682643  0.8009974624147704  1.0000
  H   H5        1.0  0.38817962166805836  0.1861250025356966  0.5043826885800515  1.0000
  H   H6        1.0  0.6352456572056441  0.8061366832374189  0.49800480096320865  1.0000
  H   H7        1.0  0.6868532465487505  0.5800096645028175  0.6248079238646086  1.0000
  H   H8        1.0  0.811147331180699  0.6488512607951833  0.612717675997196  1.0000
  H   H9        1.0  0.8925109112643528  0.5577305150611521  0.6976851599680032  1.0000
  H   H10       1.0  0.7599203104362644  0.6181637749820651  0.7189885047216507  1.0000
  H   H11       1.0  0.7734980728185051  0.48197766856031893  0.7077165907151227  1.0000
  H   H12       1.0  0.22011496671873942  0.46817937340425436  0.0708752492905731  1.0000
  H   H13       1.0  0.26561243513105376  0.6777360625708726  0.41070532945936133  1.0000
  H   H14       1.0  0.11882518815578888  0.6837352635218965  0.42360033797138635  1.0000
  H   H15       1.0  0.09534202852494642  0.6177191626119266  0.32517030678616277  1.0000
  H   H16       1.0  0.17869469455207823  0.727478706665032  0.31969321032978126  1.0000
  H   H17       1.0  0.2418989539702494  0.5994202875462307  0.3138963948172631  1.0000
  H   H18       1.0  0.8250853918399061  0.5824579119664647  0.3416811819240736  1.0000
  H   H19       1.0  0.8851857808343199  0.6994465575924451  0.36045713027771603  1.0000
  H   H20       1.0  0.7009876956070044  0.7983808703473088  0.35561197827875196  1.0000
  H   H21       1.0  0.7344673939675347  0.7330560000755424  0.29045420887715784  1.0000
  H   H22       1.0  0.6373513487784165  0.6815317250292592  0.3424042921855275  1.0000
  H   H23       1.0  0.018873841789449803  0.4168925837241773  0.6155726960958959  1.0000
  H   H24       1.0  0.1371257182834924  0.3047606293337567  0.6543172246363868  1.0000
  H   H25       1.0  0.19718954900611863  0.42386793828631397  0.669405170618859  1.0000
  H   H26       1.0  0.3875961733275375  0.32773805865259215  0.665656171262235  1.0000
  H   H27       1.0  0.29549339290272064  0.27393638851832236  0.7193633549351831  1.0000
  H   H28       1.0  0.32511461159748467  0.21007002406774689  0.6534473941603451  1.0000
  H   H29       1.0  0.8077985170287648  0.14927337368657592  0.427325771213404  1.0000
  H   H30       1.0  0.9076634051600723  0.09757524138569097  0.47540849333070423  1.0000
  H   H31       1.0  0.9332998406773926  0.2829437745177188  0.5049583932725668  1.0000
  H   H32       1.0  0.9740581063401449  0.26183558306509275  0.4319152338024993  1.0000
  H   H33       1.0  0.8432881042000774  0.32932383792908837  0.45128857110590576  1.0000
  H   H34       1.0  0.9916151283876146  0.5835114671711138  0.39539196323067227  1.0000
  H   H35       1.0  0.11982370101547703  0.8920088562019399  0.5459363494663735  1.0000
  H   H36       1.0  0.23286330310746453  0.8550109889681892  0.5892613755029857  1.0000
  H   H37       1.0  0.20188383905166063  0.6665269710091122  0.5772308215473815  1.0000
  H   H38       1.0  0.07719735390769242  0.7337329074182863  0.6057562361652629  1.0000
  H   H39       1.0  0.09058737108468051  0.7016980337040408  0.5325970861736951  1.0000
  H   H40       1.0  0.2848534331341099  0.14202271406473702  0.5704232661416881  1.0000
  H   H41       1.0  0.2245780108392168  0.025907564596955993  0.5969701155579658  1.0000
  H   H42       1.0  0.049131624719279905  0.08029539561964327  0.5471170353420051  1.0000
  H   H43       1.0  0.08067951238956542  0.17532444182103288  0.5958202951835504  1.0000
  H   H44       1.0  0.11093567315899121  0.19629368216168072  0.5214950503573662  1.0000
  H   H45       1.0  0.70846374244622  0.6953072988864976  0.0411367308356674  1.0000
  H   H46       1.0  0.8162686841670563  0.9715607526364353  0.41738273907940043  1.0000
  H   H47       1.0  0.7513136189938622  0.8537896346060163  0.4365182915864879  1.0000
  H   H48       1.0  0.9127069042536392  0.7940711781200347  0.49446277206651973  1.0000
  H   H49       1.0  0.9578728541993016  0.8207092907189304  0.42224569401845713  1.0000
  H   H50       1.0  0.9787488334900374  0.9114471988465238  0.4753975227999092  1.0000
  H   H51       1.0  0.20635038669726677  0.4770188681485976  0.9636249678969195  1.0000
  H   H52       1.0  0.5676822944875041  0.38559874474303524  0.2006203432232709  1.0000
  H   H53       1.0  0.3380481936266407  0.6985404585707683  0.7717588834115149  1.0000
  H   H54       1.0  0.5820801027932349  0.3520658764928085  0.30528728258649107  1.0000
  C   C1        1.0  0.4697612276910093  0.6903292723530401  0.4965812092195279  1.0000
  C   C2        1.0  0.5255156871325538  0.4660100385525467  0.714066041787639  1.0000
  C   C3        1.0  0.46228082527652964  0.6206615068222733  0.24871022766107842  1.0000
  C   C4        1.0  0.5183645003338029  0.48388007122328947  0.7721222226476314  1.0000
  C   C5        1.0  0.4971942505268034  0.5420259793669402  0.21119316648982087  1.0000
  C   C6        1.0  0.45121892572711897  0.5684627422481511  0.7921417793491089  1.0000
  C   C7        1.0  0.563406386999432  0.1837196520752968  0.5074045745841433  1.0000
  C   C8        1.0  0.4597837491118  0.8072508910333693  0.49774876012267555  1.0000
  C   C9        1.0  0.3575064119079984  0.9762905157071698  0.5057573668031239  1.0000
  C   C10       1.0  0.6650547945967844  0.014250943594056797  0.5015054476123879  1.0000
  C   C11       1.0  0.3566511525549814  0.8682116485628413  0.5022069059172126  1.0000
  C   C12       1.0  0.5552450402060387  0.300746877895314  0.509135641248811  1.0000
  C   C13       1.0  0.6661821850151597  0.1218308480504788  0.5064735445327813  1.0000
  C   C14       1.0  0.5591123530560791  0.8557915881809139  0.4979148829239294  1.0000
  C   C15       1.0  0.4639174200753332  0.1359817791369835  0.5052855934441496  1.0000
  C   C16       1.0  0.5162667451563436  0.4868163792644111  0.3921633509521457  1.0000
  C   C17       1.0  0.476733436676014  0.5120933508928757  0.6119333334329227  1.0000
  C   C18       1.0  0.5626599273375986  0.9646022844922229  0.500225259951506  1.0000
  C   C19       1.0  0.45988752037342095  0.0269114096542822  0.5035444059506845  1.0000
  C   C20       1.0  0.0547618355297388  0.44093987914734345  0.5741529997911812  1.0000
  C   C21       1.0  0.9589333907018514  0.5622153628493081  0.43779224358590346  1.0000
  C   C22       1.0  0.16620303786314145  0.42169032260157724  0.5581580668525561  1.0000
  C   C23       1.0  0.5411043217342525  0.4458339798689721  0.2309176772927516  1.0000
  C   C24       1.0  0.8476371234596342  0.581665418411795  0.453893446786708  1.0000
  C   C25       1.0  0.1484431965801889  0.5045770025704143  0.4688019088861212  1.0000
  C   C26       1.0  0.8686431950141582  0.5104718584053813  0.5451145764981078  1.0000
  C   C27       1.0  0.030018655837935195  0.5175562273106068  0.4784688152287444  1.0000
  C   C28       1.0  0.9856507513047817  0.48928232642448677  0.5335682140371034  1.0000
  C   C29       1.0  0.3548833706831332  0.5462682350404433  0.8854374607770341  1.0000
  C   C30       1.0  0.5690882961886317  0.6097492074168045  0.11880994835564712  1.0000
  C   C31       1.0  0.5368854726905994  0.6321933651739258  0.8743318354267872  1.0000
  C   C32       1.0  0.3856388881979243  0.5265793895453041  0.12974313520682304  1.0000
  C   C33       1.0  0.5397535762664772  0.6322230287559307  0.9373554030033519  1.0000
  C   C34       1.0  0.3905840920228628  0.6331392465633671  0.7551852668093633  1.0000
  C   C35       1.0  0.3765428762551508  0.5375969300056056  0.06718506778587141  1.0000
  C   C36       1.0  0.4538688449825514  0.5882049309006447  0.9721875880444913  1.0000
  C   C37       1.0  0.4620272030137188  0.582435117840312  0.03245815338771511  1.0000
  C   C38       1.0  0.3608476861116898  0.5483557242346108  0.9482377263525592  1.0000
  C   C39       1.0  0.5559355011719447  0.6205752443639697  0.05643801398156972  1.0000
  C   C40       1.0  0.6294191571024612  0.6718998343972373  0.9620192296327943  1.0000
  C   C41       1.0  0.2846444090764635  0.5016466991199237  0.042797846327495406  1.0000
  C   C42       1.0  0.6375613008010105  0.6660034340027606  0.021429747480752305  1.0000
  C   C43       1.0  0.2769250901058413  0.5067948182490909  0.9833893523126775  1.0000
  C   C44       1.0  0.7762208100005736  0.5771732952885599  0.6307772455512364  1.0000
  C   C45       1.0  0.5488977612115563  0.42740766865257024  0.2893789260786975  1.0000
  C   C46       1.0  0.8026699155646213  0.5574945297960453  0.6923666997678454  1.0000
  C   C47       1.0  0.18901396960411887  0.6436868605546805  0.3995711089728857  1.0000
  C   C48       1.0  0.17496248379005416  0.6468069817097939  0.3360799528906853  1.0000
  C   C49       1.0  0.807948774428823  0.6574889641248165  0.36282720880404906  1.0000
  C   C50       1.0  0.7144554547985535  0.7217189030584307  0.3363729384556748  1.0000
  C   C51       1.0  0.2133696331152848  0.34800477853851663  0.6489926292205439  1.0000
  C   C52       1.0  0.31133053983959513  0.28624134297974985  0.673180189820286  1.0000
  C   C53       1.0  0.847335658391991  0.1633582495808383  0.46721659605685784  1.0000
  C   C54       1.0  0.9028028198518784  0.26588653183920735  0.4634193873203216  1.0000
  C   C55       1.0  0.1851300313057891  0.830574596160844  0.5539835866268065  1.0000
  C   C56       1.0  0.3979405380136498  0.6119943728174918  0.6972465663741335  1.0000
  C   C57       1.0  0.136188259291643  0.7266816961481268  0.5682933981188683  1.0000
  C   C58       1.0  0.2245589458840556  0.0846844842129073  0.5617785266577472  1.0000
  C   C59       1.0  0.1098048370193823  0.13696425922926636  0.5560498334436873  1.0000
  C   C60       1.0  0.808611845159092  0.9096444500494909  0.4506756578747045  1.0000
  C   C61       1.0  0.9209310533768259  0.8560034188390447  0.4615375126037265  1.0000
  C   C62       1.0  0.5131934043911671  0.5041271953256937  0.3283685853621706  1.0000
  C   C63       1.0  0.466559988512941  0.5289620583782552  0.6752459076589405  1.0000
  C   C64       1.0  0.471385435972195  0.5996052358615174  0.30650643138471884  1.0000
  N   N1        1.0  0.4459340886100377  0.5853968861107148  0.8527346184760917  1.0000
  N   N2        1.0  0.4843408905585562  0.5596140515647577  0.1509068065079191  1.0000
  N   N3        1.0  0.8013480905871974  0.5499117365258925  0.5059407676219223  1.0000
  N   N4        1.0  0.21277792835484632  0.45901702963411134  0.5075218142750587  1.0000
  O   O1        1.0  0.5627702026257921  0.6504900651020761  0.5125922270989349  1.0000
  O   O2        1.0  0.6491753176311335  0.6406927505739617  0.141811633621387  1.0000
  O   O3        1.0  0.6098701759503485  0.6676772180592535  0.8419752288054384  1.0000
  O   O4        1.0  0.3133506256722925  0.4896536646301398  0.16196596017101686  1.0000
  O   O5        1.0  0.8290190907033619  0.48899611862057674  0.5984595809874378  1.0000
  O   O6        1.0  0.2003960340608941  0.5344198846500915  0.41957306861015553  1.0000
  O   O7        1.0  0.7745734577781533  0.6363229076336765  0.4219890656869509  1.0000
  O   O8        1.0  0.24077394368595864  0.36681373123128946  0.5890470779105073  1.0000
  O   O9        1.0  0.7628136763716641  0.1685613966423105  0.5134924019914422  1.0000
  O   O10       1.0  0.2590441098053589  0.8189072037270506  0.5035362476118976  1.0000
  O   O11       1.0  0.2567629301344212  0.033703423003487394  0.5086455945039675  1.0000
  O   O12       1.0  0.4586265352616437  0.3413820331786255  0.522525387726489  1.0000
  O   O13       1.0  0.7646282213195904  0.9552275688130936  0.5034286346218977  1.0000
  O   O14       1.0  0.39106007221839434  0.6394291618010184  0.4803987243642568  1.0000
  O   O15       1.0  0.6417771584531665  0.35088877419839554  0.4965196008527855  1.0000
  O   O16       1.0  0.6030186576676116  0.5124860065146777  0.4143999813528368  1.0000
  O   O17       1.0  0.3884960544997043  0.5307084866977547  0.585587099327647  1.0000
  O   O18       1.0  0.4298751396552589  0.45060487848376607  0.41650500561868853  1.0000
  O   O19       1.0  0.5724509361726929  0.4832417405763607  0.5909026298539501  1.0000
  O   O20       1.0  0.2777441764019671  0.5101508750072554  0.8623261292933152  1.0000
  F   F1        1.0  0.43750995699362255  0.6767658341003154  0.34343017105732104  1.0000
  F   F2        1.0  0.5904667956734001  0.38194520003591503  0.6960449800049558  1.0000
