data_image0
_chemical_formula_structural       Ni2H40C50N4O14
_chemical_formula_sum              "Ni2 H40 C50 N4 O14"
_cell_length_a       9.850024073609067
_cell_length_b       9.744843433792894
_cell_length_c       14.439287414722916
_cell_angle_alpha    83.11787673647824
_cell_angle_beta     76.28078591707855
_cell_angle_gamma    59.637270432491405

_space_group_name_H-M_alt    "P 1"
_space_group_IT_number       1

loop_
  _space_group_symop_operation_xyz
  'x, y, z'

loop_
  _atom_site_type_symbol
  _atom_site_label
  _atom_site_symmetry_multiplicity
  _atom_site_fract_x
  _atom_site_fract_y
  _atom_site_fract_z
  _atom_site_occupancy
  Ni  Ni1       1.0  0.1056848261095308  0.9694663090499989  0.4155967183627993  1.0000
  Ni  Ni2       1.0  0.0753281863879138  0.030715167302517405  0.9156400276119214  1.0000
  H   H1        1.0  0.17749907962104308  0.9101856845069491  0.20872334115911434  1.0000
  H   H2        1.0  0.08752506244397298  0.0900618629669765  0.708784492402728  1.0000
  H   H3        1.0  0.4025322480102672  0.7188418847173638  0.09167942506491755  1.0000
  H   H4        1.0  0.12127931015754712  0.28132129323660143  0.591670364418512  1.0000
  H   H5        1.0  0.652636734860131  0.48981692965367085  0.32399495545026724  1.0000
  H   H6        1.0  0.14234522317217813  0.5104894624169775  0.8239152358848898  1.0000
  H   H7        1.0  0.4187120565560745  0.6973432673183241  0.42961012568525087  1.0000
  H   H8        1.0  0.11597580106386114  0.3030682034685484  0.9295569033977102  1.0000
  H   H9        1.0  0.5442855079464833  0.5156991210248378  0.017892092649063284  1.0000
  H   H10       1.0  0.06007649103856473  0.48428124680842916  0.5177622647254481  1.0000
  H   H11       1.0  0.7592019755774758  0.2919396253073856  0.9144468392507861  1.0000
  H   H12       1.0  0.051200788720294016  0.7080581258261986  0.41431328036554765  1.0000
  H   H13       1.0  0.055071214356630094  0.1293047847435105  0.10972401525641123  1.0000
  H   H14       1.0  0.18401972547270862  0.8709302586174203  0.6096541554716383  1.0000
  H   H15       1.0  0.8561647984578684  0.34673791531011483  0.2221488251703363  1.0000
  H   H16       1.0  0.2025436006515233  0.6535574310763792  0.7221238011921969  1.0000
  H   H17       1.0  0.4245802679974701  0.29623351731420666  0.4207478760622437  1.0000
  H   H18       1.0  0.721231542027695  0.7035391697635873  0.9208174767290346  1.0000
  H   H19       1.0  0.5660244613881033  0.33885697443803764  0.5270652648620668  1.0000
  H   H20       1.0  0.9054133842102415  0.6609352019058576  0.027088993524870382  1.0000
  H   H21       1.0  0.6782927367081725  0.8837397620097535  0.6581069271822599  1.0000
  H   H22       1.0  0.562349460194909  0.11587702487724981  0.15833689329478057  1.0000
  H   H23       1.0  0.5118932943704021  0.854075087190573  0.5617920467767802  1.0000
  H   H24       1.0  0.3663079830535593  0.14555038030643172  0.06199081047584088  1.0000
  H   H25       1.0  0.5698016787543025  0.2980756920172567  0.8179863851050655  1.0000
  H   H26       1.0  0.8683562343036965  0.7019793429766493  0.3180507896293747  1.0000
  H   H27       1.0  0.5177346292263607  0.5682362947264183  0.8479591265972817  1.0000
  H   H28       1.0  0.08645182279956742  0.4316463311839556  0.3479190056022646  1.0000
  H   H29       1.0  0.6184961633089755  0.7088597818059695  0.7225863748618622  1.0000
  H   H30       1.0  0.32750839347236393  0.29087652282281345  0.2224422525632548  1.0000
  H   H31       1.0  0.7729445858195305  0.57876464058765  0.5621718055347245  1.0000
  H   H32       1.0  0.35178992639193024  0.4208016865821804  0.061971602870897924  1.0000
  H   H33       1.0  0.7997355885812353  0.049317995342299484  0.41404231175806666  1.0000
  H   H34       1.0  0.8491846997064196  0.9507195453682585  0.9140354434017725  1.0000
  H   H35       1.0  0.8736777152544658  0.9801977539051099  0.3092366121262131  1.0000
  H   H36       1.0  0.8537295616007938  0.0198809494238361  0.8092613988918275  1.0000
  H   H37       1.0  0.007269756883552198  0.23593761560560716  0.35433017839089603  1.0000
  H   H38       1.0  0.24329905026173282  0.7642694023453487  0.8542534796652888  1.0000
  H   H39       1.0  0.19759433087018144  0.1322014870112511  0.31669580327434943  1.0000
  H   H40       1.0  0.33007697230778615  0.8678863544652132  0.8167765224381185  1.0000
  C   C1        1.0  0.2848716319725709  0.8143134213842843  0.2309759782113403  1.0000
  C   C2        1.0  0.09900264487804829  0.18595920812196454  0.7310112847497194  1.0000
  C   C3        1.0  0.41243966680598726  0.7047117365588491  0.16605250399244645  1.0000
  C   C4        1.0  0.11695681520791372  0.29551684435888603  0.6660529057345457  1.0000
  C   C5        1.0  0.5484344711057286  0.580463369627367  0.19687303531468817  1.0000
  C   C6        1.0  0.12872011870341277  0.41977748305811974  0.6968320111330257  1.0000
  C   C7        1.0  0.5509056494107724  0.5796697144486131  0.2939050437520052  1.0000
  C   C8        1.0  0.13039218468181704  0.42065717890413623  0.7938567730168699  1.0000
  C   C9        1.0  0.41971394823423924  0.6944388335765765  0.3543082215265656  1.0000
  C   C10       1.0  0.11400061591753284  0.3059164479530949  0.8542846951691274  1.0000
  C   C11       1.0  0.6781986195629769  0.45321508891786527  0.13135328003960464  1.0000
  C   C12       1.0  0.13129964677639794  0.5469502467205345  0.6312683704105596  1.0000
  C   C13       1.0  0.6554940642261612  0.4350886905421661  0.04208511730442406  1.0000
  C   C14       1.0  0.09063103889515382  0.5649145156744808  0.5419616035034737  1.0000
  C   C15       1.0  0.7745522946047458  0.3100145727272974  0.9832552921537002  1.0000
  C   C16       1.0  0.08456104954633041  0.6899865070281166  0.48314298353815843  1.0000
  C   C17       1.0  0.939608251467632  0.21776185906138323  0.09291136500122119  1.0000
  C   C18       1.0  0.1570836572302666  0.7824288100250172  0.5928606857152304  1.0000
  C   C19       1.0  0.8260996553620643  0.34134741434373694  0.1553095040867234  1.0000
  C   C20       1.0  0.16718224974240314  0.6588778140831194  0.6552635620229524  1.0000
  C   C21       1.0  0.35696643777387044  0.0581183144568271  0.42979751909760483  1.0000
  C   C22       1.0  0.41546157785558063  0.9418051478702552  0.9298668552400857  1.0000
  C   C23       1.0  0.46175459602259383  0.0718258908488423  0.48451238616545583  1.0000
  C   C24       1.0  0.5340032721753402  0.9279053727345145  0.98460170235618  1.0000
  C   C25       1.0  0.47931648727854537  0.20725329786895233  0.4735955112439214  1.0000
  C   C26       1.0  0.6870076773694364  0.7924886074503094  0.9736644663161442  1.0000
  C   C27       1.0  0.5607647899731915  0.2291087422828114  0.5320142807842244  1.0000
  C   C28       1.0  0.7903500663454607  0.7706329175178157  0.03205055389420858  1.0000
  C   C29       1.0  0.6359081221842189  0.11001781930421121  0.5971755621903014  1.0000
  C   C30       1.0  0.7463819658287959  0.889723072693478  0.09721594082708417  1.0000
  C   C31       1.0  0.6215296254665147  0.9725892866646362  0.6058632430341291  1.0000
  C   C32       1.0  0.5944889351207862  0.027103725417681804  0.10600819621272713  1.0000
  C   C33       1.0  0.5314732596853416  0.9558399972428616  0.5519213359877142  1.0000
  C   C34       1.0  0.48769489867446936  0.0438310147435246  0.05206660151488763  1.0000
  C   C35       1.0  0.7268632835331275  0.1246611668574644  0.6602877473962465  1.0000
  C   C36       1.0  0.851982171614807  0.875248641529744  0.16029488730082864  1.0000
  C   C37       1.0  0.7043200301064942  0.28522207013233475  0.6744467345950654  1.0000
  C   C38       1.0  0.9899507665055013  0.7146601213043695  0.17443001138897768  1.0000
  C   C39       1.0  0.6160220186208036  0.3594237414549468  0.7626924210442071  1.0000
  C   C40       1.0  0.9758530564645795  0.6405113582032983  0.2626907338069486  1.0000
  C   C41       1.0  0.5869046824620482  0.5110060426601424  0.7793122560690477  1.0000
  C   C42       1.0  0.09825473896492541  0.4888487087479589  0.27925421081359764  1.0000
  C   C43       1.0  0.6428920256265085  0.5908165255263143  0.7076513213394976  1.0000
  C   C44       1.0  0.23390704015898917  0.4089675448224456  0.20751298813552677  1.0000
  C   C45       1.0  0.728532401664374  0.5185535056018367  0.6192738700724193  1.0000
  C   C46       1.0  0.24725038977921082  0.48116355256492227  0.1191063197132749  1.0000
  C   C47       1.0  0.7618640061464035  0.36502056585043624  0.6023795438268139  1.0000
  C   C48       1.0  0.12714366977556305  0.6347914196824151  0.10229253918924999  1.0000
  C   C49       1.0  0.8657728331240904  0.2824311808952871  0.5100625987651242  1.0000
  C   C50       1.0  0.1484004620539565  0.7174667757917065  0.009968919712072498  1.0000
  N   N1        1.0  0.286606126117597  0.8085580233050393  0.3242911892887079  1.0000
  N   N2        1.0  0.09503655687865377  0.19176266849557075  0.8243198314137602  1.0000
  N   N3        1.0  0.9142659426945555  0.20136377017497864  0.008257856147046995  1.0000
  N   N4        1.0  0.11542817913844036  0.7987294917866381  0.5081991353698498  1.0000
  O   O1        1.0  0.27793165744217396  0.9911553441745512  0.47506683632328633  1.0000
  O   O2        1.0  0.2693962220195658  0.009134867249137802  0.9750201535216549  1.0000
  O   O3        1.0  0.3508530865540678  0.11699562720878733  0.3466076009265322  1.0000
  O   O4        1.0  0.4682425219730815  0.882778258733275  0.8467087874657083  1.0000
  O   O5        1.0  0.8033216700836334  0.009692865500113602  0.7099053352229774  1.0000
  O   O6        1.0  0.8135214015709946  0.9902635254459471  0.20981667946656302  1.0000
  O   O7        1.0  0.9308995263799459  0.13006396383367053  0.5135657784798013  1.0000
  O   O8        1.0  0.061403738806219896  0.8698722340983027  0.013574555793361786  1.0000
  O   O9        1.0  0.8830207958510029  0.3642285527273473  0.4378788199540083  1.0000
  O   O10       1.0  0.24715397929556088  0.6357173518417412  0.9376891353154521  1.0000
  O   O11       1.0  0.8966198351774746  0.9683535944216574  0.374403678215934  1.0000
  O   O12       1.0  0.8649788454767205  0.0317384550228539  0.8743873929018308  1.0000
  O   O13       1.0  0.09169727413866006  0.13777867863007032  0.3153016846614208  1.0000
  O   O14       1.0  0.22965776569049706  0.8624886319649292  0.8153533006179573  1.0000
