data_image0
_chemical_formula_structural       Hg3H12C16N4Cl6
_chemical_formula_sum              "Hg3 H12 C16 N4 Cl6"
_cell_length_a       3.8784568980366037
_cell_length_b       9.854342670055875
_cell_length_c       15.005346004900836
_cell_angle_alpha    102.75664742153742
_cell_angle_beta     91.93996998990072
_cell_angle_gamma    97.17167282643582

_space_group_name_H-M_alt    "P 1"
_space_group_IT_number       1

loop_
  _space_group_symop_operation_xyz
  'x, y, z'

loop_
  _atom_site_type_symbol
  _atom_site_label
  _atom_site_symmetry_multiplicity
  _atom_site_fract_x
  _atom_site_fract_y
  _atom_site_fract_z
  _atom_site_occupancy
  Hg  Hg1       1.0  0.5000194466721695  0.5000025836343126  0.9999989014254638  1.0000
  Hg  Hg2       1.0  8.326913118073134e-06  0.9999949841425388  0.49999938953710904  1.0000
  Hg  Hg3       1.0  1.3538645525595857e-05  4.980960639496736e-06  0.9999987047193315  1.0000
  H   H1        1.0  0.3773445967588458  0.6562053100715771  0.8348510037447454  1.0000
  H   H2        1.0  0.6226342882483991  0.3437875491238528  0.1651484365675628  1.0000
  H   H3        1.0  0.3142135858367041  0.04778763261436579  0.7136359124206424  1.0000
  H   H4        1.0  0.6857911764384285  0.952212590080002  0.28636227804003067  1.0000
  H   H5        1.0  0.549396765755695  0.20917314971648432  0.8628177492220035  1.0000
  H   H6        1.0  0.45060531079391797  0.7908270448756765  0.13718240439359863  1.0000
  H   H7        1.0  0.07904337277164332  0.7481278721560258  0.7159037169444815  1.0000
  H   H8        1.0  0.9209946055031466  0.25187864373559415  0.28409381726888944  1.0000
  H   H9        1.0  0.8067237156658322  0.5865712739079284  0.5736508807580947  1.0000
  H   H10       1.0  0.1932673998299563  0.4134277999413882  0.4263543053165364  1.0000
  H   H11       1.0  0.8366723312019104  0.32856691476863636  0.5464425683695994  1.0000
  H   H12       1.0  0.16328733428165518  0.6714301604235969  0.4535579416847143  1.0000
  C   C1        1.0  0.12282583519894527  0.3464165500214874  0.6753827759988271  1.0000
  C   C2        1.0  0.8771754476950094  0.653581523420989  0.3246183824595477  1.0000
  C   C3        1.0  0.27030929968500317  0.44020570223641176  0.7593636698290567  1.0000
  C   C4        1.0  0.7296968712253431  0.5597987105165314  0.2406358335281382  1.0000
  C   C5        1.0  0.25782646707951773  0.5858525817683782  0.7721741159927333  1.0000
  C   C6        1.0  0.7421728127985151  0.41414660773201456  0.22782318706786953  1.0000
  C   C7        1.0  0.29416312579947146  0.15974566709452628  0.7258946131747308  1.0000
  C   C8        1.0  0.7058469044614455  0.8402555261048543  0.2741084517844996  1.0000
  C   C9        1.0  0.4306868821749034  0.2507998638771624  0.8094933142078277  1.0000
  C   C10       1.0  0.5693107237849802  0.7492024270047678  0.190507767325613  1.0000
  C   C11       1.0  0.09413527291689408  0.6361249798897146  0.7056230898002909  1.0000
  C   C12       1.0  0.905859572106628  0.3638763163486017  0.2943744766617371  1.0000
  C   C13       1.0  0.9401657665527806  0.5437360608596435  0.6240795184509764  1.0000
  C   C14       1.0  0.0598442036336948  0.45625680122108747  0.3759176285274464  1.0000
  C   C15       1.0  0.9554192358856425  0.4013989989088031  0.6085442647295309  1.0000
  C   C16       1.0  0.0445700346715014  0.5985938682138395  0.3914539681272018  1.0000
  N   N1        1.0  0.41944860157334307  0.38756630066952613  0.8259493366910461  1.0000
  N   N2        1.0  0.5805334260617058  0.612435978321592  0.17405355602574699  1.0000
  N   N3        1.0  0.14118115858099145  0.2058580833254169  0.6605071385371633  1.0000
  N   N4        1.0  0.8588112340051168  0.7941368285675239  0.3394947714860095  1.0000
  Cl  Cl1       1.0  0.0006403357292583736  0.3145169045196566  0.009750426966228092  1.0000
  Cl  Cl2       1.0  0.9993692468322165  0.685490582233953  0.9902542446852678  1.0000
  Cl  Cl3       1.0  0.5972445813828672  0.8669678560065817  0.5762971547851876  1.0000
  Cl  Cl4       1.0  0.40273504640843083  0.13303447846761426  0.4237023849552273  1.0000
  Cl  Cl5       1.0  0.6111352981920104  0.9438825886151391  0.8700119340247667  1.0000
  Cl  Cl6       1.0  0.38887678767849104  0.05612392835477209  0.1299872897946983  1.0000
