data_image0
_chemical_formula_structural       Zn4H40C44S4N16O20
_chemical_formula_sum              "Zn4 H40 C44 S4 N16 O20"
_cell_length_a       4.849991790471821
_cell_length_b       16.18972370700014
_cell_length_c       23.673450740844874
_cell_angle_alpha    89.99998598209332
_cell_angle_beta     91.0848202144535
_cell_angle_gamma    90.00000623396974

_space_group_name_H-M_alt    "P 1"
_space_group_IT_number       1

loop_
  _space_group_symop_operation_xyz
  'x, y, z'

loop_
  _atom_site_type_symbol
  _atom_site_label
  _atom_site_symmetry_multiplicity
  _atom_site_fract_x
  _atom_site_fract_y
  _atom_site_fract_z
  _atom_site_occupancy
  Zn  Zn1       1.0  0.4816257400799273  0.5142520222280639  0.6805353343419256  1.0000
  Zn  Zn2       1.0  0.018373980586169104  0.014252104300133803  0.8194643471530584  1.0000
  Zn  Zn3       1.0  0.5183738502718854  0.48574820384129697  0.3194644751266225  1.0000
  Zn  Zn4       1.0  0.9816256097656435  0.985748121769227  0.18053546231548978  1.0000
  H   H1        1.0  0.8656542863635295  0.9621219997622321  0.30374727049290573  1.0000
  H   H2        1.0  0.6343451654601894  0.46212151203594953  0.19625267086900777  1.0000
  H   H3        1.0  0.13434324176161283  0.03787760863132661  0.6962525303566451  1.0000
  H   H4        1.0  0.36565442186348923  0.5378780963575667  0.8037475610015149  1.0000
  H   H5        1.0  0.06713813728613621  0.8779241181474405  0.382880846643026  1.0000
  H   H6        1.0  0.4328617892765224  0.3779242861529682  0.11711899539074719  1.0000
  H   H7        1.0  0.9328614530655701  0.12207549024615362  0.6171189628255718  1.0000
  H   H8        1.0  0.5671378010752904  0.6220759399163853  0.8828808140778008  1.0000
  H   H9        1.0  0.5825104565850339  0.75848542087369  0.260286528709308  1.0000
  H   H10       1.0  0.9174889274717942  0.2584855445037066  0.2397130240354883  1.0000
  H   H11       1.0  0.4174870745682427  0.2415148051957061  0.739712849738268  1.0000
  H   H12       1.0  0.08251066288001853  0.7415146815656543  0.7602867854330526  1.0000
  H   H13       1.0  0.3593153528380739  0.8475456285353931  0.18632918230009918  1.0000
  H   H14       1.0  0.14068249790867776  0.3475450989940185  0.31367107855663073  1.0000
  H   H15       1.0  0.6406842344856046  0.15245397985812303  0.8136710495704235  1.0000
  H   H16       1.0  0.8593170894150006  0.6524545093995043  0.6863291533138919  1.0000
  H   H17       1.0  0.6257356048417223  0.7246188608546689  0.3503886943839731  1.0000
  H   H18       1.0  0.8742637644132428  0.22461901532077636  0.14961128638147156  1.0000
  H   H19       1.0  0.37426398550998397  0.2753807475389252  0.6496111150846247  1.0000
  H   H20       1.0  0.12573582593846314  0.7753805930728178  0.850388523087126  1.0000
  H   H21       1.0  0.7072726418952158  0.6590426837437917  0.4231233160552037  1.0000
  H   H22       1.0  0.7927246423353865  0.15904286158103534  0.076876666970783  1.0000
  H   H23       1.0  0.29272694542856936  0.3409575423254907  0.5768769158152692  1.0000
  H   H24       1.0  0.2072728857898625  0.8409573644882898  0.9231231338787182  1.0000
  H   H25       1.0  0.22055704347479832  0.7370408986735698  0.5343261880475296  1.0000
  H   H26       1.0  0.27944275161665644  0.23704093693435624  0.965673878887003  1.0000
  H   H27       1.0  0.779442543848873  0.2629587097199462  0.4656740438229932  1.0000
  H   H28       1.0  0.7205609601601496  0.7629586714592237  0.0343263702216134  1.0000
  H   H29       1.0  0.21040245405398392  0.6644899217547221  0.626942081203495  1.0000
  H   H30       1.0  0.2895973158148593  0.1644899934921824  0.8730579977677946  1.0000
  H   H31       1.0  0.7895950740712651  0.335510304314603  0.3730577196460061  1.0000
  H   H32       1.0  0.7104063959619467  0.8355096149013977  0.1269422513408145  1.0000
  H   H33       1.0  0.8054675139132997  0.4957693338903085  0.5780310219792852  1.0000
  H   H34       1.0  0.6945318671154936  0.9957691560506065  0.9219691153273999  1.0000
  H   H35       1.0  0.19453001421194932  0.5042308921790168  0.42196877887021594  1.0000
  H   H36       1.0  0.3054697824348552  0.004231070018704501  0.0780311251621129  1.0000
  H   H37       1.0  0.8456556336261656  0.5632195450357642  0.4842049790418983  1.0000
  H   H38       1.0  0.6543436795176163  0.06321912254413323  0.015795028500974695  1.0000
  H   H39       1.0  0.154343956725647  0.4367806810335964  0.5157948304266498  1.0000
  H   H40       1.0  0.34565797003262594  0.9367804858494113  0.9842052119885947  1.0000
  C   C1        1.0  0.0268256064066392  0.9166635217346768  0.2961380669433566  1.0000
  C   C2        1.0  0.47317433362391625  0.4166636600113095  0.203861768663252  1.0000
  C   C3        1.0  0.973173983945067  0.0833360866589175  0.7038617425252411  1.0000
  C   C4        1.0  0.5268252567278965  0.5833365660580512  0.7961380408052888  1.0000
  C   C5        1.0  0.1389054891606776  0.8703075671043693  0.3400552260332361  1.0000
  C   C6        1.0  0.36109443475395153  0.37030709976707504  0.15994461726423026  1.0000
  C   C7        1.0  0.8610961634176988  0.1296926589650198  0.6599445920543515  1.0000
  C   C8        1.0  0.6389030933711908  0.629692508626491  0.8400551835853206  1.0000
  C   C9        1.0  0.3461138220597634  0.8121447517674909  0.3279835412828689  1.0000
  C   C10       1.0  0.153884019407883  0.3121448910279482  0.17201630304515445  1.0000
  C   C11       1.0  0.6538816438388154  0.18785485662603926  0.6720162509476353  1.0000
  C   C12       1.0  0.8461135056893385  0.6878553350412985  0.8279839202062717  1.0000
  C   C13       1.0  0.4266402912083863  0.8038765554190094  0.2712683654166526  1.0000
  C   C14       1.0  0.0733575473847878  0.3038766717559369  0.22873148028313037  1.0000
  C   C15       1.0  0.573359302171454  0.19612367065042952  0.7287310216499705  1.0000
  C   C16       1.0  0.9266420399389973  0.6961235543133455  0.7712687515873355  1.0000
  C   C17       1.0  0.30281562435971676  0.8526210614792479  0.230523030156327  1.0000
  C   C18       1.0  0.19718223117955355  0.3526205495967432  0.2694768074564209  1.0000
  C   C19       1.0  0.697183965992096  0.14737916459010592  0.769476779312221  1.0000
  C   C20       1.0  0.8028173591721527  0.6473790587968438  0.7305230020121699  1.0000
  C   C21       1.0  0.3996562022248683  0.7493085799590776  0.4227432869854013  1.0000
  C   C22       1.0  0.10034161739754671  0.24930875138608863  0.07725656776762689  1.0000
  C   C23       1.0  0.6003433881269445  0.2506916461102833  0.5772565224831467  1.0000
  C   C24       1.0  0.8996579699261248  0.7506908570074273  0.9227436641028959  1.0000
  C   C25       1.0  0.5349141874378489  0.6556905406332662  0.5008875758987799  1.0000
  C   C26       1.0  0.9650850753613087  0.15569057298139205  0.9991126178295602  1.0000
  C   C27       1.0  0.4650854029138571  0.34430906776032805  0.4991122335698179  1.0000
  C   C28       1.0  0.03491451196236991  0.8443090354121241  0.0008876140409625999  1.0000
  C   C29       1.0  0.35384067296117655  0.684364892312104  0.5426683501529226  1.0000
  C   C30       1.0  0.14616116604383222  0.18436492921160408  0.9573317341400056  1.0000
  C   C31       1.0  0.6461589173906362  0.31563533375725683  0.45733145931562547  1.0000
  C   C32       1.0  0.85384048350641  0.8156346791819403  0.0426685063495569  1.0000
  C   C33       1.0  0.3479726779822485  0.6433950671182773  0.5939845189948088  1.0000
  C   C34       1.0  0.1520270875808123  0.1433945048985309  0.9060151410744055  1.0000
  C   C35       1.0  0.6520269123695713  0.3566051589510836  0.40601529047373225  1.0000
  C   C36       1.0  0.8479745649974645  0.8566051034950919  0.09398467701323199  1.0000
  C   C37       1.0  0.6803849373900023  0.549617071812655  0.5669052082848012  1.0000
  C   C38       1.0  0.8196142915603489  0.049617123043049105  0.9330945806400165  1.0000
  C   C39       1.0  0.3196125907352467  0.45038315425667014  0.43309459256470006  1.0000
  C   C40       1.0  0.18038529879135723  0.950382485350545  0.0669052288285812  1.0000
  C   C41       1.0  0.702421456951285  0.5871390312491372  0.5149879335597376  1.0000
  C   C42       1.0  0.7975777850436074  0.08713844550486273  0.9850118491399441  1.0000
  C   C43       1.0  0.2975781334005277  0.41286119482021644  0.4850118759088105  1.0000
  C   C44       1.0  0.20242386753466954  0.9128611628887597  0.014987968947693298  1.0000
  S   S1        1.0  0.9897263739965185  0.40128222300873523  0.670433420101645  1.0000
  S   S2        1.0  0.5102750394380706  0.9012820722289449  0.8295663190982907  1.0000
  S   S3        1.0  0.0102732163552943  0.5987180030606255  0.3295663893668959  1.0000
  S   S4        1.0  0.48972455091374195  0.0987181538404158  0.1704334903702502  1.0000
  N   N1        1.0  0.10601996939790581  0.9090278248893499  0.24199363003680927  1.0000
  N   N2        1.0  0.3939779057514983  0.4090279412058778  0.2580061982175792  1.0000
  N   N3        1.0  0.8939796179257656  0.09097178350416611  0.7580066018337135  1.0000
  N   N4        1.0  0.6060216846003145  0.5909722848634831  0.7419936112509687  1.0000
  N   N5        1.0  0.4775776323479732  0.7625849140881087  0.3672308186858402  1.0000
  N   N6        1.0  0.022422254116577302  0.26258506310700364  0.1327690424835808  1.0000
  N   N7        1.0  0.5224219580038395  0.23741531198125196  0.6327689907827008  1.0000
  N   N8        1.0  0.977577333207208  0.7374151629622789  0.8672311893868851  1.0000
  N   N9        1.0  0.5613926083843738  0.6883526274106871  0.44785679536422407  1.0000
  N   N10       1.0  0.9386067482624016  0.18835220118147333  0.05214319141811069  1.0000
  N   N11       1.0  0.43860698196743897  0.3116475986586735  0.552143014104324  1.0000
  N   N12       1.0  0.0613949043158684  0.8116474072121492  0.9478566266695266  1.0000
  N   N13       1.0  0.5047430569213348  0.5765989923294086  0.6067326287041013  1.0000
  N   N14       1.0  0.9952582375799962  0.0765996812172034  0.893268009167052  1.0000
  N   N15       1.0  0.4952565304022373  0.4233999983883408  0.39326760316647114  1.0000
  N   N16       1.0  0.004743411970352402  0.9234005448521149  0.10673223132246787  1.0000
  O   O1        1.0  0.21191627106798455  0.7863314404561947  0.4462660522703103  1.0000
  O   O2        1.0  0.2880815614255782  0.286331626424385  0.0537337963403317  1.0000
  O   O3        1.0  0.7880812540291304  0.2136681679372856  0.5537341709811656  1.0000
  O   O4        1.0  0.7119200911526989  0.7136679819692378  0.9462660217473059  1.0000
  O   O5        1.0  0.10685988981612843  0.4787047725482411  0.6984579504979251  1.0000
  O   O6        1.0  0.3931399892907663  0.97870526196013  0.8015420763426917  1.0000
  O   O7        1.0  0.8931376383090142  0.5212948358453176  0.3015418503516258  1.0000
  O   O8        1.0  0.60686166328761  0.0212949641092592  0.1984577417449032  1.0000
  O   O9        1.0  0.09186393583414801  0.32604682441995436  0.6977384332298654  1.0000
  O   O10       1.0  0.40813795242709006  0.8260466963876711  0.802261627556966  1.0000
  O   O11       1.0  0.908135651489637  0.6739534016493282  0.3022617986406004  1.0000
  O   O12       1.0  0.5918636971231521  0.1739529120058805  0.19773861293260342  1.0000
  O   O13       1.0  0.0568626101934626  0.4026973138912382  0.609444776561503  1.0000
  O   O14       1.0  0.44313724248914355  0.9026977730775485  0.8905552628893288  1.0000
  O   O15       1.0  0.9431369801582434  0.5973022945023558  0.3905550329070948  1.0000
  O   O16       1.0  0.5568623448346416  0.09730245299173391  0.1094449689811441  1.0000
  O   O17       1.0  0.6815665430788159  0.4082916014409862  0.6768089153728951  1.0000
  O   O18       1.0  0.8184328075381303  0.9082920806686304  0.8231912364469594  1.0000
  O   O19       1.0  0.3184330442448626  0.5917080069525296  0.3231913164976277  1.0000
  O   O20       1.0  0.1815667828136824  0.09170814540073023  0.17680857302158157  1.0000
