data_image0
_chemical_formula_structural       Cd4H40C40N32O28
_chemical_formula_sum              "Cd4 H40 C40 N32 O28"
_cell_length_a       8.611791269083614
_cell_length_b       13.57944545335085
_cell_length_c       15.066121564603991
_cell_angle_alpha    107.02470488348345
_cell_angle_beta     90.00018160767011
_cell_angle_gamma    90.00039350647114

_space_group_name_H-M_alt    "P 1"
_space_group_IT_number       1

loop_
  _space_group_symop_operation_xyz
  'x, y, z'

loop_
  _atom_site_type_symbol
  _atom_site_label
  _atom_site_symmetry_multiplicity
  _atom_site_fract_x
  _atom_site_fract_y
  _atom_site_fract_z
  _atom_site_occupancy
  Cd  Cd1       1.0  0.6961028540575568  0.9992351133072289  0.24146971991625327  1.0000
  Cd  Cd2       1.0  0.19607541224158348  0.5007684153069292  0.758527599769188  1.0000
  Cd  Cd3       1.0  0.3039015782445702  0.0007690721280226915  0.7585241617104119  1.0000
  Cd  Cd4       1.0  0.8039220528870317  0.49923314438146354  0.24147882014418803  1.0000
  H   H1        1.0  0.3846569850745213  0.7148993661616245  0.9849127036158196  1.0000
  H   H2        1.0  0.8846379458373052  0.7850982347374114  0.015083956997358412  1.0000
  H   H3        1.0  0.6153532532478394  0.28510782033164617  0.015085342404908917  1.0000
  H   H4        1.0  0.1153560356476504  0.21489644235178673  0.9849185333860859  1.0000
  H   H5        1.0  0.2197390500115333  0.7538294359921662  0.05846816773305359  1.0000
  H   H6        1.0  0.7197232234030367  0.746164838244667  0.9415325645760576  1.0000
  H   H7        1.0  0.7802618987172211  0.2461769804814296  0.9415296614700424  1.0000
  H   H8        1.0  0.28026843568461857  0.2538306561945091  0.0584681642998532  1.0000
  H   H9        1.0  0.2993921364395717  0.8067661907423089  0.20456797775351296  1.0000
  H   H10       1.0  0.7993691675103989  0.6932371571209828  0.7954281528560045  1.0000
  H   H11       1.0  0.7006111346527746  0.19323647048781112  0.7954248108318893  1.0000
  H   H12       1.0  0.20062829758153813  0.30675904417961425  0.2045754305725964  1.0000
  H   H13       1.0  0.42761549502166923  0.7976733551048412  0.3492837633762847  1.0000
  H   H14       1.0  0.9275930370993422  0.7023391234019628  0.6507165011828634  1.0000
  H   H15       1.0  0.5723912596826252  0.20232996561880162  0.6507138580635967  1.0000
  H   H16       1.0  0.0724137175972928  0.29766018947654527  0.34928663059906034  1.0000
  H   H17       1.0  0.8729721921252462  0.09367776076708619  0.443192932127026  1.0000
  H   H18       1.0  0.3729539502724393  0.40633952159534903  0.5568117629282839  1.0000
  H   H19       1.0  0.12702411181052747  0.9063302746192292  0.5568020334962327  1.0000
  H   H20       1.0  0.6270435148343694  0.5936540855516199  0.4432030399282638  1.0000
  H   H21       1.0  0.5459108192958907  0.8232560921725065  0.5032590155000136  1.0000
  H   H22       1.0  0.04590136527627921  0.6767475218980366  0.49673274156374  1.0000
  H   H23       1.0  0.45409245176771407  0.17674276644623885  0.4967307107694837  1.0000
  H   H24       1.0  0.9541111954119329  0.3232501720708782  0.5032732537999678  1.0000
  H   H25       1.0  0.8843220013422338  0.0660719083311747  0.5995864717866725  1.0000
  H   H26       1.0  0.38432299172364986  0.43394155381318467  0.400418496245628  1.0000
  H   H27       1.0  0.1156673354100306  0.9339360481002713  0.4004117910010336  1.0000
  H   H28       1.0  0.6156849241243731  0.5660451549849982  0.599593036539595  1.0000
  H   H29       1.0  0.7196699826616993  0.9254563824546126  0.630081495887673  1.0000
  H   H30       1.0  0.21967152618229588  0.5745525845025057  0.36992071771678786  1.0000
  H   H31       1.0  0.2803274824475395  0.0745445493240808  0.3699187723066188  1.0000
  H   H32       1.0  0.7803456792622184  0.425438132165887  0.630085304741975  1.0000
  H   H33       1.0  0.4550225791406958  0.845472261140202  0.879785468356076  1.0000
  H   H34       1.0  0.9550200733475691  0.6545218855204241  0.12020968495241402  1.0000
  H   H35       1.0  0.5449783695403028  0.15452645538736215  0.120210192826562  1.0000
  H   H36       1.0  0.04497390812937141  0.3454720531485975  0.8797912697585275  1.0000
  H   H37       1.0  0.0041461648031387  0.9697762251172789  0.9054775223178668  1.0000
  H   H38       1.0  0.5041421653703041  0.5302215051364386  0.09452378739751317  1.0000
  H   H39       1.0  0.995859428711917  0.0302302703049122  0.09451700971688842  1.0000
  H   H40       1.0  0.4958494937588043  0.4697801176851258  0.905479994765223  1.0000
  C   C1        1.0  0.3206403166993894  0.7816354686594096  0.0287490051309548  1.0000
  C   C2        1.0  0.8206336292858084  0.7183571351059327  0.9712474587520319  1.0000
  C   C3        1.0  0.679354826014084  0.2183670820382844  0.9712483994874006  1.0000
  C   C4        1.0  0.17936383579819898  0.28163751041824264  0.028756350507713115  1.0000
  C   C5        1.0  0.5090773268952092  0.8531259469952628  0.334895160711362  1.0000
  C   C6        1.0  0.009064934693007802  0.6468810182198724  0.6651100860315396  1.0000
  C   C7        1.0  0.49092013822565417  0.1468724222042326  0.6651150080404236  1.0000
  C   C8        1.0  0.9909429812139405  0.3531149147263263  0.33490470781345755  1.0000
  C   C9        1.0  0.4332422669990663  0.8418681882352033  0.10287581650347027  1.0000
  C   C10       1.0  0.9332368586792584  0.6581289050172147  0.8971207903593312  1.0000
  C   C11       1.0  0.5667505533474823  0.15813896663662766  0.8971235483584864  1.0000
  C   C12       1.0  0.06675712281065668  0.34186490735410763  0.10288543983342896  1.0000
  C   C13       1.0  0.8024999272145054  0.034418944480378896  0.45920454287310264  1.0000
  C   C14       1.0  0.30248689581338073  0.46559630691776727  0.5408040981624822  1.0000
  C   C15       1.0  0.19750218270979053  0.9655858688582981  0.5407954904687601  1.0000
  C   C16       1.0  0.697515214095688  0.5343996733743951  0.45920871736709773  1.0000
  C   C17       1.0  0.6162970849979601  0.9070196140004755  0.4082594997260502  1.0000
  C   C18       1.0  0.11628140038426692  0.5929873495355337  0.5917379767644135  1.0000
  C   C19       1.0  0.38370502489443226  0.0929806109450055  0.5917379139330805  1.0000
  C   C20       1.0  0.8837195483114186  0.40701040755088524  0.40826538083890546  1.0000
  C   C21       1.0  0.6188727204146571  0.8845971463969206  0.4930398378405557  1.0000
  C   C22       1.0  0.11886264795548837  0.6154083226452728  0.5069558948273638  1.0000
  C   C23       1.0  0.3811328730558827  0.11540161750482271  0.5069538450441939  1.0000
  C   C24       1.0  0.8811475903292062  0.38458779975374563  0.4930509857988028  1.0000
  C   C25       1.0  0.8086091307017044  0.018238936212789297  0.5465152869539622  1.0000
  C   C26       1.0  0.3086016299913226  0.4817718387266581  0.4534874577315763  1.0000
  C   C27       1.0  0.1913894956091156  0.9817644160633351  0.453481015601824  1.0000
  C   C28       1.0  0.691400479873046  0.5182180447575391  0.5465209856407256  1.0000
  C   C29       1.0  0.7171709944835101  0.9409298461998787  0.5631202420249082  1.0000
  C   C30       1.0  0.21716690958027846  0.5590798772446489  0.4368821799867533  1.0000
  C   C31       1.0  0.2828334378269091  0.059072625586829006  0.436880459785165  1.0000
  C   C32       1.0  0.7828386838942335  0.44091231623275456  0.5631269137975323  1.0000
  C   C33       1.0  0.3382073529391931  0.8693956097035808  0.9034263412124446  1.0000
  C   C34       1.0  0.8382160747866437  0.6305971363091485  0.09656820333722037  1.0000
  C   C35       1.0  0.661791273338018  0.1306039873228002  0.09656492072175381  1.0000
  C   C36       1.0  0.16179532468845537  0.3693998823853021  0.9034336186111318  1.0000
  C   C37       1.0  0.107144290014439  0.9293580664223525  0.9171466168350263  1.0000
  C   C38       1.0  0.6071383501034264  0.5706355367949455  0.08285637541781202  1.0000
  C   C39       1.0  0.8928613035052136  0.0706508337069209  0.08284460899450612  1.0000
  C   C40       1.0  0.3928486642203665  0.4293621097433656  0.9171515982087115  1.0000
  N   N1        1.0  0.7092444221963062  0.9800084693680943  0.39153964616414066  1.0000
  N   N2        1.0  0.20922802534299484  0.520002814385812  0.6084605450922922  1.0000
  N   N3        1.0  0.29075420410811154  0.019994128700638197  0.6084557801543795  1.0000
  N   N4        1.0  0.7907671173741734  0.4799956179562627  0.3915469859146866  1.0000
  N   N5        1.0  0.5122565967898822  0.8734247977814603  0.25654274125923143  1.0000
  N   N6        1.0  0.012233937516747097  0.6265810392618932  0.7434455966497852  1.0000
  N   N7        1.0  0.48774435189525883  0.1265804102343893  0.7434408062000131  1.0000
  N   N8        1.0  0.9877646887670437  0.37341767725940406  0.2565500645289589  1.0000
  N   N9        1.0  0.2640811066847206  0.8424370014258783  0.9711237365102221  1.0000
  N   N10       1.0  0.7640781608574015  0.657553065939517  0.02886859001130662  1.0000
  N   N11       1.0  0.7359163583716325  0.15755872983714878  0.028867100847023194  1.0000
  N   N12       1.0  0.235912337034712  0.3424440316345708  0.9711299347258446  1.0000
  N   N13       1.0  0.4100358592059123  0.828107771217283  0.18842472163943577  1.0000
  N   N14       1.0  0.9100104179371088  0.6718977297794949  0.811571554401823  1.0000
  N   N15       1.0  0.5899697343315821  0.17190095525265287  0.811573757977591  1.0000
  N   N16       1.0  0.08998472476402239  0.3280992257222195  0.18843290526015727  1.0000
  N   N17       1.0  0.24110233195644074  0.924890013080926  0.8681344615611691  1.0000
  N   N18       1.0  0.7411036620662016  0.5751044554783037  0.1318630452854777  1.0000
  N   N19       1.0  0.7589044227204552  0.0751119413128478  0.1318554724871248  1.0000
  N   N20       1.0  0.2588903194299234  0.4248917458128929  0.8681405381372899  1.0000
  N   N21       1.0  0.5924095398470612  0.2036183741686344  0.34543875781199074  1.0000
  N   N22       1.0  0.09244517727991312  0.29636788119555035  0.6545673083865182  1.0000
  N   N23       1.0  0.40759489244091895  0.7963818665703284  0.6545579964158108  1.0000
  N   N24       1.0  0.9075569326224838  0.7036297969579408  0.3454393463948763  1.0000
  N   N25       1.0  0.0070665728183243  0.8730611834446191  0.21079945285391233  1.0000
  N   N26       1.0  0.5070579415307608  0.6269399109248538  0.789191523462506  1.0000
  N   N27       1.0  0.9929332146624504  0.1269375488670264  0.7891955488915556  1.0000
  N   N28       1.0  0.49293952357208337  0.3730602666464548  0.21080786849451272  1.0000
  N   N29       1.0  0.11613767170027961  0.8803906068192334  0.9814129340429859  1.0000
  N   N30       1.0  0.6161365795490995  0.6195993528653928  0.018582410032948457  1.0000
  N   N31       1.0  0.8838609545895437  0.11961213333441377  0.018576557358493114  1.0000
  N   N32       1.0  0.3838562407770779  0.38040146839027505  0.9814224742001372  1.0000
  O   O1        1.0  0.5416090346355346  0.8925500925238765  0.08471020380828533  1.0000
  O   O2        1.0  0.0416021518583776  0.6074536719876775  0.9152742850375687  1.0000
  O   O3        1.0  0.45837449615524417  0.10746572171004937  0.9152836326378662  1.0000
  O   O4        1.0  0.9583871848400919  0.392542560865401  0.08472797950695116  1.0000
  O   O5        1.0  0.5012108097395186  0.132227966532426  0.2977874021140964  1.0000
  O   O6        1.0  0.0012184454028201003  0.36775045953548613  0.7022010229877652  1.0000
  O   O7        1.0  0.4987959449344074  0.8677715673670503  0.7022064975746504  1.0000
  O   O8        1.0  0.9987859869063344  0.6322487586134784  0.29780606540162324  1.0000
  O   O9        1.0  0.0549352504987652  0.9627969082768927  0.2480607528129326  1.0000
  O   O10       1.0  0.554928927570991  0.5372051355996063  0.7519338981097548  1.0000
  O   O11       1.0  0.9450668593791179  0.03720264139726479  0.7519324874327963  1.0000
  O   O12       1.0  0.4450708599371751  0.4627949630419081  0.24806879102729346  1.0000
  O   O13       1.0  0.7382919737787076  0.1859642953101073  0.3410848998275  1.0000
  O   O14       1.0  0.23831621515834914  0.31405161633369977  0.6589138510933025  1.0000
  O   O15       1.0  0.2617147809015208  0.814036810153006  0.6589081145948796  1.0000
  O   O16       1.0  0.7616847335103005  0.685941504997892  0.3410888651329671  1.0000
  O   O17       1.0  0.8653570737009347  0.8568910556240114  0.18407771012686433  1.0000
  O   O18       1.0  0.3653500663887995  0.6431081705433355  0.8159114061266663  1.0000
  O   O19       1.0  0.1346415525923135  0.14311001824273012  0.8159166231523329  1.0000
  O   O20       1.0  0.6346473987060224  0.3568912686077894  0.1840864501578565  1.0000
  O   O21       1.0  0.09505477458931472  0.7949397976872561  0.19778440923750656  1.0000
  O   O22       1.0  0.5950470658235859  0.705064097502664  0.8022068532973776  1.0000
  O   O23       1.0  0.9049426905007322  0.2050588714692694  0.8022132302449665  1.0000
  O   O24       1.0  0.4049503992743979  0.29493612743027603  0.19779056035396544  1.0000
  O   O25       1.0  0.5380846075132908  0.2867339926632795  0.3949613681401658  1.0000
  O   O26       1.0  0.0381562368977555  0.21322666660839926  0.6050652744444919  1.0000
  O   O27       1.0  0.4619198247573023  0.7132623349538251  0.6050369398183123  1.0000
  O   O28       1.0  0.9618389058177002  0.7867725988771281  0.39493983562362445  1.0000
