data_image0
_chemical_formula_structural       CdP2H56C36N8O10
_chemical_formula_sum              "Cd1 P2 H56 C36 N8 O10"
_cell_length_a       8.606990924796698
_cell_length_b       8.85407116332244
_cell_length_c       14.287282875418814
_cell_angle_alpha    91.4338713969848
_cell_angle_beta     92.71210133084176
_cell_angle_gamma    103.13155004609308

_space_group_name_H-M_alt    "P 1"
_space_group_IT_number       1

loop_
  _space_group_symop_operation_xyz
  'x, y, z'

loop_
  _atom_site_type_symbol
  _atom_site_label
  _atom_site_symmetry_multiplicity
  _atom_site_fract_x
  _atom_site_fract_y
  _atom_site_fract_z
  _atom_site_occupancy
  Cd  Cd1       1.0  5.934073782762692e-07  0.5000007983859688  9.93748798955954e-08  1.0000
  P   P1        1.0  0.8605990848144672  0.38099880339719056  0.20790652077555188  1.0000
  P   P2        1.0  0.13939851685131538  0.6189994733840364  0.7920935873720648  1.0000
  H   H1        1.0  0.07830484871350758  0.07114054415929869  0.23282520083338196  1.0000
  H   H2        1.0  0.9216950845588272  0.9288577556538085  0.7671749739069323  1.0000
  H   H3        1.0  0.2561139953646006  0.17253503681749285  0.29572692079145907  1.0000
  H   H4        1.0  0.7438852963444161  0.8274655753447817  0.7042739680383148  1.0000
  H   H5        1.0  0.1704990862505227  0.264348422052457  0.20320259847401445  1.0000
  H   H6        1.0  0.8294987779584418  0.7356510181194266  0.7967982333616417  1.0000
  H   H7        1.0  0.920427612310405  0.1779068538036981  0.4576503696107748  1.0000
  H   H8        1.0  0.07957089346187728  0.8220902740190184  0.5423497481354287  1.0000
  H   H9        1.0  0.1034351594193055  0.1172738445188912  0.4480067505991839  1.0000
  H   H10       1.0  0.8965641314433199  0.8827267647271739  0.5519934382403091  1.0000
  H   H11       1.0  0.9299345957213275  0.022542867540593595  0.37890033219684927  1.0000
  H   H12       1.0  0.07006533755100723  0.9774554322725139  0.6210998425434723  1.0000
  H   H13       1.0  0.16647987375374382  0.4884257435510194  0.31534353014392014  1.0000
  H   H14       1.0  0.8335179896088221  0.5115736937046548  0.6846566017014621  1.0000
  H   H15       1.0  0.24033577601687736  0.39826156257193895  0.41247231578457627  1.0000
  H   H16       1.0  0.759662729755405  0.6017355652507773  0.5875278019616272  1.0000
  H   H17       1.0  0.055858387559830185  0.45684647507023607  0.4183891595815437  1.0000
  H   H18       1.0  0.9441392149523578  0.5431518046272001  0.5816116485563538  1.0000
  H   H19       1.0  0.5831940900033032  0.31975235315059075  0.3314588415880379  1.0000
  H   H20       1.0  0.4168052008593222  0.6802482560954811  0.6685413472514551  1.0000
  H   H21       1.0  0.5334260312648524  0.4554384239228071  0.412086196366843  1.0000
  H   H22       1.0  0.4665755928971221  0.5445622141875576  0.5879154590459094  1.0000
  H   H23       1.0  0.7230932406151779  0.40655878630836634  0.4241763531372554  1.0000
  H   H24       1.0  0.2769069552003386  0.5934406768954045  0.5758245452911053  1.0000
  H   H25       1.0  0.6249790511200289  0.6753481942405059  0.18920264208813348  1.0000
  H   H26       1.0  0.3750193381752993  0.3246535727126981  0.8107996371236151  1.0000
  H   H27       1.0  0.47057047444582173  0.6060272341816173  0.2665913732226527  1.0000
  H   H28       1.0  0.529429081499174  0.39397454720374  0.7334116392757222  1.0000
  H   H29       1.0  0.536398981223762  0.47286902385910407  0.1906778641842591  1.0000
  H   H30       1.0  0.46359850396506624  0.5271338920526104  0.8093244054288956  1.0000
  H   H31       1.0  0.8558702406579782  0.6995702481598441  0.41861779166141827  1.0000
  H   H32       1.0  0.14413190435836037  0.3004327021508074  0.5813818111760227  1.0000
  H   H33       1.0  0.6643571757420543  0.7441197075304513  0.4047507773387337  1.0000
  H   H34       1.0  0.33564470927029794  0.2558820881381648  0.5952502017815033  1.0000
  H   H35       1.0  0.8093810831256291  0.8048450464532663  0.32043547274437145  1.0000
  H   H36       1.0  0.1906191109970905  0.19515441091808577  0.6795640257034279  1.0000
  H   H37       1.0  0.9921821189862285  0.15737263742762045  0.8896343217498949  1.0000
  H   H38       1.0  0.007817695269956475  0.8426302927673531  0.11036591448512206  1.0000
  H   H39       1.0  0.15893294057859464  0.955523423087577  0.8896196868523274  1.0000
  H   H40       1.0  0.841067776091286  0.0444783523164674  0.11037915900072187  1.0000
  H   H41       1.0  0.49774700305668057  0.26138638496114897  0.08260373530215047  1.0000
  H   H42       1.0  0.5022546177196929  0.7386142414843915  0.9173951201494855  1.0000
  H   H43       1.0  0.32316428274682346  0.4535444705915096  0.06831282125446587  1.0000
  H   H44       1.0  0.6768373388759485  0.5464561587702332  0.9316867341874511  1.0000
  H   H45       1.0  0.2739839880742991  0.7603867912349499  0.08486418470384649  1.0000
  H   H46       1.0  0.7260171101549132  0.2396115171778987  0.9151353233425393  1.0000
  H   H47       1.0  0.27698890185191516  0.7217324799981525  0.9734657924594283  1.0000
  H   H48       1.0  0.7230112922708045  0.2782669773731996  0.026533705988377686  1.0000
  H   H49       1.0  0.4630884496697334  0.9708230242514942  0.8258924417927599  1.0000
  H   H50       1.0  0.5369103169529338  0.02917526112946689  0.17410699966092835  1.0000
  H   H51       1.0  0.377460912741526  0.9179401726526492  0.6584858544167744  1.0000
  H   H52       1.0  0.6225390196844103  0.0820581242442557  0.3415136203332664  1.0000
  H   H53       1.0  0.8141271959701298  0.23712737007781468  0.5906570867211653  1.0000
  H   H54       1.0  0.18587480805837225  0.762869795208935  0.40934383090437604  1.0000
  H   H55       1.0  0.876465245196883  0.29095328735436954  0.7633111143252689  1.0000
  H   H56       1.0  0.12353559218194472  0.7090438635002341  0.23668907001363945  1.0000
  C   C1        1.0  0.043610662342104006  0.2491336991394277  0.3313377689586544  1.0000
  C   C2        1.0  0.9563878434301781  0.7508634286832885  0.6686623487875493  1.0000
  C   C3        1.0  0.1434586307279773  0.18567448241329026  0.261169041330568  1.0000
  C   C4        1.0  0.8565403984378647  0.8143249663583274  0.7388311238111596  1.0000
  C   C5        1.0  0.9967128039749299  0.13510198320089026  0.4088249065680356  1.0000
  C   C6        1.0  0.0032857017973526325  0.8648951446218259  0.5911752111781678  1.0000
  C   C7        1.0  0.13179516789656984  0.4083362626070225  0.3718731990156811  1.0000
  C   C8        1.0  0.8682026963123944  0.591663177564868  0.6281276328199751  1.0000
  C   C9        1.0  0.6989715245892397  0.5599956273268062  0.31026559925687985  1.0000
  C   C10       1.0  0.3010289329230602  0.44000499635141205  0.6897353228692465  1.0000
  C   C11       1.0  0.6310628267906535  0.4270591519263717  0.3733717271945521  1.0000
  C   C12       1.0  0.3689387965249224  0.5729414832677902  0.6266292282279264  1.0000
  C   C13       1.0  0.574999756223704  0.5795721500574087  0.23418907387050322  1.0000
  C   C14       1.0  0.42499746642194947  0.42042960246364897  0.7658124720546123  1.0000
  C   C15       1.0  0.7609121852567425  0.7112924906851247  0.3672821971054886  1.0000
  C   C16       1.0  0.23908969975560984  0.2887093049834845  0.6327187820147485  1.0000
  C   C17       1.0  0.1066011528966726  0.1767955610296994  0.929517662400684  1.0000
  C   C18       1.0  0.8934007304228827  0.8232062288064981  0.07048191673899136  1.0000
  C   C19       1.0  0.1969781761802167  0.0647684887355737  0.930204593985557  1.0000
  C   C20       1.0  0.8030213738399966  0.9352332722363246  0.06979351858085887  1.0000
  C   C21       1.0  0.34132073467501556  0.095865295351885  0.9846454485380672  1.0000
  C   C22       1.0  0.6586825752982007  0.904137663558501  0.015353487605445092  1.0000
  C   C23       1.0  0.388847835246672  0.23605431031878513  0.037133599693689186  1.0000
  C   C24       1.0  0.6111526197264325  0.7639463046108118  0.9628652224615943  1.0000
  C   C25       1.0  0.2916442522419517  0.3410791654951169  0.03081480007294599  1.0000
  C   C26       1.0  0.708357631924002  0.6589226272572899  0.9691854790570102  1.0000
  C   C27       1.0  0.5378733391635676  0.0313940903651684  0.7725638498491774  1.0000
  C   C28       1.0  0.4621265932623758  0.9686042065317367  0.22743562490086328  1.0000
  C   C29       1.0  0.4903595616243876  0.998709137500107  0.6784851161904227  1.0000
  C   C30       1.0  0.5096427015617023  0.0012891795124687984  0.3215137251620347  1.0000
  C   C31       1.0  0.59192196239718  0.07253623826377259  0.6110542453748448  1.0000
  C   C32       1.0  0.4080782317255397  0.9274632191075792  0.3889452530729612  1.0000
  C   C33       1.0  0.7337862682120287  0.177746590511525  0.6415443423918672  1.0000
  C   C34       1.0  0.2662157341236835  0.8222505689428061  0.3584551752531126  1.0000
  C   C35       1.0  0.7689493384607289  0.20595908414456687  0.7375507667984846  1.0000
  C   C36       1.0  0.23105123722131538  0.7940369062355827  0.2624493938426652  1.0000
  N   N1        1.0  0.15322481934818197  0.31259655974177747  0.978305805022323  1.0000
  N   N2        1.0  0.8467756373177195  0.6874040610202383  0.021694417113522484  1.0000
  N   N3        1.0  0.4282249278913071  0.9780037892635534  0.9844290457861218  1.0000
  N   N4        1.0  0.5717760496289586  0.021999143698735693  0.015569123774405096  1.0000
  N   N5        1.0  0.6734764606090167  0.13368692811599905  0.8024816482655976  1.0000
  N   N6        1.0  0.3265243767698109  0.8663102227385977  0.19751853607331063  1.0000
  N   N7        1.0  0.5633588909189059  0.049681213310670096  0.5124176824749042  1.0000
  N   N8        1.0  0.4366422073103066  0.9503170951021715  0.4875818255714888  1.0000
  O   O1        1.0  0.010679370511382982  0.43827977426218456  0.155550880981238  1.0000
  O   O2        1.0  0.9893208244577352  0.5617196860253767  0.8444493174568419  1.0000
  O   O3        1.0  0.7083463025487473  0.3020820104272558  0.15430243582775197  1.0000
  O   O4        1.0  0.29165298831387787  0.6979185988188163  0.8456977530117411  1.0000
  O   O5        1.0  0.8426274053283151  0.5339047435014804  0.2669684005034369  1.0000
  O   O6        1.0  0.1573730496447823  0.4660958714281093  0.7330304216518468  1.0000
  O   O7        1.0  0.890003228709034  0.25724726798361525  0.28458037355019167  1.0000
  O   O8        1.0  0.10999580045680799  0.7427521807880098  0.715419791591536  1.0000
  O   O9        1.0  0.2407892914960428  0.6784962837232412  0.03406691524246239  1.0000
  O   O10       1.0  0.7592134959300055  0.32150435715444553  0.9659326734958069  1.0000
