data_image0
_chemical_formula_structural       Zn4H48C56N8O20
_chemical_formula_sum              "Zn4 H48 C56 N8 O20"
_cell_length_a       8.651711654
_cell_length_b       11.116484849017962
_cell_length_c       16.1008
_cell_angle_alpha    100.75849045688028
_cell_angle_beta     90.0
_cell_angle_gamma    90.0

_space_group_name_H-M_alt    "P 1"
_space_group_IT_number       1

loop_
  _space_group_symop_operation_xyz
  'x, y, z'

loop_
  _atom_site_type_symbol
  _atom_site_label
  _atom_site_symmetry_multiplicity
  _atom_site_fract_x
  _atom_site_fract_y
  _atom_site_fract_z
  _atom_site_occupancy
  Zn  Zn1       1.0  0.089191599403712  0.8086877737150573  0.4972116966929504  1.0000
  Zn  Zn2       1.0  0.5891816791701886  0.6913185107323017  0.002786318369629685  1.0000
  Zn  Zn3       1.0  0.9108105211015385  0.1913170263563302  0.5027864376032412  1.0000
  Zn  Zn4       1.0  0.4108135062911771  0.3086881206585232  0.9972176417357942  1.0000
  H   H1        1.0  0.5998096339237975  0.2642191063290085  0.4636883701266044  1.0000
  H   H2        1.0  0.099806839910201  0.23577871540808099  0.0363172494615469  1.0000
  H   H3        1.0  0.4001809281749757  0.7357747058257331  0.5363139378047065  1.0000
  H   H4        1.0  0.900179098825987  0.7642215063647058  0.9636821580339116  1.0000
  H   H5        1.0  0.9248470499245799  0.9547098606739155  0.5955013402429117  1.0000
  H   H6        1.0  0.4248500351142184  0.5452872671762421  0.9044973579567496  1.0000
  H   H7        1.0  0.0751562264213206  0.04529127675859  0.4044969430906846  1.0000
  H   H8        1.0  0.5751613321162097  0.454708376297944  0.09550642817373499  1.0000
  H   H9        1.0  0.8346371549104321  0.9302196257875295  0.5103204839304851  1.0000
  H   H10       1.0  0.3346308933748929  0.5697811647015101  0.9896724754474133  1.0000
  H   H11       1.0  0.1653649655948186  0.0697805959852573  0.4896758181292212  1.0000
  H   H12       1.0  0.6653585128832376  0.4302236353698774  0.0103269010230775  1.0000
  H   H13       1.0  0.43578197595812185  0.1068318509184323  0.49350515764181313  1.0000
  H   H14       1.0  0.935774367405891  0.3931577298811746  0.006500020921549792  1.0000
  H   H15       1.0  0.5642166770251933  0.8931692865140731  0.5065061685219518  1.0000
  H   H16       1.0  0.0642034804457694  0.6068369979332857  0.9935042682836439  1.0000
  H   H17       1.0  0.3409972636612295  0.097287013991199  0.7547706483903482  1.0000
  H   H18       1.0  0.8409884992683558  0.4027190486833732  0.7452428652683949  1.0000
  H   H19       1.0  0.6589967659594862  0.9027168704204697  0.24523916854927555  1.0000
  H   H20       1.0  0.1590043745117171  0.5972894140268963  0.2547625730362028  1.0000
  H   H21       1.0  0.5649864668964142  0.4113912618969024  0.6900540421267818  1.0000
  H   H22       1.0  0.0649906079267026  0.0886019815415864  0.8099447765276719  1.0000
  H   H23       1.0  0.4350191211307788  0.5886062128967211  0.3099462535056716  1.0000
  H   H24       1.0  0.9350138242598406  0.9114028185298011  0.19004838907131466  1.0000
  H   H25       1.0  0.761864271904223  0.41152769519526794  0.5979289995265233  1.0000
  H   H26       1.0  0.2618649454125688  0.0884646325835021  0.9020746698126983  1.0000
  H   H27       1.0  0.23814131612297024  0.5884679482789181  0.4020679546453039  1.0000
  H   H28       1.0  0.738122149164262  0.911534673529566  0.09792461967032297  1.0000
  H   H29       1.0  0.6239227815116024  0.5091809730746917  0.5617917450708702  1.0000
  H   H30       1.0  0.1239292342231835  0.9908179860949032  0.9382202319838412  1.0000
  H   H31       1.0  0.376073559790413  0.4908110077606054  0.43820597922550764  1.0000
  H   H32       1.0  0.8760590161942972  0.0091895609556474  0.0617850883083264  1.0000
  H   H33       1.0  0.6939725039523381  0.5996087800990964  0.4466979389639931  1.0000
  H   H34       1.0  0.1939847358671543  0.9003975043482625  0.053310634580149965  1.0000
  H   H35       1.0  0.3060088114212576  0.400385032055638  0.5532962948343537  1.0000
  H   H36       1.0  0.8060116054348541  0.09960821138284359  0.9466901020770777  1.0000
  H   H37       1.0  0.8482067241118898  0.5962904292717468  0.3142470083900264  1.0000
  H   H38       1.0  0.3482235793892983  0.9037131081964489  0.18576183220395848  1.0000
  H   H39       1.0  0.1517965522340106  0.4037134551399149  0.685758460939546  1.0000
  H   H40       1.0  0.6517924112037221  0.09627887263884818  0.8142309233952076  1.0000
  H   H41       1.0  0.030566205922703205  0.4191020324038277  0.2664353832394325  1.0000
  H   H42       1.0  0.5305747791395348  0.0809122712082342  0.2335698762239744  1.0000
  H   H43       1.0  0.9694497846703172  0.580912839924487  0.7335739865879772  1.0000
  H   H44       1.0  0.4694493023380204  0.9190751313284622  0.7664148362672021  1.0000
  H   H45       1.0  0.0559080121187776  0.2602066854334666  0.357283954524611  1.0000
  H   H46       1.0  0.555905026929139  0.239812196477196  0.14272437934958757  1.0000
  H   H47       1.0  0.9441079784742428  0.7398063555754035  0.6427189684064203  1.0000
  H   H48       1.0  0.4441063403012961  0.7601761217192191  0.85725983006688  1.0000
  C   C1        1.0  0.5186337894103872  0.2632961213306757  0.5833870624027708  1.0000
  C   C2        1.0  0.018641397962611  0.2367026160661396  0.9166137065006055  1.0000
  C   C3        1.0  0.4813567726883933  0.7367105100601563  0.41661379226690076  1.0000
  C   C4        1.0  0.9813537874987546  0.7632930274080466  0.0833863531069667  1.0000
  C   C5        1.0  0.4443502226779117  0.1490410170575771  0.5600955545628992  1.0000
  C   C6        1.0  0.944347237488273  0.3509476480823039  0.9399070216394276  1.0000
  C   C7        1.0  0.5556484303053963  0.8509573733957652  0.439909206692043  1.0000
  C   C8        1.0  0.0556456362917999  0.6490507423710383  0.060092770918309675  1.0000
  C   C9        1.0  0.3841193665375471  0.088816245916199  0.6215072220053129  1.0000
  C   C10       1.0  0.8841163813479085  0.4111724192236821  0.8784934909355611  1.0000
  C   C11       1.0  0.6158769747644685  0.9111775662385426  0.37849260157739195  1.0000
  C   C12       1.0  0.11587418075087191  0.5888250555699344  0.12150307817398699  1.0000
  C   C13       1.0  0.3903840228469093  0.1432467223458076  0.7070873935460966  1.0000
  C   C14       1.0  0.8903775701353283  0.3567547620301639  0.7929155926560439  1.0000
  C   C15       1.0  0.6096157859770486  0.856750752447816  0.2929147653478097  1.0000
  C   C16       1.0  0.1096129919634521  0.6432491223814978  0.2070842868891631  1.0000
  C   C17       1.0  0.4534686495459114  0.2602542997389392  0.7299585300066626  1.0000
  C   C18       1.0  0.953456417631088  0.2397471846370323  0.7700525303284421  1.0000
  C   C19       1.0  0.546535782640639  0.7397468376935663  0.27004969072135043  1.0000
  C   C20       1.0  0.0465364561489778  0.7602576154343551  0.2299511937521075  1.0000
  C   C21       1.0  0.5178108308693723  0.3200505421310922  0.6689717331114977  1.0000
  C   C22       1.0  0.0178068810151331  0.1799417856476779  0.83103442057633  1.0000
  C   C23       1.0  0.48218435459199327  0.6799487639819759  0.33103252506872843  1.0000
  C   C24       1.0  0.9821802135617048  0.8200556891459456  0.16896773831757628  1.0000
  C   C25       1.0  0.6885469879530534  0.4227390328139364  0.5436580787527632  1.0000
  C   C26       1.0  0.1885592198678694  0.0772496323259517  0.9563420131009577  1.0000
  C   C27       1.0  0.3114493533489622  0.5772593576394058  0.45634606141503287  1.0000
  C   C28       1.0  0.8114463681593236  0.9227414328496266  0.04365683535728949  1.0000
  C   C29       1.0  0.7897350574369923  0.43074739273004775  0.4689691333429451  1.0000
  C   C30       1.0  0.2897426659892233  0.0692605012639689  0.031038405469160993  1.0000
  C   C31       1.0  0.2102612838650231  0.5692464194246938  0.5310263426297084  1.0000
  C   C32       1.0  0.7102594545160272  0.9307433831476999  0.9689571264659873  1.0000
  C   C33       1.0  0.7751622185535183  0.5259073291903604  0.42421591212089976  1.0000
  C   C34       1.0  0.2751732946276917  0.9740925456389533  0.0757949407719423  1.0000
  C   C35       1.0  0.2248399019517322  0.47409930220047153  0.5757861847230714  1.0000
  C   C36       1.0  0.7248392284433863  0.0259012665157812  0.9241986719392585  1.0000
  C   C37       1.0  0.8612307365277374  0.5235952883959172  0.3506619434377924  1.0000
  C   C38       1.0  0.361233721717376  0.9764201526486501  0.14934967349216777  1.0000
  C   C39       1.0  0.1387667606149279  0.4764085960157445  0.6493391782817142  1.0000
  C   C40       1.0  0.6387741779911167  0.0235736595060914  0.8506482868290846  1.0000
  C   C41       1.0  0.9629054149242721  0.4265408519737477  0.32444966631094013  1.0000
  C   C42       1.0  0.46290377675131816  0.0734789455966407  0.1755550590527832  1.0000
  C   C43       1.0  0.0371036406248706  0.573470357715685  0.6755523995080637  1.0000
  C   C44       1.0  0.5370994995945821  0.926507541280337  0.8244413360818257  1.0000
  C   C45       1.0  0.9758693236264406  0.3366358866497876  0.373712268629248  1.0000
  C   C46       1.0  0.4758827113819137  0.1633765856428369  0.12628592285062007  1.0000
  C   C47       1.0  0.0241489786478724  0.6633716604007631  0.6262880829657078  1.0000
  C   C48       1.0  0.5241217208046365  0.8366108168938665  0.8737074848606666  1.0000
  C   C49       1.0  0.3139147614500502  0.9643197094413054  0.5961014031761636  1.0000
  C   C50       1.0  0.8139106204197617  0.5356847436866161  0.9039001023844477  1.0000
  C   C51       1.0  0.6860850473739077  0.0356832593106446  0.4038989794437597  1.0000
  C   C52       1.0  0.1860868767229036  0.4643264660028165  0.09610320560885548  1.0000
  C   C53       1.0  0.4502912436059816  0.3255023801073662  0.8200631797168185  1.0000
  C   C54       1.0  0.950274388328566  0.1744899476714039  0.6799404896224033  1.0000
  C   C55       1.0  0.5497189677838037  0.6744841067696115  0.17993756302784192  1.0000
  C   C56       1.0  0.0497196412921497  0.8255084427819455  0.3200555764124289  1.0000
  N   N1        1.0  0.584255486330612  0.3185424505713073  0.5217753543056887  1.0000
  N   N2        1.0  0.0842596273609004  0.181456286825501  0.9782285200334397  1.0000
  N   N3        1.0  0.4157454783339887  0.6814605181806357  0.4782262704885341  1.0000
  N   N4        1.0  0.9157320905785227  0.8185393566486779  0.021767191964080692  1.0000
  N   N5        1.0  0.8908479972788541  0.3378894248072513  0.4441566707438014  1.0000
  N   N6        1.0  0.3908498266278428  0.1621184691867725  0.0558440361096473  1.0000
  N   N7        1.0  0.1091529673857536  0.6621071343266536  0.5558372960047038  1.0000
  N   N8        1.0  0.6091522938774077  0.8378790056068509  0.9441512908256015  1.0000
  O   O1        1.0  0.23142241443915168  0.9497662138425511  0.5267731645636786  1.0000
  O   O2        1.0  0.7314171175682135  0.5502345766464813  0.9732340798186954  1.0000
  O   O3        1.0  0.7685762385441635  0.050234923589954406  0.4732319507285822  1.0000
  O   O4        1.0  0.2685757562118596  0.44976747644574283  0.026771774573148794  1.0000
  O   O5        1.0  0.3375782870259769  0.8818251782359282  0.6374853575977042  1.0000
  O   O6        1.0  0.8376076653744633  0.6181847688503197  0.862528035606239  1.0000
  O   O7        1.0  0.662414586754096  0.1181842001340669  0.362518335457878  1.0000
  O   O8        1.0  0.1624175719437346  0.381830103477995  0.13748381856977687  1.0000
  O   O9        1.0  0.4193493894728419  0.2576171997436916  0.8751691858392192  1.0000
  O   O10       1.0  0.9193487159645031  0.24238611595171727  0.6248346574749418  1.0000
  O   O11       1.0  0.5806353934226962  0.7423775280707687  0.1248301346687697  1.0000
  O   O12       1.0  0.0806545603813973  0.7576250937377083  0.37516306073400324  1.0000
  O   O13       1.0  0.4777771342031373  0.4384645728550182  0.8355934003140959  1.0000
  O   O14       1.0  0.9777521880411939  0.0615240922848699  0.6644129024111365  1.0000
  O   O15       1.0  0.5222608173621879  0.5615127574247509  0.1644105099162587  1.0000
  O   O16       1.0  0.0222372182169366  0.938472466849035  0.3355866541217266  1.0000
  O   O17       1.0  0.8922534995061895  0.8840538939957979  0.5485633680295122  1.0000
  O   O18       1.0  0.3922495496519502  0.6159404868751963  0.9514306285227788  1.0000
  O   O19       1.0  0.10775208852100353  0.1159426651381068  0.45143246198044545  1.0000
  O   O20       1.0  0.6077444799687726  0.38405607225870136  0.04856706474863159  1.0000
