data_image0
_chemical_formula_structural       Ag4H52C24N8O20
_chemical_formula_sum              "Ag4 H52 C24 N8 O20"
_cell_length_a       10.405925207743397
_cell_length_b       10.918132624595653
_cell_length_c       10.918145138449082
_cell_angle_alpha    68.59856113839477
_cell_angle_beta     66.3666468374891
_cell_angle_gamma    66.3667692483517

_space_group_name_H-M_alt    "P 1"
_space_group_IT_number       1

loop_
  _space_group_symop_operation_xyz
  'x, y, z'

loop_
  _atom_site_type_symbol
  _atom_site_label
  _atom_site_symmetry_multiplicity
  _atom_site_fract_x
  _atom_site_fract_y
  _atom_site_fract_z
  _atom_site_occupancy
  Ag  Ag1       1.0  0.1755308335385806  0.014377111281028502  0.8951225704726797  1.0000
  Ag  Ag2       1.0  0.32446938264666164  0.10487767752374572  0.9856229678825272  1.0000
  Ag  Ag3       1.0  0.824468444785829  0.9856229124926159  0.10487958170653401  1.0000
  Ag  Ag4       1.0  0.6755309342913453  0.8951223506026975  0.014376950176021879  1.0000
  H   H1        1.0  0.7357607282963842  0.7743495973181638  0.7943970090542155  1.0000
  H   H2        1.0  0.7642395613896796  0.2056038344595734  0.22564852569123428  1.0000
  H   H3        1.0  0.2642378247355026  0.22564938700032405  0.2056030565105402  1.0000
  H   H4        1.0  0.2357600869957609  0.7943982550841965  0.7743508940786159  1.0000
  H   H5        1.0  0.6700505564429735  0.7775856188368662  0.6658098300085912  1.0000
  H   H6        1.0  0.8299493439038345  0.33419156036249115  0.22241279757046337  1.0000
  H   H7        1.0  0.32994766231263384  0.2224143961902811  0.33418998641181485  1.0000
  H   H8        1.0  0.17004926167697212  0.6658105239497376  0.7775879423441625  1.0000
  H   H9        1.0  0.5455270597769016  0.5989807924340839  0.8331473256631485  1.0000
  H   H10       1.0  0.9544741031323698  0.1668532255179827  0.40101591487898974  1.0000
  H   H11       1.0  0.45447254025066286  0.4010181979946879  0.16685233373272737  1.0000
  H   H12       1.0  0.045527256610270725  0.8331468078400023  0.598982683034784  1.0000
  H   H13       1.0  0.609351650682676  0.5964851858367552  0.9629148291750982  1.0000
  H   H14       1.0  0.8906487576586603  0.0370864574323519  0.4035111048576708  1.0000
  H   H15       1.0  0.3906469023492108  0.4035137984817396  0.03708523638965733  1.0000
  H   H16       1.0  0.10935259370189968  0.9629135741681549  0.5964856651043107  1.0000
  H   H17       1.0  0.8379949472348472  0.27988774833625746  0.8682793421610031  1.0000
  H   H18       1.0  0.6620100045059801  0.13171989300607118  0.7201103599543617  1.0000
  H   H19       1.0  0.16200570397943898  0.7201112490815332  0.13172082504188865  1.0000
  H   H20       1.0  0.33799483888206117  0.8682791297315614  0.2798890965489208  1.0000
  H   H21       1.0  0.6471131612103065  0.3584099348198251  0.8771925595195571  1.0000
  H   H22       1.0  0.8528902021255931  0.12280947072407138  0.6415855834045558  1.0000
  H   H23       1.0  0.352886438817258  0.6415890556089466  0.12280709987631869  1.0000
  H   H24       1.0  0.14711291733211615  0.8771916055631267  0.3584119530271225  1.0000
  H   H25       1.0  0.7133258266628746  0.3618460462255086  0.004782512628267403  1.0000
  H   H26       1.0  0.7866784913989662  0.9952174538292696  0.6381509047782784  1.0000
  H   H27       1.0  0.2866737733646902  0.638152944203263  0.9952171467676082  1.0000
  H   H28       1.0  0.21332634779802362  0.004781568029635299  0.36184763774911494  1.0000
  H   H29       1.0  0.8331162720115374  0.5968586620521705  0.5964182969820515  1.0000
  H   H30       1.0  0.6668834318492713  0.4035819908319453  0.40313978894680275  1.0000
  H   H31       1.0  0.16688437920274884  0.40314033536561306  0.40358187022084036  1.0000
  H   H32       1.0  0.3331151211826155  0.5964169934865423  0.596860276617953  1.0000
  H   H33       1.0  0.7022595002657326  0.503854982564043  0.6491764080639018  1.0000
  H   H34       1.0  0.7977402750527673  0.3508261508308976  0.4961417735011935  1.0000
  H   H35       1.0  0.2977422021352681  0.49614402184276674  0.3508242669460132  1.0000
  H   H36       1.0  0.20225865642223795  0.6491749010151936  0.5038573876059902  1.0000
  H   H37       1.0  0.8919180953489205  0.4113657524835688  0.636557670477174  1.0000
  H   H38       1.0  0.6080817918819648  0.36344296591856556  0.5886323454982261  1.0000
  H   H39       1.0  0.10808184314596772  0.5886322081152855  0.36344315203893984  1.0000
  H   H40       1.0  0.3919174780603642  0.6365570560976009  0.41136797872919595  1.0000
  H   H41       1.0  0.8727761375605285  0.5097778913361068  0.9365335238075831  1.0000
  H   H42       1.0  0.6272239237070992  0.06346630107291419  0.49022324644391824  1.0000
  H   H43       1.0  0.12722313238180055  0.4902221306800669  0.0634668004198389  1.0000
  H   H44       1.0  0.372776731698231  0.936532697223612  0.5097778347348693  1.0000
  H   H45       1.0  0.9292313281421515  0.5985306784124304  0.7590631047859663  1.0000
  H   H46       1.0  0.5707689639324727  0.24093701051101143  0.4014703158537858  1.0000
  H   H47       1.0  0.07076760752389796  0.40147037431239607  0.24093697029710645  1.0000
  H   H48       1.0  0.42923169147285745  0.7590619877855218  0.5985307653250019  1.0000
  H   H49       1.0  0.9925367025456995  0.4132764455619125  0.8091982678329189  1.0000
  H   H50       1.0  0.5074655646832653  0.1908012850480461  0.5867229741440598  1.0000
  H   H51       1.0  0.007462567396622494  0.5867235764542542  0.19080205639451012  1.0000
  H   H52       1.0  0.49253613771773547  0.8091977193587641  0.413277700865848  1.0000
  C   C1        1.0  0.5032266560059001  0.8662674731499892  0.8282215677865069  1.0000
  C   C2        1.0  0.9967747990917176  0.17178109419513993  0.1337295581848681  1.0000
  C   C3        1.0  0.4967729482127084  0.1337315181575249  0.17177900558526465  1.0000
  C   C4        1.0  0.003225896289400551  0.8282210014589  0.8662694554161093  1.0000
  C   C5        1.0  0.6472288586952077  0.7584460630508901  0.7776692547839377  1.0000
  C   C6        1.0  0.8527717459567015  0.2223330112237178  0.24155120665414398  1.0000
  C   C7        1.0  0.3527696985277303  0.2415529221463402  0.22233172475670682  1.0000
  C   C8        1.0  0.14722756815245946  0.7776701090287047  0.7584479639713636  1.0000
  C   C9        1.0  0.6334270886361609  0.6143428416809372  0.8516583810401246  1.0000
  C   C10       1.0  0.8665738867367738  0.1483423925246825  0.3856558163835261  1.0000
  C   C11       1.0  0.36657113431049054  0.3856571742249527  0.14834234935617738  1.0000
  C   C12       1.0  0.1334285241925812  0.8516576478223216  0.6143432893372635  1.0000
  C   C13       1.0  0.7395492246324408  0.36459565876903355  0.8964955640700656  1.0000
  C   C14       1.0  0.7604547327708033  0.10350536282930281  0.6354011554126302  1.0000
  C   C15       1.0  0.2604503795861675  0.6354033325384805  0.10350500930170636  1.0000
  C   C16       1.0  0.23954872515422926  0.8964946836279779  0.3645975441392867  1.0000
  C   C17       1.0  0.8020600458350206  0.5034752378340883  0.6609108137932226  1.0000
  C   C18       1.0  0.6979402122603844  0.33909066398171467  0.4965232598722338  1.0000
  C   C19       1.0  0.1979392324893895  0.49652478593956306  0.3390913383859911  1.0000
  C   C20       1.0  0.30206010467762234  0.6609093641447287  0.5034766581863155  1.0000
  C   C21       1.0  0.9009765834038461  0.5056837525496076  0.8296941744829527  1.0000
  C   C22       1.0  0.5990240769199744  0.17030618272385573  0.49431622860427665  1.0000
  C   C23       1.0  0.09902168370963695  0.49431936159253803  0.17030540231143493  1.0000
  C   C24       1.0  0.4009776254810264  0.8296928216829542  0.5056844464056384  1.0000
  N   N1        1.0  0.11702137066310314  0.18277998869926648  0.6007514795352549  1.0000
  N   N2        1.0  0.3829788027651376  0.3992491248344264  0.817219620862247  1.0000
  N   N3        1.0  0.8829789504659474  0.8172200403059193  0.39924935249919025  1.0000
  N   N4        1.0  0.6170204629861475  0.6007508963030047  0.1827797893892864  1.0000
  N   N5        1.0  0.7703145704136463  0.4981957270370288  0.8089173850127198  1.0000
  N   N6        1.0  0.7296860492037781  0.19108391608303069  0.5018033012794803  1.0000
  N   N7        1.0  0.22968470791076367  0.5018042967366227  0.19108476716649395  1.0000
  N   N8        1.0  0.27031460620155207  0.8089150822135025  0.4981977798993073  1.0000
  O   O1        1.0  0.03608387530461241  0.1438357160025632  0.7224527615047978  1.0000
  O   O2        1.0  0.46391675456676046  0.2775475902321389  0.8561639651404537  1.0000
  O   O3        1.0  0.9639164416333943  0.8561643121238801  0.2775471565537515  1.0000
  O   O4        1.0  0.5360846051758801  0.7224524431258458  0.14383463277332717  1.0000
  O   O5        1.0  0.05811041950104825  0.24357760879917117  0.5034469553242716  1.0000
  O   O6        1.0  0.4418907230732287  0.49655228385566375  0.7564217703260498  1.0000
  O   O7        1.0  0.9418898932459216  0.7564224184485367  0.4965520487583819  1.0000
  O   O8        1.0  0.5581099239500205  0.5034467126833846  0.2435774829009533  1.0000
  O   O9        1.0  0.2523766293714473  0.16056698258694277  0.5772336755856102  1.0000
  O   O10       1.0  0.24762336575813054  0.42276664095098226  0.8394327893680826  1.0000
  O   O11       1.0  0.7476229748471612  0.8394320087205713  0.4227668977861614  1.0000
  O   O12       1.0  0.7523772854561558  0.5772323564668013  0.16056737783481637  1.0000
  O   O13       1.0  0.3857512659805452  0.8520272722015748  0.8334540045388296  1.0000
  O   O14       1.0  0.1142473450867811  0.16654763680924836  0.14797050605619694  1.0000
  O   O15       1.0  0.614246240055664  0.1479717060066434  0.16654646719479865  1.0000
  O   O16       1.0  0.8857512521119378  0.8334544457455026  0.8520284059066368  1.0000
  O   O17       1.0  0.9874548877698572  0.1411388062814609  0.0361823158325337  1.0000
  O   O18       1.0  0.512544577233378  0.9638154872210545  0.8588628550479958  1.0000
  O   O19       1.0  0.012544043705148212  0.8588622455646231  0.9638168452746501  1.0000
  O   O20       1.0  0.4874529329938824  0.03618349186589849  0.14113853066152876  1.0000
