data_image0
_chemical_formula_structural       Tm4H48C44O32
_chemical_formula_sum              "Tm4 H48 C44 O32"
_cell_length_a       5.753384378
_cell_length_b       13.265609137001514
_cell_length_c       15.5139
_cell_angle_alpha    94.49910448977755
_cell_angle_beta     90.0
_cell_angle_gamma    90.0

_space_group_name_H-M_alt    "P 1"
_space_group_IT_number       1

loop_
  _space_group_symop_operation_xyz
  'x, y, z'

loop_
  _atom_site_type_symbol
  _atom_site_label
  _atom_site_symmetry_multiplicity
  _atom_site_fract_x
  _atom_site_fract_y
  _atom_site_fract_z
  _atom_site_occupancy
  Tm  Tm1       1.0  0.440857038806385  0.36476051202282633  0.4153688082024161  1.0000
  Tm  Tm2       1.0  0.9408636107643032  0.1352367674305341  0.0846297523785111  1.0000
  Tm  Tm3       1.0  0.5591282953909413  0.6352287537709529  0.5846298916715185  1.0000
  Tm  Tm4       1.0  0.059139104507089285  0.8647691338610954  0.9153681295783116  1.0000
  H   H1        1.0  0.8737448551538449  0.280876014128502  0.3338135389024117  1.0000
  H   H2        1.0  0.3737469737329633  0.2191220214838552  0.1661844278149331  1.0000
  H   H3        1.0  0.1262509076879184  0.7191170324602467  0.6661847699865999  1.0000
  H   H4        1.0  0.6262557415384292  0.780882367489788  0.8338139972858016  1.0000
  H   H5        1.0  0.6887076787623625  0.2853418891414705  0.2571427594081753  1.0000
  H   H6        1.0  0.188709797341474  0.2146576587888731  0.2428565979149866  1.0000
  H   H7        1.0  0.3112915602942152  0.7146572067192167  0.7428565998214012  1.0000
  H   H8        1.0  0.8112929179299115  0.7853421932308109  0.7571415228677622  1.0000
  H   H9        1.0  0.8969485890309838  0.3124002825488787  0.5030813687351738  1.0000
  H   H10       1.0  0.396959398147132  0.18760229001743772  0.9969214143828751  1.0000
  H   H11       1.0  0.10304022138115698  0.6875935201988597  0.49691570170701727  1.0000
  H   H12       1.0  0.6030537457686975  0.8124036112741919  0.003082268823156709  1.0000
  H   H13       1.0  0.7916818520620693  0.4133603628243279  0.539698799587164  1.0000
  H   H14       1.0  0.29169613739303196  0.0866414535829989  0.9603019990614783  1.0000
  H   H15       1.0  0.2083052202426643  0.5866296591284481  0.4603031739226608  1.0000
  H   H16       1.0  0.7083187446302047  0.9133659600266171  0.039696628917916116  1.0000
  H   H17       1.0  0.08819504602200819  0.0361338136420244  0.3537724803311661  1.0000
  H   H18       1.0  0.588220737161393  0.46387102740126807  0.146233033278854  1.0000
  H   H19       1.0  0.9117763833160666  0.9638592329467173  0.6462296960573184  1.0000
  H   H20       1.0  0.4117802400025923  0.5361371423673376  0.8537727358359033  1.0000
  H   H21       1.0  0.8839075691598097  0.1191850243260077  0.4039863641958945  1.0000
  H   H22       1.0  0.3839288069204017  0.3808213290352711  0.0960198954367044  1.0000
  H   H23       1.0  0.11607428882270199  0.8808110468987138  0.5960185934042241  1.0000
  H   H24       1.0  0.616079122673213  0.6191868407333345  0.9039807170120964  1.0000
  H   H25       1.0  0.21055259311930288  0.5240522093403683  0.15848234506422187  1.0000
  H   H26       1.0  0.7105469983253769  0.9759494590866424  0.3415165743671835  1.0000
  H   H27       1.0  0.7894675032261487  0.47595444811025805  0.8415233226112021  1.0000
  H   H28       1.0  0.289462669375645  0.0240526614100176  0.6584797648248324  1.0000
  H   H29       1.0  0.08765623272598327  0.0977048158103528  0.5490683663706122  1.0000
  H   H30       1.0  0.5876714952209312  0.4022954882789875  0.9509361983381766  1.0000
  H   H31       1.0  0.9123343157935649  0.9022844499834264  0.45093355641954946  1.0000
  H   H32       1.0  0.4123242676208321  0.5977134376486148  0.049067687746507695  1.0000
  H   H33       1.0  0.2666882480279185  0.0051547358556405  0.4956319186849285  1.0000
  H   H34       1.0  0.766701772415459  0.494850105187659  0.004370372008871503  1.0000
  H   H35       1.0  0.7332970861694078  0.994836042256125  0.5043675272115848  1.0000
  H   H36       1.0  0.2333061571781556  0.5051573084219569  0.9956308343035117  1.0000
  H   H37       1.0  0.6109795155424607  0.7159978766138977  0.1386742280408058  1.0000
  H   H38       1.0  0.11096772926232747  0.784003791813106  0.36132533597383787  1.0000
  H   H39       1.0  0.3890388426955908  0.2840050000417591  0.8613318306195408  1.0000
  H   H40       1.0  0.8890384622238798  0.2160005971605372  0.6386698662106766  1.0000
  H   H41       1.0  0.5136837391398785  0.6918605253966562  0.2907683274088555  1.0000
  H   H42       1.0  0.013691072041211796  0.8081350937584091  0.2092276079322488  1.0000
  H   H43       1.0  0.4863120237018848  0.3081325211920927  0.7092338489796217  1.0000
  H   H44       1.0  0.9863133813375811  0.1918700513742309  0.7907670003886904  1.0000
  H   H45       1.0  0.9685533998576829  0.6360212083956753  0.0716805126678466  1.0000
  H   H46       1.0  0.4685381373627421  0.863984240826305  0.4283199495283654  1.0000
  H   H47       1.0  0.03146843459517609  0.363987717531927  0.928324018000083  1.0000
  H   H48       1.0  0.5314680541234651  0.1360163673523758  0.5716762882243173  1.0000
  C   C1        1.0  0.1580478445829314  0.4822577894763427  0.3214167899745987  1.0000
  C   C2        1.0  0.658061368970472  0.0177387338180282  0.17858365363640155  1.0000
  C   C3        1.0  0.841937489614395  0.5177360132713957  0.6785873708832852  1.0000
  C   C4        1.0  0.3419448225157353  0.9822664113146047  0.8214141776007577  1.0000
  C   C5        1.0  0.22613994034104215  0.1769827931190022  0.4001294627077954  1.0000
  C   C6        1.0  0.7261552028359899  0.3230167548113414  0.09987247294835558  1.0000
  C   C7        1.0  0.7738419176414693  0.8230072288337738  0.5998699324690548  1.0000
  C   C8        1.0  0.2738475124354025  0.6769899026392778  0.9001286826443575  1.0000
  C   C9        1.0  0.738978959281347  0.591490249135795  0.40395035063658463  1.0000
  C   C10       1.0  0.23898803029008764  0.9085046138602806  0.09604617856810187  1.0000
  C   C11       1.0  0.26100811302338656  0.4084967481810082  0.5960507754113351  1.0000
  C   C12       1.0  0.7610198993035198  0.0915020435903386  0.9039485311921636  1.0000
  C   C13       1.0  0.8102656964526531  0.5975924522097316  0.31145007402148644  1.0000
  C   C14       1.0  0.310281719891023  0.9024001423093679  0.1885469476074562  1.0000
  C   C15       1.0  0.18972311395948074  0.4023975697430444  0.6885512549050999  1.0000
  C   C16       1.0  0.6897296859173991  0.097605002823272  0.8114483052967287  1.0000
  C   C17       1.0  0.0050717974122492  0.548261395661946  0.2728676449240481  1.0000
  C   C18       1.0  0.505076631262753  0.9517342234931192  0.22713151333327627  1.0000
  C   C19       1.0  0.9949309178591434  0.4517346755627685  0.727133445176605  1.0000
  C   C20       1.0  0.4949260840086324  0.0482716777985104  0.7728676577900372  1.0000
  C   C21       1.0  0.0621512446425996  0.0907330298944089  0.41035438423872245  1.0000
  C   C22       1.0  0.5621717214597693  0.4092710549898939  0.08965043406838899  1.0000
  C   C23       1.0  0.9378306133399119  0.9092607728533366  0.5896484874526706  1.0000
  C   C24       1.0  0.43783273191903044  0.5907371147787117  0.9103514675469027  1.0000
  C   C25       1.0  0.057880714744761995  0.5621474994103721  0.18636263286690985  1.0000
  C   C26       1.0  0.5578768580582363  0.9378511443806659  0.3136380174355651  1.0000
  C   C27       1.0  0.9421289529562529  0.4378546210862879  0.8136433750737735  1.0000
  C   C28       1.0  0.4421293334279638  0.0621509761160013  0.686358321756444  1.0000
  C   C29       1.0  0.09323208128612487  0.03980269707631829  0.4943011574381869  1.0000
  C   C30       1.0  0.5932525581032877  0.4601991193310084  0.005702864126682501  1.0000
  C   C31       1.0  0.9067497766963868  0.9601873248764576  0.5057001714883924  1.0000
  C   C32       1.0  0.4067588477051345  0.5398113189145803  0.9942998342308369  1.0000
  C   C33       1.0  0.7222322944194559  0.6686555182178537  0.1756253167103736  1.0000
  C   C34       1.0  0.22222746056895196  0.8313446378911707  0.3243741458649437  1.0000
  C   C35       1.0  0.2777825876037809  0.3313473584378102  0.8243807419499731  1.0000
  C   C36       1.0  0.7777822071320699  0.1686589949234758  0.6756210055999075  1.0000
  C   C37       1.0  0.6675844594508361  0.6557924975870293  0.261647833799465  1.0000
  C   C38       1.0  0.16758831613735478  0.8442038777270326  0.23834686309481157  1.0000
  C   C39       1.0  0.3324147796057416  0.34420054900171954  0.7383543425890193  1.0000
  C   C40       1.0  0.8324178753488454  0.1558012674056073  0.7616458114763913  1.0000
  C   C41       1.0  0.9207450175337468  0.6231256729281469  0.1379488844439294  1.0000
  C   C42       1.0  0.4207384455758357  0.8768744831808775  0.3620499335481426  1.0000
  C   C43       1.0  0.0792750788117047  0.3768794722044859  0.8620547480424321  1.0000
  C   C44       1.0  0.5792694840177787  0.12312612499780332  0.6379463042045399  1.0000
  O   O1        1.0  0.1312844667372204  0.4803326086800297  0.4042867746295258  1.0000
  O   O2        1.0  0.6313032054469829  0.0196646707733379  0.09571114136815587  1.0000
  O   O3        1.0  0.8686939150304767  0.5196619502266984  0.5957148586150395  1.0000
  O   O4        1.0  0.36870472414662453  0.9803397182003124  0.904284705399604  1.0000
  O   O5        1.0  0.6130617682154806  0.518593497569519  0.4246674860714776  1.0000
  O   O6        1.0  0.1130743154390359  0.9814036339035326  0.0753349965414003  1.0000
  O   O7        1.0  0.3869166135522164  0.4813980367012434  0.5753378117939006  1.0000
  O   O8        1.0  0.8869301379397568  0.0186007550701106  0.9246582718933778  1.0000
  O   O9        1.0  0.7849171380358654  0.6651560143980007  0.45909294334362016  1.0000
  O   O10       1.0  0.2849279471520134  0.8348426293930373  0.040903839459389205  1.0000
  O   O11       1.0  0.21507862480590484  0.3348324952367888  0.5409063503938967  1.0000
  O   O12       1.0  0.7150904110860381  0.1651647842165787  0.9590922101870303  1.0000
  O   O13       1.0  0.718128622832644  0.3077294884487927  0.3184591632928714  1.0000
  O   O14       1.0  0.2181324795191699  0.192270059481551  0.18153954944704506  1.0000
  O   O15       1.0  0.2818688781165264  0.692268851252905  0.681540145217042  1.0000
  O   O16       1.0  0.7818737119670303  0.8077320610151091  0.8184580789114547  1.0000
  O   O17       1.0  0.7461138901851427  0.3464712944578565  0.5097253672825133  1.0000
  O   O18       1.0  0.2461246993012907  0.1535305219494632  0.9902754313661359  1.0000
  O   O19       1.0  0.25387492022699826  0.6535202398129059  0.4902754185001541  1.0000
  O   O20       1.0  0.7538919208293535  0.8464768916601457  0.009725130362994614  1.0000
  O   O21       1.0  0.42555300309191313  0.1831258287785644  0.43339785099509237  1.0000
  O   O22       1.0  0.9255682655868609  0.3168737191517792  0.0666027954945605  1.0000
  O   O23       1.0  0.574437545427628  0.8168626808562252  0.5665988644094425  1.0000
  O   O24       1.0  0.0744327115771242  0.6831336944578368  0.9333958324848339  1.0000
  O   O25       1.0  0.1544134619958797  0.2516270281182216  0.3558636665884691  1.0000
  O   O26       1.0  0.6544182958463907  0.2483725198121221  0.1441356907347  1.0000
  O   O27       1.0  0.8455753484162541  0.7483645061525407  0.6441364746109528  1.0000
  O   O28       1.0  0.3455826813175946  0.7516333814795075  0.8558634803886136  1.0000
  O   O29       1.0  0.3145400830370164  0.4281727613392405  0.2832090579172472  1.0000
  O   O30       1.0  0.8145501312097421  0.0718222496371439  0.21679321800415605  1.0000
  O   O31       1.0  0.6854400368380879  0.5718180167725251  0.7167942554787314  1.0000
  O   O32       1.0  0.18545258406164317  0.9281813831775025  0.7832058009601609  1.0000
