data_image0
_chemical_formula_structural       Zn4H48C56N16O16
_chemical_formula_sum              "Zn4 H48 C56 N16 O16"
_cell_length_a       8.057946016
_cell_length_b       11.601683098324695
_cell_length_c       16.622
_cell_angle_alpha    90.0
_cell_angle_beta     90.0
_cell_angle_gamma    100.11726370326475

_space_group_name_H-M_alt    "P 1"
_space_group_IT_number       1

loop_
  _space_group_symop_operation_xyz
  'x, y, z'

loop_
  _atom_site_type_symbol
  _atom_site_label
  _atom_site_symmetry_multiplicity
  _atom_site_fract_x
  _atom_site_fract_y
  _atom_site_fract_z
  _atom_site_occupancy
  Zn  Zn1       1.0  0.3531406692799166  0.9205088808310294  0.2995524004331642  1.0000
  Zn  Zn2       1.0  0.3531445364788297  0.4205071453863667  0.2004475995668358  1.0000
  Zn  Zn3       1.0  0.64685661189813  0.0794928389411282  0.7004494044038054  1.0000
  Zn  Zn4       1.0  0.6468568229692054  0.5794910721514768  0.7995530020454853  1.0000
  H   H1        1.0  0.31011668933921754  0.6384835825251542  0.2920250270725546  1.0000
  H   H2        1.0  0.31011661206144947  0.1384809715219149  0.2079749729274454  1.0000
  H   H3        1.0  0.6898751849075638  0.3615163861298498  0.7079767777644079  1.0000
  H   H4        1.0  0.6898808029099045  0.861516370457352  0.7920232222355921  1.0000
  H   H5        1.0  0.3853086643879279  0.5107317058296488  0.4235049933822665  1.0000
  H   H6        1.0  0.3853065479751692  0.01073084594357  0.0764944050054126  1.0000
  H   H7        1.0  0.6146886167901259  0.4892700139425088  0.5764962098423752  1.0000
  H   H8        1.0  0.6146927723378752  0.9892691227114341  0.9235025869329834  1.0000
  H   H9        1.0  0.4803917943370665  0.6810733784808463  0.5403537480447582  1.0000
  H   H10       1.0  0.4803921599463906  0.18107251859476753  0.9596462519552418  1.0000
  H   H11       1.0  0.5196094313176687  0.3189292168498952  0.4596474551798836  1.0000
  H   H12       1.0  0.5196130101850187  0.8189309522945507  0.0403531464324374  1.0000
  H   H13       1.0  0.7048776691780958  0.8819011252923872  0.2275327878714961  1.0000
  H   H14       1.0  0.7048865880714317  0.3819046431991993  0.272467212128504  1.0000
  H   H15       1.0  0.2951153584294843  0.1180935900111422  0.7724654072915413  1.0000
  H   H16       1.0  0.2951137518091045  0.6180944498972281  0.727533389483817  1.0000
  H   H17       1.0  0.994878706632015  0.0468887885783218  0.2480405486704385  1.0000
  H   H18       1.0  0.9948819302625154  0.5468940262572985  0.2519558416556364  1.0000
  H   H19       1.0  0.005116360110555662  0.9531041756080469  0.7519564432679573  1.0000
  H   H20       1.0  0.005117390050528987  0.4531059423977055  0.7480429551197219  1.0000
  H   H21       1.0  0.8765507484458582  0.2385774549428135  0.3075135362772201  1.0000
  H   H22       1.0  0.8765498061561273  0.7385809415046296  0.19248285404884777  1.0000
  H   H23       1.0  0.12345220725007519  0.7614172603607159  0.6924852604981382  1.0000
  H   H24       1.0  0.12344951415691702  0.2614190271503674  0.8075165443388315  1.0000
  H   H25       1.0  0.1378128510856129  0.050195773331005  0.5596570809770185  1.0000
  H   H26       1.0  0.1378155441787712  0.5501940065413464  0.9403429190229817  1.0000
  H   H27       1.0  0.86218522821639  0.9498041953239992  0.4403429190229816  1.0000
  H   H28       1.0  0.8621845742582224  0.449804210996497  0.0596606906509436  1.0000
  H   H29       1.0  0.9822761707652461  0.1874141893820749  0.6297683792564044  1.0000
  H   H30       1.0  0.9822784209713049  0.6874106714752628  0.8702286126819843  1.0000
  H   H31       1.0  0.017720667525708198  0.8125857792729293  0.37022921429431227  1.0000
  H   H32       1.0  0.017723736600679295  0.3125857949454272  0.1297719889303366  1.0000
  H   H33       1.0  0.9385521061966671  0.3712245796532088  0.5617705450607602  1.0000
  H   H34       1.0  0.9385491709150032  0.8712201861878128  0.9382276501022773  1.0000
  H   H35       1.0  0.06144867657096849  0.6287762645603721  0.438228853326919  1.0000
  H   H36       1.0  0.0614538724311657  0.1287797824671841  0.061770545060760206  1.0000
  H   H37       1.0  0.06383420042889298  0.4213967129025775  0.4261791601491964  1.0000
  H   H38       1.0  0.063826301103056  0.9213923194371888  0.07381963662615483  1.0000
  H   H39       1.0  0.9361724321571145  0.5786076335453174  0.5738214414631246  1.0000
  H   H40       1.0  0.9361774065737692  0.0786102758935527  0.9261785585368756  1.0000
  H   H41       1.0  0.469525232271387  0.874458877371339  0.4732450968595856  1.0000
  H   H42       1.0  0.4695255978807182  0.3744580174852601  0.0267555047527352  1.0000
  H   H43       1.0  0.5304732899177083  0.1255428424008187  0.5267543015280935  1.0000
  H   H44       1.0  0.53047788835255  0.6255437022869046  0.9732450968595856  1.0000
  H   H45       1.0  0.5541502775302121  0.1749777553267222  0.3181608711346443  1.0000
  H   H46       1.0  0.5541474298987977  0.674978615212801  0.181838527253035  1.0000
  H   H47       1.0  0.445851880041765  0.8250187110939677  0.681838527253035  1.0000
  H   H48       1.0  0.4458506494032051  0.3250213534422031  0.8181632775839278  1.0000
  C   C1        1.0  0.3541970975973001  0.6682175518661779  0.3514522921429446  1.0000
  C   C2        1.0  0.3541970203195319  0.1682149408629385  0.1485471062447346  1.0000
  C   C3        1.0  0.645796460547615  0.3317841679059867  0.6485489110816971  1.0000
  C   C4        1.0  0.6458008375389142  0.8317841522334888  0.8514510889183029  1.0000
  C   C5        1.0  0.3921846239982827  0.6044593761472896  0.418631331969678  1.0000
  C   C6        1.0  0.3921801593567409  0.10445413846832  0.0813692696426429  1.0000
  C   C7        1.0  0.6078133215104133  0.3955449703006053  0.5813704728672846  1.0000
  C   C8        1.0  0.6078166789342134  0.8955458301866841  0.9186277222957528  1.0000
  C   C9        1.0  0.4408213989547605  0.6878957309279983  0.4782805919865254  1.0000
  C   C10       1.0  0.44081861821135965  0.1878922443661821  0.0217188064011538  1.0000
  C   C11       1.0  0.5591788071324757  0.3121077399613199  0.5217188064011538  1.0000
  C   C12       1.0  0.5591831841237678  0.812107724288822  0.9782829984358088  1.0000
  C   C13       1.0  0.7203350538086397  0.9708832681121393  0.2496973890025274  1.0000
  C   C14       1.0  0.7203414906798857  0.4708867860189514  0.2503014077728309  1.0000
  C   C15       1.0  0.2796619182756217  0.0291123227499739  0.7503014077728309  1.0000
  C   C16       1.0  0.27965884920065054  0.5291123070774759  0.7496991938394899  1.0000
  C   C17       1.0  0.8654873299559043  0.055898286355677805  0.25916195403682  1.0000
  C   C18       1.0  0.8654886482447139  0.5559008973589172  0.24083443628925494  1.0000
  C   C19       1.0  0.13451314371793188  0.9440964289478515  0.7408350379015758  1.0000
  C   C20       1.0  0.1345106720683233  0.4440990712960868  0.7591649620984244  1.0000
  C   C21       1.0  0.8080720311599451  0.1529942305265308  0.2905215978823251  1.0000
  C   C22       1.0  0.8080718869941635  0.6529959659711935  0.2094747924437499  1.0000
  C   C23       1.0  0.19192866395744798  0.8470013603355753  0.7094747924437499  1.0000
  C   C24       1.0  0.19192619230783955  0.3470040026838106  0.7905252075562501  1.0000
  C   C25       1.0  0.18959261787266263  0.1589541577734224  0.4544050054145075  1.0000
  C   C26       1.0  0.18958844157995003  0.6589497643080265  0.045595596197813414  1.0000
  C   C27       1.0  0.8104140147133451  0.8410501886744798  0.5455961978101342  1.0000
  C   C28       1.0  0.8104091948349534  0.341048453229817  0.9544062086391565  1.0000
  C   C29       1.0  0.12162834519940449  0.1319606867845025  0.5309024184815316  1.0000
  C   C30       1.0  0.12163103829256267  0.6319589199948439  0.969096378293827  1.0000
  C   C31       1.0  0.8783701769896909  0.8680410329876624  0.4690969799061477  1.0000
  C   C32       1.0  0.8783682820204746  0.3680410486601602  0.0309048249308148  1.0000
  C   C33       1.0  0.0332891364635088  0.20888813908931783  0.5698423775718953  1.0000
  C   C34       1.0  0.03328970277142668  0.7088828700653451  0.9301558175911424  1.0000
  C   C35       1.0  0.9667110696237273  0.7911153318000004  0.4301564192034633  1.0000
  C   C36       1.0  0.9667091746545182  0.2911153474724983  0.0698441824088576  1.0000
  C   C37       1.0  0.00987154178939419  0.3121576468003227  0.531844543376252  1.0000
  C   C38       1.0  0.00987188665376947  0.8121515022177661  0.9681530501744646  1.0000
  C   C39       1.0  0.9901278661738929  0.6878475752061561  0.46815425339910643  1.0000
  C   C40       1.0  0.9901319548163557  0.18784671532007743  0.0318457466008937  1.0000
  C   C41       1.0  0.07831062737952268  0.3398900892298684  0.4557441944411025  1.0000
  C   C42       1.0  0.07830419050827687  0.8398865713230563  0.0442546023342558  1.0000
  C   C43       1.0  0.9216957837629282  0.6601133816594498  0.5442558055588975  1.0000
  C   C44       1.0  0.9216990742814488  0.1601142728905245  0.9557435928287817  1.0000
  C   C45       1.0  0.17183342205639462  0.2649886794767369  0.41719107207315903  1.0000
  C   C46       1.0  0.1718296886507815  0.7649860371285016  0.0828089279268411  1.0000
  C   C47       1.0  0.8281729890860632  0.7350147914125813  0.5828089279268414  1.0000
  C   C48       1.0  0.8281717584474962  0.23501743376081663  0.9171904704608382  1.0000
  C   C49       1.0  0.2786076921576211  0.0731091413420302  0.4126176152087595  1.0000
  C   C50       1.0  0.2786074603415969  0.5731056234352181  0.0873823847912405  1.0000
  C   C51       1.0  0.7213910514750238  0.9268934539887042  0.5873823847912405  1.0000
  C   C52       1.0  0.7213926580953965  0.4268925941026255  0.9126200216580431  1.0000
  C   C53       1.0  0.2673548923204407  0.3038538492375906  0.3418042353507432  1.0000
  C   C54       1.0  0.2673530642565183  0.8038538335650927  0.158195163036936  1.0000
  C   C55       1.0  0.7326483724692848  0.6961469949759902  0.6581975694862268  1.0000
  C   C56       1.0  0.7326494024092584  0.1961487617656488  0.8418042353507433  1.0000
  N   N1        1.0  0.3790788299505081  0.7833386205017945  0.3691896282035856  1.0000
  N   N2        1.0  0.3790804365708809  0.2833377606157157  0.1308115750210561  1.0000
  N   N3        1.0  0.6209145067508574  0.2166622237117863  0.6308115750210562  1.0000
  N   N4        1.0  0.6209201247532051  0.7166622080392884  0.8691884249789439  1.0000
  N   N5        1.0  0.4311898849365222  0.7932788370485754  0.4464721453495386  1.0000
  N   N6        1.0  0.4311890095348119  0.2932779771624965  0.0535290578751031  1.0000
  N   N7        1.0  0.5688084158090234  0.2067220071650056  0.5535290578751031  1.0000
  N   N8        1.0  0.5688130142438652  0.7067228670510843  0.9464721453495386  1.0000
  N   N9        1.0  0.5831041777358053  0.0129941648701433  0.2737330044519339  1.0000
  N   N10       1.0  0.5831077566031554  0.5129959003148059  0.22626639393574527  1.0000
  N   N11       1.0  0.4168942568030474  0.9870023015505396  0.7262669955480662  1.0000
  N   N12       1.0  0.4168913422663394  0.4870031927816214  0.7737348092888965  1.0000
  N   N13       1.0  0.639046944047216  0.1239484502285606  0.29856515461436584  1.0000
  N   N14       1.0  0.6390478194489262  0.6239493101146394  0.2014330405486717  1.0000
  N   N15       1.0  0.36095273150267815  0.8760480161921294  0.7014342437733136  1.0000
  N   N16       1.0  0.36094879739847846  0.3760497829817808  0.79856816267597  1.0000
  O   O1        1.0  0.21953424448307152  0.0355669405939665  0.3432481049211873  1.0000
  O   O2        1.0  0.2195336574301976  0.5355669249214685  0.1567518950788127  1.0000
  O   O3        1.0  0.7804655187170653  0.9644347791781982  0.6567524966911338  1.0000
  O   O4        1.0  0.7804673467809877  0.4644347948506962  0.8432511129827915  1.0000
  O   O5        1.0  0.4010514458038513  0.0392547933284888  0.4461791601491997  1.0000
  O   O6        1.0  0.4010531193295108  0.539253902097407  0.053818433401517  1.0000
  O   O7        1.0  0.5989472101785509  0.9607425486507779  0.5538196366261587  1.0000
  O   O8        1.0  0.5989462009835336  0.46074606655759004  0.9461821682108038  1.0000
  O   O9        1.0  0.19709136522435947  0.3650711539603719  0.2914895921068492  1.0000
  O   O10       1.0  0.1970897586039797  0.8650720138464508  0.20850980628082996  1.0000
  O   O11       1.0  0.802908753212634  0.6349270635774715  0.7085110095054716  1.0000
  O   O12       1.0  0.8029129295053394  0.1349314570428675  0.7914895921068492  1.0000
  O   O13       1.0  0.41414077184540343  0.2814605630224563  0.3320900012032269  1.0000
  O   O14       1.0  0.41414018479252945  0.7814605473499583  0.1679081939598106  1.0000
  O   O15       1.0  0.5858624929443152  0.7185402811911247  0.6679099987967732  1.0000
  O   O16       1.0  0.5858647638953373  0.2185420479807831  0.8320918060401896  1.0000
