data_image0
_chemical_formula_structural       Zn4H29C44I6N16F5
_chemical_formula_sum              "Zn4 H29 C44 I6 N16 F5"
_cell_length_a       14.596493147656874
_cell_length_b       15.01554872445355
_cell_length_c       15.154552443292072
_cell_angle_alpha    67.90134756648763
_cell_angle_beta     69.38710780937895
_cell_angle_gamma    104.34438013491102

_space_group_name_H-M_alt    "P 1"
_space_group_IT_number       1

loop_
  _space_group_symop_operation_xyz
  'x, y, z'

loop_
  _atom_site_type_symbol
  _atom_site_label
  _atom_site_symmetry_multiplicity
  _atom_site_fract_x
  _atom_site_fract_y
  _atom_site_fract_z
  _atom_site_occupancy
  Zn  Zn1       1.0  0.14189565312705102  0.5023391578347686  0.8679428765102415  1.0000
  Zn  Zn2       1.0  0.8717826060342875  0.5090108025384624  0.14360773901611176  1.0000
  Zn  Zn3       1.0  0.02202373745623728  0.3712549556515441  0.1360007265709769  1.0000
  Zn  Zn4       1.0  0.001796383562513872  0.644790971337102  0.8731445250774285  1.0000
  H   H1        1.0  0.2025015111761591  0.316194611575206  0.822521853973207  1.0000
  H   H2        1.0  0.669610611357399  0.5875781636056557  0.19027737239677842  1.0000
  H   H3        1.0  0.00937285382074308  0.3333112087828812  0.8401280417391418  1.0000
  H   H4        1.0  0.8521024454472229  0.7663591991764636  0.835175862355193  1.0000
  H   H5        1.0  0.06722846182130839  0.1558160801021344  0.17483058640740975  1.0000
  H   H6        1.0  0.3511456394356713  0.6711156061518224  0.6044507130785773  1.0000
  H   H7        1.0  0.7967202952929854  0.46794355878353855  0.39591529310747114  1.0000
  H   H8        1.0  0.1891572710005321  0.5233834941043796  0.17062969313791854  1.0000
  H   H9        1.0  0.20201422560300863  0.8411966794350861  0.821675098167347  1.0000
  H   H10       1.0  0.3696808538638124  0.680069706783371  0.8157842099118043  1.0000
  H   H11       1.0  0.7590584617225319  0.42503599634395073  0.7199597996796995  1.0000
  H   H12       1.0  0.7304833329240736  0.28956045117708845  0.7935294147866685  1.0000
  H   H13       1.0  0.7416749595425145  0.2686081129920481  0.6446285836623886  1.0000
  H   H14       1.0  0.7438645040578752  0.3957989757723085  0.5856893603172538  1.0000
  H   H15       1.0  0.9794859153332428  0.5735553611503904  0.60190979478304  1.0000
  H   H16       1.0  0.8759651396615882  0.23294965437752085  0.7605201933277638  1.0000
  H   H17       1.0  0.907932469567186  0.24136785698257068  0.5932945906463303  1.0000
  H   H18       1.0  0.03620321652128673  0.3513887917107966  0.5254478832746301  1.0000
  H   H19       1.0  0.06742107929373026  0.5134424414624094  0.5785350886102024  1.0000
  H   H20       1.0  0.5330753808380211  0.7594988859761074  0.832256840957193  1.0000
  H   H21       1.0  0.4020387973627493  0.6483114835493708  0.08353571944206112  1.0000
  H   H22       1.0  0.6946549818047387  0.7916810875956628  0.8428580308622314  1.0000
  H   H23       1.0  0.501058875037039  0.16441185852931287  0.33264224160601696  1.0000
  H   H24       1.0  0.34280783667023246  0.009563658797958436  0.4698605077835722  1.0000
  H   H25       1.0  0.4549367773039921  0.8713025305376407  0.4240129472823  1.0000
  H   H26       1.0  0.09705329553624861  0.8482862833619152  0.16181313674051265  1.0000
  H   H27       1.0  0.215583921532435  0.976496178319188  0.9093674872245855  1.0000
  H   H28       1.0  0.1297729808126533  0.016426289594818393  0.15504823901184034  1.0000
  H   H29       1.0  0.17016602275353437  0.10573229737504883  0.9189982355847803  1.0000
  C   C1        1.0  0.1676265762002203  0.2920861118168148  0.9087503289664696  1.0000
  C   C2        1.0  0.728551798751603  0.6267336185911103  0.10393179680468023  1.0000
  C   C3        1.0  0.8082379652775629  0.2187066791131969  0.18397180649704126  1.0000
  C   C4        1.0  0.8892985348496154  0.49084327144310447  0.8189983148935978  1.0000
  C   C5        1.0  0.7175392545956073  0.31326179456182496  0.16215527711863587  1.0000
  C   C6        1.0  0.9730683357690496  0.3880971608665078  0.8404627814352562  1.0000
  C   C7        1.0  0.8210344330885634  0.7177959462563167  0.9225035113286849  1.0000
  C   C8        1.0  0.1002194774740204  0.21060857343503867  0.08816241392552374  1.0000
  C   C9        1.0  0.14522760587813383  0.1968561196297714  0.9979817621694166  1.0000
  C   C10       1.0  0.7246315526365665  0.6932985424472732  0.012017013950199384  1.0000
  C   C11       1.0  0.7029624825142805  0.20600679384361342  0.20353943253733311  1.0000
  C   C12       1.0  0.9116139121543088  0.41592191013865  0.7907419174145215  1.0000
  C   C13       1.0  0.29077686965300126  0.7005257245235653  0.626700484153325  1.0000
  C   C14       1.0  0.8492081187983231  0.4307604175339037  0.3746226445578175  1.0000
  C   C15       1.0  0.21808853318979274  0.5516313492142971  0.08414156240089452  1.0000
  C   C16       1.0  0.14816289549607145  0.7855689509414535  0.9091948041703971  1.0000
  C   C17       1.0  0.0520065759689176  0.7036316691756853  0.08730202995792533  1.0000
  C   C18       1.0  0.3109946777740404  0.6316803796754941  0.9029584300017746  1.0000
  C   C19       1.0  0.19621823836515523  0.7932023420513801  0.6359619999509505  1.0000
  C   C20       1.0  0.9597156767540015  0.35450938729849213  0.36165535114636066  1.0000
  C   C21       1.0  0.29697358946447155  0.801972737657188  0.5658421560726622  1.0000
  C   C22       1.0  0.9027464048442867  0.3888971987522041  0.4285662652669869  1.0000
  C   C23       1.0  0.3214955667430604  0.6285408759664934  0.9932071916487998  1.0000
  C   C24       1.0  0.1315237456375019  0.8048922452878318  0.9965679434683422  1.0000
  C   C25       1.0  0.7869380868001133  0.3648381286910195  0.7149899851612177  1.0000
  C   C26       1.0  0.7857249304225109  0.35280429332306806  0.6184284227970663  1.0000
  C   C27       1.0  0.9860081953796681  0.5060622192453151  0.5929728763065895  1.0000
  C   C28       1.0  0.9352466499948592  0.31278773903450485  0.6887142464361772  1.0000
  C   C29       1.0  0.9023838670043247  0.3984566711029556  0.7016840733296519  1.0000
  C   C30       1.0  0.9029229804992128  0.3938357598169945  0.5261152036371043  1.0000
  C   C31       1.0  0.97226069191364  0.5093434668523287  0.49618968361947685  1.0000
  C   C32       1.0  0.9487887883812082  0.3207972438115548  0.5803309731631714  1.0000
  C   C33       1.0  0.5205103135253636  0.7325360747120584  0.9152420114385932  1.0000
  C   C34       1.0  0.4162159456488582  0.673724384375042  0.0004235919304918677  1.0000
  C   C35       1.0  0.6192605026254016  0.7510513912648165  0.9210044098581706  1.0000
  C   C36       1.0  0.6320307291034126  0.7095142387195991  0.00995662685436129  1.0000
  C   C37       1.0  0.5050560846258636  0.09089928085214896  0.3388561705599641  1.0000
  C   C38       1.0  0.6045992912490874  0.10648819091426981  0.2702798604453704  1.0000
  C   C39       1.0  0.4082767428676992  0.9944661578539641  0.42510774464357604  1.0000
  C   C40       1.0  0.3913788000711525  0.890726024020886  0.4646257881736277  1.0000
  C   C41       1.0  0.13810077614780178  0.9191332268063876  0.08013725654384989  1.0000
  C   C42       1.0  0.16838617159899652  0.9058094650746542  0.9919227245627836  1.0000
  C   C43       1.0  0.1451011610596424  0.017626269327671213  0.0784494216133282  1.0000
  C   C44       1.0  0.15710595143302447  0.10531091415841601  0.9948637892766071  1.0000
  I   I1        1.0  0.12215544124791232  0.8958337036300537  0.6209032828980697  1.0000
  I   I2        1.0  0.05981494310366028  0.2766450640114613  0.36647704212474963  1.0000
  I   I3        1.0  0.8967359239281762  0.6189016249325333  0.454664058801768  1.0000
  I   I4        1.0  0.13503284231241255  0.5846574286159482  0.35228315796274506  1.0000
  I   I5        1.0  0.8051520884447144  0.578263103827574  0.7781548033345442  1.0000
  I   I6        1.0  0.6070285658056563  0.3710938760968077  0.14087134598690915  1.0000
  N   N1        1.0  0.13933852420202444  0.356848473616033  0.9428552598835862  1.0000
  N   N2        1.0  0.81846423124815  0.6108339556126339  0.07105499439442291  1.0000
  N   N3        1.0  0.8770345861338386  0.3200301240786488  0.13934072491171182  1.0000
  N   N4        1.0  0.9355073407877441  0.5070024753325484  0.878028747690273  1.0000
  N   N5        1.0  0.8204710670036165  0.3802496664480586  0.1262090166920019  1.0000
  N   N6        1.0  0.9880540172294586  0.44361824084498364  0.8908711540382445  1.0000
  N   N7        1.0  0.8757818529911249  0.6678419569033667  0.958195699509126  1.0000
  N   N8        1.0  0.09665327951709907  0.3056041595853642  0.05476863988550922  1.0000
  N   N9        1.0  0.1970811364975308  0.6391154880188384  0.723333365515586  1.0000
  N   N10       1.0  0.8737025035954177  0.42392092258504027  0.2837920267048376  1.0000
  N   N11       1.0  0.1533817358754491  0.5113296541992796  0.05051074118610208  1.0000
  N   N12       1.0  0.08281851225471829  0.6832624813099457  0.9468450219675688  1.0000
  N   N13       1.0  0.022745610150956  0.6319182956727758  0.058952850532172515  1.0000
  N   N14       1.0  0.21051355052711077  0.560837595036567  0.9391036120322196  1.0000
  N   N15       1.0  0.13815953501514147  0.6971162879235352  0.7287892661454052  1.0000
  N   N16       1.0  0.9424932240475032  0.3760634853402037  0.2758038618145163  1.0000
  F   F1        1.0  0.0019673038664009897  0.675637889367117  0.1934003420829812  1.0000
  F   F2        1.0  0.03726234133332444  0.3262283009682322  0.6848469972348211  1.0000
  F   F3        1.0  0.8420311600703131  0.1420065027634791  0.20876325040568836  1.0000
  F   F4        1.0  0.5432692152053208  0.6582377352687276  0.11347378103354795  1.0000
  F   F5        1.0  0.6218936777994416  0.020671628779979235  0.2702541118312141  1.0000
