data_image0
_chemical_formula_structural       Zn4H36C52N4O20
_chemical_formula_sum              "Zn4 H36 C52 N4 O20"
_cell_length_a       7.119725710289516
_cell_length_b       9.652658953206497
_cell_length_c       18.875430850249415
_cell_angle_alpha    89.99928070731812
_cell_angle_beta     91.6411693517806
_cell_angle_gamma    89.99980057157687

_space_group_name_H-M_alt    "P 1"
_space_group_IT_number       1

loop_
  _space_group_symop_operation_xyz
  'x, y, z'

loop_
  _atom_site_type_symbol
  _atom_site_label
  _atom_site_symmetry_multiplicity
  _atom_site_fract_x
  _atom_site_fract_y
  _atom_site_fract_z
  _atom_site_occupancy
  Zn  Zn1       1.0  0.2306545415640855  0.9315848008521784  0.225256955835981  1.0000
  Zn  Zn2       1.0  0.7693557543200242  0.431583465251535  0.27474409168527814  1.0000
  Zn  Zn3       1.0  0.7693358848725469  0.0684234651230966  0.77474702464572  1.0000
  Zn  Zn4       1.0  0.23065781871158464  0.5684206568507266  0.7252524680451985  1.0000
  H   H1        1.0  0.42369167411760605  0.259785808810129  0.0092266693946144  1.0000
  H   H2        1.0  0.5763073979089414  0.7597849039750884  0.49076937499153683  1.0000
  H   H3        1.0  0.5762866536274985  0.7402234932461768  0.9907706732217679  1.0000
  H   H4        1.0  0.42370350155366765  0.2402181821669204  0.5092255333186416  1.0000
  H   H5        1.0  0.4565814330520653  0.6867853838956395  0.07910987677117022  1.0000
  H   H6        1.0  0.543413501107821  0.18678721507468773  0.42089024414179493  1.0000
  H   H7        1.0  0.5433991625786094  0.31322081012669406  0.9208938785450727  1.0000
  H   H8        1.0  0.45659730819766525  0.8132169070383458  0.5791057222242133  1.0000
  H   H9        1.0  0.2844034596868568  0.36918637768740586  0.22130953932301622  1.0000
  H   H10       1.0  0.7156088000843753  0.8691914026418676  0.27868929679370785  1.0000
  H   H11       1.0  0.7155901361898529  0.630814636447589  0.778690273280276  1.0000
  H   H12       1.0  0.28440200922111813  0.13081271947116593  0.7213066695722932  1.0000
  H   H13       1.0  0.04008375400320571  0.21174451115773246  0.43577452363929586  1.0000
  H   H14       1.0  0.9599124509223602  0.7117428317547623  0.0642254688154154  1.0000
  H   H15       1.0  0.9599146931903706  0.788248214986723  0.5642344111633193  1.0000
  H   H16       1.0  0.0400888431478634  0.28824782262695003  0.9357665692147352  1.0000
  H   H17       1.0  0.1566711187960337  0.1716843392598761  0.31650957618161624  1.0000
  H   H18       1.0  0.8433320972556403  0.671683110862958  0.18349348008413105  1.0000
  H   H19       1.0  0.8433244294232695  0.828314602779763  0.6835003523252612  1.0000
  H   H20       1.0  0.15667341000565232  0.32831272343220524  0.8164986544316974  1.0000
  H   H21       1.0  0.06433302225946853  0.766553896461325  0.4687181676460099  1.0000
  H   H22       1.0  0.9356768881282492  0.26655091091646455  0.031282322763630105  1.0000
  H   H23       1.0  0.9356715383895634  0.23343882974583618  0.5312850765010069  1.0000
  H   H24       1.0  0.06430855182379959  0.7334418153984644  0.9687141226841622  1.0000
  H   H25       1.0  0.18230183899751046  0.7470228128917072  0.34689703419199  1.0000
  H   H26       1.0  0.8177026935918479  0.24702125468560607  0.15310186615662505  1.0000
  H   H27       1.0  0.8176972392570364  0.2529771652312932  0.6531044941731636  1.0000
  H   H28       1.0  0.18229814969003402  0.7529756155351636  0.846895462149327  1.0000
  H   H29       1.0  0.02969353387037191  0.9897204976196079  0.12763799323509062  1.0000
  H   H30       1.0  0.9702977878029346  0.48972039400825224  0.3723670232101527  1.0000
  H   H31       1.0  0.9703000169402572  0.010276372573002804  0.8723623484111158  1.0000
  H   H32       1.0  0.029694268460033906  0.5102733682216185  0.6276343443377714  1.0000
  H   H33       1.0  0.8903671535183834  0.997263682881851  0.19365610165994707  1.0000
  H   H34       1.0  0.10964347387598394  0.49725284748837606  0.3063530198231917  1.0000
  H   H35       1.0  0.10963061048331471  0.0027383672242109005  0.8063443364719307  1.0000
  H   H36       1.0  0.8903664339166042  0.5027398786713208  0.693653527171094  1.0000
  C   C1        1.0  0.36523581809628775  0.5393371144498859  0.15420043188635196  1.0000
  C   C2        1.0  0.6347713661773682  0.039341609803067015  0.34579825018709454  1.0000
  C   C3        1.0  0.6347547435857237  0.46066597162494827  0.8458019615232788  1.0000
  C   C4        1.0  0.36524374648739416  0.9606625123164892  0.6541967546220917  1.0000
  C   C5        1.0  0.28805950674783537  0.15575614195677193  0.13101307179006486  1.0000
  C   C6        1.0  0.7119575230801233  0.6557506569034929  0.368994111884824  1.0000
  C   C7        1.0  0.7119365823753301  0.8442510880324293  0.8689905083351804  1.0000
  C   C8        1.0  0.2880480292333801  0.3442545012539284  0.6309974935714138  1.0000
  C   C9        1.0  0.03785417419809531  0.9916536189508777  0.46424257317109163  1.0000
  C   C10       1.0  0.9621461044904722  0.4916421691163111  0.035756275518807015  1.0000
  C   C11       1.0  0.9621515654639481  0.008340143205707298  0.5357633482879437  1.0000
  C   C12       1.0  0.037852110321757906  0.5083453772788857  0.9642388723639431  1.0000
  C   C13       1.0  0.41514947833771754  0.34000777586569353  0.049594818788691014  1.0000
  C   C14       1.0  0.5848459496509906  0.8400016312819648  0.45040540623690367  1.0000
  C   C15       1.0  0.5848312074361958  0.6600025621055041  0.95040787845506  1.0000
  C   C16       1.0  0.4151621860854888  0.16000145487081605  0.549588908708799  1.0000
  C   C17       1.0  0.43287639236440617  0.5769927571265329  0.08805166614828862  1.0000
  C   C18       1.0  0.5671162307490007  0.07698749837700092  0.4119501551373404  1.0000
  C   C19       1.0  0.5671042032607191  0.423015508863756  0.9119520891612823  1.0000
  C   C20       1.0  0.4328932643147354  0.9230145517831829  0.5880447210087284  1.0000
  C   C21       1.0  0.3122697975089039  0.6500231466540854  0.2054874367575934  1.0000
  C   C22       1.0  0.6877359376028664  0.15003499329235845  0.29452058447867563  1.0000
  C   C23       1.0  0.6877200429605782  0.34997165144526593  0.7945234211519934  1.0000
  C   C24       1.0  0.312277590346021  0.8499712007713716  0.7054765042747136  1.0000
  C   C25       1.0  0.33261870860249604  0.40012869211917496  0.16942614517851953  1.0000
  C   C26       1.0  0.6673861381005608  0.9001304830387087  0.33057497611447684  1.0000
  C   C27       1.0  0.6673676398801336  0.5998723219941412  0.8305761517354429  1.0000
  C   C28       1.0  0.33262757016533584  0.09987260309902272  0.6694199965305929  1.0000
  C   C29       1.0  0.35282489596649214  0.30079607290447546  0.11620830097536583  1.0000
  C   C30       1.0  0.6471810235326956  0.800802815106714  0.38378711125167814  1.0000
  C   C31       1.0  0.6471614074417361  0.6992039052183828  0.8837945249715066  1.0000
  C   C32       1.0  0.3528284715282624  0.19920027103744084  0.6162077648910513  1.0000
  C   C33       1.0  0.067723768818702  0.10572104094258356  0.4195668137148872  1.0000
  C   C34       1.0  0.9322728685723335  0.6057242097089246  0.08043544818024632  1.0000
  C   C35       1.0  0.9322773519411033  0.8942737571460957  0.5804437725046939  1.0000
  C   C36       1.0  0.06772847057229112  0.39426748066323825  0.9195560608169944  1.0000
  C   C37       1.0  0.1337068039867546  0.08492441410111701  0.35209804687284674  1.0000
  C   C38       1.0  0.8662944735381332  0.5849157201159445  0.14790074220287155  1.0000
  C   C39       1.0  0.86629626208687  0.9150755639830523  0.6479062231425489  1.0000
  C   C40       1.0  0.13370786429972983  0.4150811501156399  0.8520955602113675  1.0000
  C   C41       1.0  0.0832864420951154  0.8604993507946618  0.43804053152121725  1.0000
  C   C42       1.0  0.9167172574684558  0.3605060142291806  0.06196028361359402  1.0000
  C   C43       1.0  0.9167150843647747  0.13949337538438306  0.5619652934388029  1.0000
  C   C44       1.0  0.08327687935926062  0.639485676127791  0.9380331806647322  1.0000
  C   C45       1.0  0.14848232751712226  0.8470924063075106  0.3699505012707577  1.0000
  C   C46       1.0  0.8515216692580624  0.34708511770802636  0.13004775504817453  1.0000
  C   C47       1.0  0.8515195595462617  0.15290549984325003  0.6300510914359523  1.0000
  C   C48       1.0  0.14847781470489005  0.6529096805534139  0.8699490120674228  1.0000
  C   C49       1.0  0.4633969595177021  0.4786702090563398  0.0348665230558964  1.0000
  C   C50       1.0  0.5365992656106472  0.9786700364972777  0.4651312545974663  1.0000
  C   C51       1.0  0.5365880296016244  0.5213453088412693  0.9651352126143639  1.0000
  C   C52       1.0  0.4634059711709782  0.021332013662856805  0.5348640540758398  1.0000
  N   N1        1.0  0.1703347261168346  0.9570139167474068  0.32706509796507544  1.0000
  N   N2        1.0  0.8296655126275926  0.45701701864064165  0.17293661876709626  1.0000
  N   N3        1.0  0.8296624969643676  0.042986061312937814  0.6729416885284325  1.0000
  N   N4        1.0  0.1703356011228579  0.5429777796510605  0.8270575353680487  1.0000
  O   O1        1.0  0.9769104610552051  0.9345102033833826  0.16763378235726387  1.0000
  O   O2        1.0  0.023091032150112805  0.4345041202575288  0.33237128558334217  1.0000
  O   O3        1.0  0.02308585347321921  0.06548977475038953  0.8323671526434142  1.0000
  O   O4        1.0  0.9769078207379994  0.5654886059452409  0.6676328879530474  1.0000
  O   O5        1.0  0.3610515629998759  0.7740347308572453  0.18775908221946486  1.0000
  O   O6        1.0  0.6389439928295033  0.2740400449552994  0.3122442125198148  1.0000
  O   O7        1.0  0.6389301215005646  0.22596835516565517  0.8122484084812883  1.0000
  O   O8        1.0  0.361069670356443  0.7259640771599224  0.6877512891514999  1.0000
  O   O9        1.0  0.3292762648159666  0.11126497866095521  0.19416376444858235  1.0000
  O   O10       1.0  0.6707421752255487  0.6112684085629354  0.30582995077374875  1.0000
  O   O11       1.0  0.6707102639503831  0.8887453593340601  0.8058364163170497  1.0000
  O   O12       1.0  0.32928303869433523  0.38874296546832465  0.6941621050067398  1.0000
  O   O13       1.0  0.19213319016361655  0.09163978892794943  0.08439531645823453  1.0000
  O   O14       1.0  0.8078485249819923  0.5916422374262709  0.415601391928469  1.0000
  O   O15       1.0  0.8078618552002227  0.9083581172594537  0.9156039992929269  1.0000
  O   O16       1.0  0.19214094786631367  0.40835048885630704  0.5843972661399875  1.0000
  O   O17       1.0  0.2178092308171315  0.6213206685892773  0.25886860648873994  1.0000
  O   O18       1.0  0.782229139516545  0.12133774316336604  0.24113822319287695  1.0000
  O   O19       1.0  0.7822129559784444  0.3786699855313317  0.74114246225588  1.0000
  O   O20       1.0  0.21778307418781404  0.878667414931499  0.7588577753372407  1.0000
