data_image0
_chemical_formula_structural       Sm4H28C24O32
_chemical_formula_sum              "Sm4 H28 C24 O32"
_cell_length_a       6.196389940393544
_cell_length_b       10.180113474581143
_cell_length_c       15.475752819654355
_cell_angle_alpha    103.30348803595864
_cell_angle_beta     90.00133950365742
_cell_angle_gamma    107.72443154178264

_space_group_name_H-M_alt    "P 1"
_space_group_IT_number       1

loop_
  _space_group_symop_operation_xyz
  'x, y, z'

loop_
  _atom_site_type_symbol
  _atom_site_label
  _atom_site_symmetry_multiplicity
  _atom_site_fract_x
  _atom_site_fract_y
  _atom_site_fract_z
  _atom_site_occupancy
  Sm  Sm1       1.0  0.5332962478017862  0.18582837952408232  0.7031417577357434  1.0000
  Sm  Sm2       1.0  0.34765672666803477  0.8139231970259787  0.7967892323838444  1.0000
  Sm  Sm3       1.0  0.4667021362566359  0.8141726882764928  0.2968591666982762  1.0000
  Sm  Sm4       1.0  0.6523427370284977  0.18607680259653853  0.20321088755371625  1.0000
  H   H1        1.0  0.7743878002278279  0.0491004903649994  0.544675705885588  1.0000
  H   H2        1.0  0.7255332975199097  0.9508892038172406  0.9551943327907683  1.0000
  H   H3        1.0  0.2256121921453059  0.9509005664656557  0.45532392456768644  1.0000
  H   H4        1.0  0.2744656291622789  0.0491097220513979  0.04480433563624331  1.0000
  H   H5        1.0  0.9393382868126209  0.12371810277122108  0.63792231427383  1.0000
  H   H6        1.0  0.8158992173585703  0.8762038233524767  0.861965254925764  1.0000
  H   H7        1.0  0.06066170833975797  0.8762829595746737  0.36207796317772534  1.0000
  H   H8        1.0  0.18410024355871712  0.12379617075479389  0.138034218013523  1.0000
  H   H9        1.0  0.36750025807695863  0.2883272498535235  0.9928699747766107  1.0000
  H   H10       1.0  0.07885354594046855  0.7116805885361401  0.5070338308213425  1.0000
  H   H11       1.0  0.6324981315399612  0.7116738289775455  0.007132243653963124  1.0000
  H   H12       1.0  0.9211480603058746  0.2883204683550887  0.49296579964774895  1.0000
  H   H13       1.0  0.07916072232055885  0.19766461806317892  0.9601297533820559  1.0000
  H   H14       1.0  0.8813113049436153  0.8022970469534556  0.5400672754716284  1.0000
  H   H15       1.0  0.9208382154786248  0.8023343298664612  0.03987150303806431  1.0000
  H   H16       1.0  0.11868977262612652  0.19770295272964233  0.45993284448174176  1.0000
  H   H17       1.0  0.29565506979034956  0.4986049135293771  0.9873103270028029  1.0000
  H   H18       1.0  0.7972181787154112  0.5011275147852815  0.5125560430832792  1.0000
  H   H19       1.0  0.7043449253620296  0.501396148816518  0.012689950448752525  1.0000
  H   H20       1.0  0.20278667756226548  0.49887035963278237  0.4874437618895372  1.0000
  H   H21       1.0  0.016718251328413248  0.4229021957077422  0.9368521073803254  1.0000
  H   H22       1.0  0.5939926255752256  0.5768185938360731  0.5630201882287268  1.0000
  H   H23       1.0  0.9832795984949102  0.5770978038542013  0.06314801254141864  1.0000
  H   H24       1.0  0.40601114272659805  0.4231803322142938  0.4369784802457276  1.0000
  H   H25       1.0  0.4808193194874876  0.45382638306420386  0.8183148597792214  1.0000
  H   H26       1.0  0.027099912498194115  0.5458985607466644  0.6816248189977827  1.0000
  H   H27       1.0  0.5191790840765975  0.5461714966267979  0.18168559212862337  1.0000
  H   H28       1.0  0.9729033104006035  0.454102501720385  0.3183754584853987  1.0000
  C   C1        1.0  0.310572523510757  0.0930245661614109  0.8976712824064068  1.0000
  C   C2        1.0  0.2176212351258684  0.9066903258136207  0.6023697351570051  1.0000
  C   C3        1.0  0.6894226550861546  0.9069733189236898  0.10232981646808532  1.0000
  C   C4        1.0  0.7823836016461456  0.09331073671400253  0.3976305423419931  1.0000
  C   C5        1.0  0.19559839666722922  0.455252404575063  0.9224864574107489  1.0000
  C   C6        1.0  0.7404605995679887  0.5444147532528162  0.5773844365868825  1.0000
  C   C7        1.0  0.8043988994153325  0.544749714857808  0.07751333052490143  1.0000
  C   C8        1.0  0.2595415576398707  0.4555841782522236  0.4226148788700287  1.0000
  C   C9        1.0  0.07450820590550218  0.24260441320912918  0.7905252894515231  1.0000
  C   C10       1.0  0.8319403468183283  0.7569569384745594  0.7093898918730731  1.0000
  C   C11       1.0  0.9254901948793376  0.7573934609666253  0.20947451545804097  1.0000
  C   C12       1.0  0.16805964277556032  0.24304411284083471  0.2906090915819278  1.0000
  C   C13       1.0  0.23785940057160812  0.5747810898445139  0.8754016516870211  1.0000
  C   C14       1.0  0.6630393705051605  0.42483557711693737  0.6244280084772883  1.0000
  C   C15       1.0  0.7621330650592455  0.4252178247513286  0.12459572268017642  1.0000
  C   C16       1.0  0.3369703106657271  0.5751654911076687  0.3755729160674265  1.0000
  C   C17       1.0  0.2528898311652625  0.3236786317564082  0.8709290842015991  1.0000
  C   C18       1.0  0.92928314082004  0.675955658302236  0.6289851518825957  1.0000
  C   C19       1.0  0.7471074899814596  0.6763203105974044  0.12907152520443085  1.0000
  C   C20       1.0  0.0707184654263031  0.3240453985889928  0.37101447858649567  1.0000
  C   C21       1.0  0.24821743472381294  0.22681752573787864  0.9344201194333694  1.0000
  C   C22       1.0  0.021258606957822293  0.773014881993632  0.5656023262146592  1.0000
  C   C23       1.0  0.7517804178787628  0.7731824793393117  0.06558064748664805  1.0000
  C   C24       1.0  0.9787440789266385  0.22698510671953903  0.4343964997579733  1.0000
  O   O1        1.0  0.47609732331618915  0.3649916743805477  0.8381479950744791  1.0000
  O   O2        1.0  0.11123494491786098  0.6346668380112989  0.6617427568725134  1.0000
  O   O3        1.0  0.523899469153939  0.6350062107651271  0.1618531038158296  1.0000
  O   O4        1.0  0.8887666613284821  0.36533421887992296  0.3382568735965848  1.0000
  O   O5        1.0  0.25726939020088924  0.9915151008282165  0.9364805073663336  1.0000
  O   O6        1.0  0.2655737421710214  0.008382255690158  0.563698028472146  1.0000
  O   O7        1.0  0.7427300734956434  0.008484898794300498  0.063519612571227  1.0000
  O   O8        1.0  0.7344326945270371  0.9916220060380995  0.4363040155653979  1.0000
  O   O9        1.0  0.1491770883364012  0.18759839547918492  0.7186109858972503  1.0000
  O   O10       1.0  0.9618380809583728  0.8122387263560144  0.7812554698571221  1.0000
  O   O11       1.0  0.850821843904285  0.8124005414199544  0.2813889765263086  1.0000
  O   O12       1.0  0.0381629882736263  0.1877612567813358  0.21874270910142005  1.0000
  O   O13       1.0  0.8696081464007648  0.23413227126413716  0.8004370229475415  1.0000
  O   O14       1.0  0.6354229399656789  0.7652873362709371  0.6995191336087317  1.0000
  O   O15       1.0  0.1303902599425727  0.7658656139421184  0.19956407595857686  1.0000
  O   O16       1.0  0.3645765209516086  0.23471265783633302  0.30048033933054813  1.0000
  O   O17       1.0  0.7832297356946258  0.09845807639266013  0.6090167447116672  1.0000
  O   O18       1.0  0.6850723554331567  0.9015239720385467  0.8908423341170536  1.0000
  O   O19       1.0  0.21677079091360696  0.9015440486766124  0.39098369025388285  1.0000
  O   O20       1.0  0.31492657402828433  0.09847495934534582  0.10915698130823162  1.0000
  O   O21       1.0  0.36765583750976566  0.5763212835337157  0.8098550895476252  1.0000
  O   O22       1.0  0.7910587690824755  0.4233494144046901  0.6900754284559059  1.0000
  O   O23       1.0  0.6323436456924298  0.42367552797924196  0.1901445578637607  1.0000
  O   O24       1.0  0.20894554179218972  0.5766505964300492  0.309925985525645  1.0000
  O   O25       1.0  0.41650682461897764  0.07999483001901811  0.8269261459072299  1.0000
  O   O26       1.0  0.3370122634116159  0.9195276060928352  0.6729554802278133  1.0000
  O   O27       1.0  0.5834904937484995  0.9200041068195476  0.1730738165005193  1.0000
  O   O28       1.0  0.6629877317407632  0.08047345625305981  0.32704479722374213  1.0000
  O   O29       1.0  0.15282945661765282  0.6740467685462123  0.9018977262579855  1.0000
  O   O30       1.0  0.4788249832851364  0.3255238022243674  0.5978160491982367  1.0000
  O   O31       1.0  0.8471678478535765  0.3259521407161117  0.09809900115837422  1.0000
  O   O32       1.0  0.5211777053785696  0.6744761920040503  0.4021834237726766  1.0000
