data_image0
_chemical_formula_structural       Zn6H78C132N18O24
_chemical_formula_sum              "Zn6 H78 C132 N18 O24"
_cell_length_a       17.943951058004036
_cell_length_b       18.519015238682698
_cell_length_c       18.518836264517752
_cell_angle_alpha    110.09215357756872
_cell_angle_beta     108.8441314961621
_cell_angle_gamma    108.84340232783971

_space_group_name_H-M_alt    "P 1"
_space_group_IT_number       1

loop_
  _space_group_symop_operation_xyz
  'x, y, z'

loop_
  _atom_site_type_symbol
  _atom_site_label
  _atom_site_symmetry_multiplicity
  _atom_site_fract_x
  _atom_site_fract_y
  _atom_site_fract_z
  _atom_site_occupancy
  Zn  Zn1       1.0  0.8464876688552608  0.5145147333570179  0.592042915882317  1.0000
  Zn  Zn2       1.0  0.3319704633568392  0.07752705617213708  0.4854806282996904  1.0000
  Zn  Zn3       1.0  0.2544458235572051  0.4079602441544095  0.9224719696970922  1.0000
  Zn  Zn4       1.0  0.15351222920616445  0.48548478272982715  0.4079573170418769  1.0000
  Zn  Zn5       1.0  0.6680297635520702  0.9224731187448966  0.5145188538893349  1.0000
  Zn  Zn6       1.0  0.7455547330668892  0.5920405896051832  0.07752838200458702  1.0000
  H   H1        1.0  0.8662266368595227  0.3733226340800613  0.6392783143580374  1.0000
  H   H2        1.0  0.49289837139556186  0.26595720816819574  0.6266801975304759  1.0000
  H   H3        1.0  0.2269466073670898  0.36072356188476806  0.7340423765802626  1.0000
  H   H4        1.0  0.1337735903386205  0.6266775408410937  0.36072170791359787  1.0000
  H   H5        1.0  0.5071015260873964  0.734042307910393  0.3733189552284984  1.0000
  H   H6        1.0  0.7730536198310461  0.6392766130363865  0.26595764569136554  1.0000
  H   H7        1.0  0.9894133812123229  0.3326049632635699  0.6806805401263317  1.0000
  H   H8        1.0  0.6568035226453192  0.3480834358267231  0.6674047816084182  1.0000
  H   H9        1.0  0.3087304209086952  0.3193210616145876  0.6519211766102586  1.0000
  H   H10       1.0  0.010587434839493422  0.6673952116591976  0.3193196661748344  1.0000
  H   H11       1.0  0.34319696426977236  0.6519160802617279  0.3325956353452995  1.0000
  H   H12       1.0  0.691269217725008  0.6806791133090896  0.3480792017144622  1.0000
  H   H13       1.0  0.12899987996698303  0.4103723039110959  0.6774934854763401  1.0000
  H   H14       1.0  0.7186302007090576  0.2671303894960246  0.5896387567911817  1.0000
  H   H15       1.0  0.4515058654077465  0.3225065415164963  0.7328768193125939  1.0000
  H   H16       1.0  0.8710009357955999  0.5896278710075437  0.3225061807422166  1.0000
  H   H17       1.0  0.2813699567800825  0.7328684677539882  0.410361330732492  1.0000
  H   H18       1.0  0.5484934435107718  0.6774929745646148  0.26712268949945894  1.0000
  H   H19       1.0  0.14496822620947825  0.5283444510856157  0.6361305312712987  1.0000
  H   H20       1.0  0.6166225558230495  0.1077867184963992  0.4716622410071238  1.0000
  H   H21       1.0  0.5088421766794299  0.36387805548816493  0.8922201146098204  1.0000
  H   H22       1.0  0.8550320009886648  0.47165572383553905  0.3638694910003366  1.0000
  H   H23       1.0  0.38337701252319084  0.8922121387478725  0.528337122404409  1.0000
  H   H24       1.0  0.49115772109276185  0.6361214605945521  0.10777957823176372  1.0000
  H   H25       1.0  0.24431815095086057  0.7784770279455059  0.66977515725344  1.0000
  H   H26       1.0  0.4658425861425712  0.8913118301643478  0.2215316211311133  1.0000
  H   H27       1.0  0.5745339747985412  0.330231277281733  0.10869294939425327  1.0000
  H   H28       1.0  0.755681746821331  0.22152248813721087  0.33022453558814385  1.0000
  H   H29       1.0  0.534155285351659  0.1086883447462483  0.7784671249397946  1.0000
  H   H30       1.0  0.4254665815363196  0.6697695564737385  0.8913068622248231  1.0000
  H   H31       1.0  0.3509999252312426  0.9042797993473073  0.671531803108671  1.0000
  H   H32       1.0  0.4467291548652311  0.7672665740212918  0.09572297853570426  1.0000
  H   H33       1.0  0.6794536112987899  0.32845340425940606  0.2327281159873422  1.0000
  H   H34       1.0  0.6490003022561341  0.09572037557797591  0.32846875924556684  1.0000
  H   H35       1.0  0.5532708126159562  0.23273425973256684  0.9042766490538412  1.0000
  H   H36       1.0  0.32054661589935324  0.671546770661749  0.767271906284293  1.0000
  H   H37       1.0  0.1304079408750949  0.9202473520828033  0.5100430992782136  1.0000
  H   H38       1.0  0.21016894402104214  0.5898016981061858  0.07974298037309067  1.0000
  H   H39       1.0  0.6203653899120168  0.48993539655280927  0.4102076699093331  1.0000
  H   H40       1.0  0.8695922863230481  0.0797528228383513  0.4899569229934215  1.0000
  H   H41       1.0  0.7898318723200077  0.41019847682070315  0.9202577660106785  1.0000
  H   H42       1.0  0.37963450786017466  0.5100641195299075  0.589792022932251  1.0000
  H   H43       1.0  0.021509977078615322  0.7928837778988935  0.5056700814508305  1.0000
  H   H44       1.0  0.2286273317980729  0.7127901932627764  0.20710634749320186  1.0000
  H   H45       1.0  0.5158424245974941  0.49432490290369907  0.287225547237604  1.0000
  H   H46       1.0  0.9784908389732009  0.20711639702387427  0.49433012485032884  1.0000
  H   H47       1.0  0.771372566263345  0.28720932282406847  0.7928938854309918  1.0000
  H   H48       1.0  0.48415813202660013  0.5056759308559008  0.7127748044640825  1.0000
  H   H49       1.0  0.7964608720743201  0.5913571467213854  0.47632344182800773  1.0000
  H   H50       1.0  0.20510861155984367  0.8849494747008392  0.4086424786459304  1.0000
  H   H51       1.0  0.320144030092152  0.5236845379860496  0.11503988633189265  1.0000
  H   H52       1.0  0.20353902569787155  0.40864236936133125  0.5236762510135762  1.0000
  H   H53       1.0  0.7948910270738595  0.11505070022283799  0.5913578996787833  1.0000
  H   H54       1.0  0.6798552788263664  0.47631497809505424  0.8849596224801674  1.0000
  H   H55       1.0  0.6954687952370263  0.6561165602384944  0.4555445156133614  1.0000
  H   H56       1.0  0.03935738743047766  0.7994116109968343  0.3438854784881541  1.0000
  H   H57       1.0  0.23991564466834353  0.5444510095760933  0.20056438486904676  1.0000
  H   H58       1.0  0.3045308433966838  0.3438836146851756  0.5444558627113523  1.0000
  H   H59       1.0  0.9606425106309402  0.20058790509000352  0.6561147544360324  1.0000
  H   H60       1.0  0.7600842533930744  0.4555485065107446  0.7994358480551469  1.0000
  H   H61       1.0  0.92094693993959  0.9154780197634266  0.6442950020416589  1.0000
  H   H62       1.0  0.005458377921392816  0.7287929605504928  0.08451425609718649  1.0000
  H   H63       1.0  0.2766469101897755  0.3557082790782004  0.2711814154019336  1.0000
  H   H64       1.0  0.07905210984044692  0.0845221551586377  0.3557051922535237  1.0000
  H   H65       1.0  0.9945424381304163  0.27120721437226797  0.9154859502039797  1.0000
  H   H66       1.0  0.723352987582416  0.6442912370045163  0.7288182774396503  1.0000
  H   H67       1.0  0.023856497948514774  0.8518066589449873  0.6650201705553087  1.0000
  H   H68       1.0  0.17204022867800003  0.8131995951959893  0.14818997725988226  1.0000
  H   H69       1.0  0.358837670409322  0.33499254717990096  0.18679037300568516  1.0000
  H   H70       1.0  0.9761428112592444  0.14819285714024485  0.33497987833935383  1.0000
  H   H71       1.0  0.8279605876630427  0.18680057973090664  0.8518107691238869  1.0000
  H   H72       1.0  0.6411625570780473  0.6650076277453819  0.8132101893485598  1.0000
  H   H73       1.0  0.1428022070916982  0.638060112620785  0.6014390027193173  1.0000
  H   H74       1.0  0.5047417790960297  0.9633869183463445  0.36193910136609736  1.0000
  H   H75       1.0  0.5413640420526633  0.3985664831030107  0.03662381372495814  1.0000
  H   H76       1.0  0.8571983498216299  0.3619407211429291  0.3985618890649789  1.0000
  H   H77       1.0  0.4952575298224888  0.036612597734759306  0.6380604074459555  1.0000
  H   H78       1.0  0.45863618485624613  0.601433691814023  0.9633756684640672  1.0000
  C   C1        1.0  0.9284487385004568  0.40409884315240413  0.6380341740438809  1.0000
  C   C2        1.0  0.5243463892722176  0.2339375635722121  0.595905153967628  1.0000
  C   C3        1.0  0.2904160278767023  0.361971004549737  0.7660644574932647  1.0000
  C   C4        1.0  0.07155207755135956  0.5959013317703563  0.3619660322572856  1.0000
  C   C5        1.0  0.47565383792592536  0.7660626113489427  0.40409486830400704  1.0000
  C   C6        1.0  0.7095836104677674  0.638029170369812  0.23393538074883924  1.0000
  C   C7        1.0  0.9962497958682521  0.38189824760328145  0.6604666396055306  1.0000
  C   C8        1.0  0.6143486223429094  0.2785758667485823  0.6181075648803046  1.0000
  C   C9        1.0  0.33578284707066786  0.33953600221386887  0.7214289426474849  1.0000
  C   C10       1.0  0.0037510198943238073  0.6181019273153581  0.3395330266130259  1.0000
  C   C11       1.0  0.3856516048552336  0.7214243081725796  0.38189245739133065  1.0000
  C   C12       1.0  0.6642167912738016  0.66046417270568  0.278570895594619  1.0000
  C   C13       1.0  0.07477435481078488  0.42614665121318035  0.6591924779537948  1.0000
  C   C14       1.0  0.6486239637766502  0.23305196261395617  0.5738584759042168  1.0000
  C   C15       1.0  0.4155820336672704  0.34080924824810666  0.7669536608953038  1.0000
  C   C16       1.0  0.9252264612410245  0.5738535237095803  0.3408077283473716  1.0000
  C   C17       1.0  0.3513759342847749  0.7669475534728887  0.4261417570199768  1.0000
  C   C18       1.0  0.5844181935308727  0.6591909266730552  0.23304636137633142  1.0000
  C   C19       1.0  0.0840060429252247  0.4914983810510165  0.6364470569325463  1.0000
  C   C20       1.0  0.5925051899546291  0.14495191963688817  0.5085047509351315  1.0000
  C   C21       1.0  0.44756209995104973  0.3635568974276282  0.8550539467405116  1.0000
  C   C22       1.0  0.9159941842729182  0.5085017938701383  0.36355296533908904  1.0000
  C   C23       1.0  0.40749529696046244  0.8550475964515626  0.49149566601859374  1.0000
  C   C24       1.0  0.5524375386826534  0.6364432774960418  0.144946431584202  1.0000
  C   C25       1.0  0.013587226172802573  0.5112718408840422  0.6161491078832242  1.0000
  C   C26       1.0  0.5023116796200925  0.10487870828514899  0.48873304969733067  1.0000
  C   C27       1.0  0.3974388837131073  0.3838552587189882  0.895123872368707  1.0000
  C   C28       1.0  0.9864133307405254  0.48872899287967897  0.38385178390106484  1.0000
  C   C29       1.0  0.497688218730559  0.895120807805817  0.5112677233094728  1.0000
  C   C30       1.0  0.6025604252054109  0.6161442573621229  0.104875636443353  1.0000
  C   C31       1.0  0.016583836082212124  0.5823930319555187  0.5984041200332585  1.0000
  C   C32       1.0  0.43418748535292917  0.0160117321892841  0.4176060765179557  1.0000
  C   C33       1.0  0.41818231335644634  0.40160168726848156  0.9839920501662222  1.0000
  C   C34       1.0  0.9834163911159309  0.41760714296563606  0.4015959022383769  1.0000
  C   C35       1.0  0.565812412708496  0.9839877838975537  0.5823941564062382  1.0000
  C   C36       1.0  0.5818179138416968  0.5983984876526803  0.0160079721054132  1.0000
  C   C37       1.0  0.9760812766926392  0.6773499135899214  0.5805712662090767  1.0000
  C   C38       1.0  0.29873008927700784  0.9032157316431577  0.3226477199755208  1.0000
  C   C39       1.0  0.39551259104793257  0.41943683438502427  0.09678313660725732  1.0000
  C   C40       1.0  0.023918361651837507  0.32265026132962044  0.41942857203302714  1.0000
  C   C41       1.0  0.7012695490674618  0.09678444327638397  0.6773521182665831  1.0000
  C   C42       1.0  0.6044885544298355  0.5805639993761745  0.9032173991239533  1.0000
  C   C43       1.0  0.06250318580325842  0.703332166765257  0.5884151479538033  1.0000
  C   C44       1.0  0.3591699426897038  0.8850863689981027  0.29666428442331494  1.0000
  C   C45       1.0  0.4740881491830536  0.4115896066807635  0.1149215831571553  1.0000
  C   C46       1.0  0.937496452541211  0.29666800815429173  0.41158469028830774  1.0000
  C   C47       1.0  0.6408300247914838  0.11491446475575628  0.7033353431662306  1.0000
  C   C48       1.0  0.5259124074410408  0.5884112270788291  0.885078768544531  1.0000
  C   C49       1.0  0.1247366648821143  0.7772450025168283  0.5885987115548303  1.0000
  C   C50       1.0  0.3474929806156125  0.8113594379335891  0.22274931203229886  1.0000
  C   C51       1.0  0.5361365343987644  0.41140176422430125  0.18864871109043688  1.0000
  C   C52       1.0  0.8752635623160288  0.22275517240432655  0.41140131071680497  1.0000
  C   C53       1.0  0.6525060688751907  0.18864073698434677  0.7772503421802809  1.0000
  C   C54       1.0  0.4638649407941813  0.5885997283794707  0.8113526941534346  1.0000
  C   C55       1.0  0.21837690295198794  0.8091178872991802  0.6347552014735669  1.0000
  C   C56       1.0  0.4092639412172687  0.8256460702901051  0.19088326403042544  1.0000
  C   C57       1.0  0.5836166350034304  0.3652442934458974  0.17435774878777718  1.0000
  C   C58       1.0  0.781623324246148  0.1908822876219745  0.36524482079806836  1.0000
  C   C59       1.0  0.5907351079843012  0.17435410462370982  0.8091158500995449  1.0000
  C   C60       1.0  0.4163839213314376  0.6347565403095744  0.8256420628312994  1.0000
  C   C61       1.0  0.27863086068351356  0.8797470929879623  0.6360241580568058  1.0000
  C   C62       1.0  0.39889474821174514  0.756287905040146  0.12025574896135524  1.0000
  C   C63       1.0  0.6425990061754874  0.363964725590847  0.24371179183116004  1.0000
  C   C64       1.0  0.7213693665146296  0.12025308193319262  0.3639758642148294  1.0000
  C   C65       1.0  0.6011048901327315  0.24371226987940278  0.8797440892807558  1.0000
  C   C66       1.0  0.3574021390130468  0.6360361081662373  0.7562882038174479  1.0000
  C   C67       1.0  0.2476192851672536  0.9207487320037159  0.5917720387373678  1.0000
  C   C68       1.0  0.3268816250917084  0.671033554463527  0.07925164254024954  1.0000
  C   C69       1.0  0.6558402960778125  0.4082114767117132  0.32896741462603524  1.0000
  C   C70       1.0  0.7523809417416557  0.07925144291331779  0.40822744345165773  1.0000
  C   C71       1.0  0.6731183426787126  0.32896727929445996  0.9207485251319056  1.0000
  C   C72       1.0  0.34415934197742365  0.5917886982037075  0.6710318835334589  1.0000
  C   C73       1.0  0.15436026249698642  0.8888850682385366  0.5452470046463205  1.0000
  C   C74       1.0  0.26548294386270044  0.6563667739050701  0.11110875842834397  1.0000
  C   C75       1.0  0.6091092553816964  0.45473526336082404  0.3436383754701708  1.0000
  C   C76       1.0  0.845639635275205  0.11111444784418008  0.45475268819526365  1.0000
  C   C77       1.0  0.7345166941925355  0.34363340101035067  0.8888905397311505  1.0000
  C   C78       1.0  0.3908909718164467  0.5452649115603307  0.6563616468014574  1.0000
  C   C79       1.0  0.09369868871468158  0.817859237549733  0.5432315668379244  1.0000
  C   C80       1.0  0.27584100153092816  0.7253770768681349  0.1821321459671098  1.0000
  C   C81       1.0  0.5504644559372309  0.456760636129367  0.27463270340749096  1.0000
  C   C82       1.0  0.9063015384834614  0.18214093737142178  0.45676845543371064  1.0000
  C   C83       1.0  0.7241583073875902  0.27462243921296897  0.8178673628449501  1.0000
  C   C84       1.0  0.4495366895405368  0.5432401976318317  0.7253678323237268  1.0000
  C   C85       1.0  0.31365388545091105  0.9936449693915815  0.5898586828866214  1.0000
  C   C86       1.0  0.3200149752894959  0.5962208713837924  0.006350124023455812  1.0000
  C   C87       1.0  0.7237895438235642  0.41012730732253283  0.4037806333115697  1.0000
  C   C88       1.0  0.6863460123212803  0.006354546691127898  0.41014100995496255  1.0000
  C   C89       1.0  0.6799852519086471  0.4037793035373625  0.9936498982481796  1.0000
  C   C90       1.0  0.2762106833745789  0.5898728675986218  0.5962193889600654  1.0000
  C   C91       1.0  0.9178168918244652  0.7173167698288196  0.5700478637167878  1.0000
  C   C92       1.0  0.20049819713370454  0.8527162865742781  0.28268173014730275  1.0000
  C   C93       1.0  0.34777283348289256  0.42996144688145677  0.14727464599584283  1.0000
  C   C94       1.0  0.08218274680923802  0.2826834050948506  0.4299525146079262  1.0000
  C   C95       1.0  0.7995014415000058  0.14728388834939207  0.717318648177411  1.0000
  C   C96       1.0  0.6522273937152506  0.5700387280396982  0.8527253762757924  1.0000
  C   C97       1.0  0.8245539978670423  0.6624899573369802  0.5123394272000966  1.0000
  C   C98       1.0  0.16206584236758198  0.8498336266951084  0.3375108443718702  1.0000
  C   C99       1.0  0.3122170032767926  0.4876675674792708  0.1501528772066507  1.0000
  C   C100      1.0  0.17544564047742744  0.3375102175825688  0.4876604110420076  1.0000
  C   C101      1.0  0.8379343851197876  0.15016654823017467  0.6624897179823748  1.0000
  C   C102      1.0  0.6877832239213503  0.512332607441884  0.8498471450649845  1.0000
  C   C103      1.0  0.7677333146205998  0.6985044492075119  0.500658019002401  1.0000
  C   C104      1.0  0.06922976884268196  0.8021395365211887  0.3014931064101988  1.0000
  C   C105      1.0  0.2670697151127328  0.49934182794275017  0.1978414301132077  1.0000
  C   C106      1.0  0.2322659945871521  0.30149506687772737  0.4993420298922686  1.0000
  C   C107      1.0  0.9307701292187361  0.19785997956565637  0.6985071265139879  1.0000
  C   C108      1.0  0.7329305120854102  0.5006583469784046  0.8021585921584203  1.0000
  C   C109      1.0  0.8022033095775783  0.7898102316010878  0.5466149881010979  1.0000
  C   C110      1.0  0.012391507322611545  0.7567924683938402  0.21019051377184184  1.0000
  C   C111      1.0  0.25557782720312616  0.45338376086137083  0.24318801581408414  1.0000
  C   C112      1.0  0.19779632934536553  0.21018994332671065  0.4533859303062258  1.0000
  C   C113      1.0  0.9876087198755316  0.24320770652731472  0.7898095084997934  1.0000
  C   C114      1.0  0.744422070858299  0.5466157552254742  0.7568122171101096  1.0000
  C   C115      1.0  0.8947428744658269  0.8446548519544166  0.606881743457592  1.0000
  C   C116      1.0  0.05008046501336591  0.7622096692314172  0.15534261952637957  1.0000
  C   C117      1.0  0.28785723349076864  0.393122654476464  0.23777144133418193  1.0000
  C   C118      1.0  0.1052561756034436  0.15534532297177608  0.3931189909202004  1.0000
  C   C119      1.0  0.9499200918999622  0.23779116453230387  0.8446582722579168  1.0000
  C   C120      1.0  0.7121429939966079  0.6068775204488189  0.7622291210200629  1.0000
  C   C121      1.0  0.9520299271383053  0.8087965008921427  0.6181129666880026  1.0000
  C   C122      1.0  0.14322532930309953  0.8092989470124293  0.19119981583430948  1.0000
  C   C123      1.0  0.33391797744798885  0.3818983838016834  0.1906872047839059  1.0000
  C   C124      1.0  0.04797095920097411  0.1912049917100163  0.3818882545263378  1.0000
  C   C125      1.0  0.8567748978950435  0.19070122790872548  0.8088002064373255  1.0000
  C   C126      1.0  0.6660822497501542  0.6181017911194714  0.8093128174877293  1.0000
  C   C127      1.0  0.7404851845977802  0.8268939540990771  0.5273144489877949  1.0000
  C   C128      1.0  0.9135863854360053  0.7004178917261469  0.17310922677717128  1.0000
  C   C129      1.0  0.21315541374880811  0.4726808189715968  0.2995680582757316  1.0000
  C   C130      1.0  0.25951412460997153  0.17310556198615504  0.4726855999068675  1.0000
  C   C131      1.0  0.08641443090504447  0.2995822832007419  0.8268915196066047  1.0000
  C   C132      1.0  0.7868444840233835  0.5273186971111202  0.7004316345658523  1.0000
  N   N1        1.0  0.9367755569154071  0.4672487520245597  0.6164171432394951  1.0000
  N   N2        1.0  0.4695259092091463  0.14917058824850932  0.5327568531801602  1.0000
  N   N3        1.0  0.3203599737124421  0.3835860888062185  0.8508311703688207  1.0000
  N   N4        1.0  0.06322525913640929  0.532751422898201  0.3835830630616712  1.0000
  N   N5        1.0  0.5304739888522789  0.8508289278383359  0.46724337974403346  1.0000
  N   N6        1.0  0.6796399243489831  0.6164134272806265  0.14916906255537293  1.0000
  N   N7        1.0  0.949405949891123  0.6019646371190818  0.586287646551405  1.0000
  N   N8        1.0  0.34743859215464556  0.9843196712507588  0.3980337396109732  1.0000
  N   N9        1.0  0.36312026801602565  0.4137181676717318  0.01567945215219158  1.0000
  N   N10       1.0  0.05059368845334689  0.3980355378004674  0.4137121916906992  1.0000
  N   N11       1.0  0.6525613056175388  0.015679844831957696  0.6019659532306108  1.0000
  N   N12       1.0  0.636879370328444  0.5862820072478173  0.9843203860899126  1.0000
  N   N13       1.0  0.08533265359953639  0.6420229755282347  0.5995150717733181  1.0000
  N   N14       1.0  0.44330897308476835  0.9574975336201702  0.35797584927084347  1.0000
  N   N15       1.0  0.48581870973117713  0.4004903095121223  0.04251064230830783  1.0000
  N   N16       1.0  0.9146675735986066  0.3579771993929198  0.40048495049830984  1.0000
  N   N17       1.0  0.5566909243981897  0.04250198245841828  0.6420233034881377  1.0000
  N   N18       1.0  0.5141818468929172  0.5995105242474706  0.9574897093933786  1.0000
  O   O1        1.0  0.2790608108423029  0.024790975535914597  0.544376971379762  1.0000
  O   O2        1.0  0.25426861542946  0.5195951040593485  0.9751983480581503  1.0000
  O   O3        1.0  0.7346722284474367  0.45560601467563794  0.4804073132729343  1.0000
  O   O4        1.0  0.7209390866406551  0.9752085405426739  0.4556221813792194  1.0000
  O   O5        1.0  0.7457327897652563  0.48040507086914624  0.02480258235514999  1.0000
  O   O6        1.0  0.26532799875070623  0.5443941602455169  0.5195927089987009  1.0000
  O   O7        1.0  0.3964439381901387  0.017189356938572993  0.6291218295568939  1.0000
  O   O8        1.0  0.3792536942015802  0.6119369733595406  0.9828026561171086  1.0000
  O   O9        1.0  0.767314085431714  0.3708638822046168  0.3880648485215445  1.0000
  O   O10       1.0  0.6035553707283798  0.9828101591425379  0.37087767925515885  1.0000
  O   O11       1.0  0.6207465329965629  0.3880632015616142  0.01719736615452659  1.0000
  O   O12       1.0  0.23268614176642893  0.6291362927165379  0.6119351737500907  1.0000
  O   O13       1.0  0.6664896724832089  0.7812248596001721  0.4556795141041832  1.0000
  O   O14       1.0  0.8852564484704146  0.6744739355813323  0.21878614349041925  1.0000
  O   O15       1.0  0.21076566758613774  0.5442977864578323  0.325510616912787  1.0000
  O   O16       1.0  0.3335096364353092  0.21877465648093158  0.5443199947078766  1.0000
  O   O17       1.0  0.11474344959101056  0.32552558050550573  0.7812140894337747  1.0000
  O   O18       1.0  0.7892342301860539  0.4557017296248844  0.674489075928797  1.0000
  O   O19       1.0  0.7663340308613656  0.9064270793291413  0.5841204458768701  1.0000
  O   O20       1.0  0.8599060879888255  0.6776801830338429  0.09357280462954504  1.0000
  O   O21       1.0  0.1822259812964333  0.4158873588590594  0.32231806893692283  1.0000
  O   O22       1.0  0.23366619633677743  0.09357309559201347  0.4158795763947651  1.0000
  O   O23       1.0  0.1400941392093173  0.32231999188731203  0.9064272176420899  1.0000
  O   O24       1.0  0.8177739164757581  0.5841121572236573  0.677681623904661  1.0000
