data_image0
_chemical_formula_structural       Zn2H36C44N4O8
_chemical_formula_sum              "Zn2 H36 C44 N4 O8"
_cell_length_a       6.878527935718578
_cell_length_b       9.366634187869664
_cell_length_c       15.893048675099978
_cell_angle_alpha    96.48128769882393
_cell_angle_beta     100.99305579273685
_cell_angle_gamma    90.52860582797734

_space_group_name_H-M_alt    "P 1"
_space_group_IT_number       1

loop_
  _space_group_symop_operation_xyz
  'x, y, z'

loop_
  _atom_site_type_symbol
  _atom_site_label
  _atom_site_symmetry_multiplicity
  _atom_site_fract_x
  _atom_site_fract_y
  _atom_site_fract_z
  _atom_site_occupancy
  Zn  Zn1       1.0  0.38437594290749627  0.3019278831096912  0.699192184818351  1.0000
  Zn  Zn2       1.0  0.6156182203453754  0.6980721151825336  0.3008067530081959  1.0000
  H   H1        1.0  0.5124026125550643  0.8207692907910766  0.7179289313196691  1.0000
  H   H2        1.0  0.4875973025276891  0.17922742093796976  0.2820671284471459  1.0000
  H   H3        1.0  0.058518753294009684  0.6795730221994346  0.8606865769014931  1.0000
  H   H4        1.0  0.9414832129784616  0.3204344938051875  0.13931978487047303  1.0000
  H   H5        1.0  0.24418504741532837  0.7957378468924076  0.7652844791871658  1.0000
  H   H6        1.0  0.7558121886149962  0.20426429851228534  0.23471736902046564  1.0000
  H   H7        1.0  0.06794830383594788  0.92893501243676  0.6497809959186612  1.0000
  H   H8        1.0  0.9320518441553957  0.0710660163943757  0.3502178770173997  1.0000
  H   H9        1.0  0.7764282640589923  0.009523408139905602  0.5713556885657881  1.0000
  H   H10       1.0  0.22358556216862266  0.9904839974617659  0.4286472489527284  1.0000
  H   H11       1.0  0.5937726326073188  0.8680261634167648  0.5484390327598092  1.0000
  H   H12       1.0  0.40623824654047525  0.1319812363838508  0.45155988377844386  1.0000
  H   H13       1.0  0.5228526580244902  0.7253621735369506  0.8587496131585652  1.0000
  H   H14       1.0  0.4771367726754078  0.2746324584652555  0.1412454403996009  1.0000
  H   H15       1.0  0.750949637032157  0.6691665283934469  0.9181170833280348  1.0000
  H   H16       1.0  0.24904139521611768  0.330830243510789  0.0818782408251195  1.0000
  H   H17       1.0  0.09856363142278471  0.15368227358943187  0.5371268458074993  1.0000
  H   H18       1.0  0.9014320123025001  0.8463177146735958  0.4628722146213207  1.0000
  H   H19       1.0  0.7681635725839087  0.20981995206501838  0.4530819060040301  1.0000
  H   H20       1.0  0.23182894013677918  0.7901768098100133  0.5469135407514045  1.0000
  H   H21       1.0  0.798691841658119  0.6062066250809721  0.6262142362192976  1.0000
  H   H22       1.0  0.20129146011900184  0.3937848695501813  0.3737870271961512  1.0000
  H   H23       1.0  0.1280938429335379  0.5356078449836162  0.697938987944177  1.0000
  H   H24       1.0  0.8718898779877904  0.464391183026656  0.3020640520377  1.0000
  H   H25       1.0  0.5085847367889117  0.3864408485393226  0.4224587883362432  1.0000
  H   H26       1.0  0.4914000477714636  0.6135506317527231  0.577541968385532  1.0000
  H   H27       1.0  0.5412723094133794  0.095952128133824  0.8191010578922544  1.0000
  H   H28       1.0  0.45873222638972067  0.9040477827143788  0.1808962209664244  1.0000
  H   H29       1.0  0.4299549734753398  0.9627785512839182  0.9299151793116422  1.0000
  H   H30       1.0  0.5700630612609247  0.03722450712806588  0.07008531284445502  1.0000
  H   H31       1.0  0.8880796728012398  0.2019007760962239  0.8896159211133821  1.0000
  H   H32       1.0  0.11192607590317749  0.798094872269317  0.11038810661761289  1.0000
  H   H33       1.0  0.012850633411346702  0.3124790274088838  0.7787920449706363  1.0000
  H   H34       1.0  0.9871507436571463  0.6875177087702368  0.22120917176607688  1.0000
  H   H35       1.0  0.18664854902652914  0.9091366974274778  0.00970651645774721  1.0000
  H   H36       1.0  0.813384260393029  0.09086631672133899  0.9903033825684985  1.0000
  C   C1        1.0  0.7770512456713163  0.8818267337223417  0.6750084760520778  1.0000
  C   C2        1.0  0.22294736593129724  0.11817322155255988  0.3249889416934408  1.0000
  C   C3        1.0  0.6737723486825827  0.8171077287290485  0.7294942432455259  1.0000
  C   C4        1.0  0.3262338515177134  0.18289539267688326  0.2705027509085483  1.0000
  C   C5        1.0  0.7732065682733306  0.7456774151933913  0.7972882336837301  1.0000
  C   C6        1.0  0.22678919421708343  0.2543247273107737  0.20271160403375893  1.0000
  C   C7        1.0  0.9799118486425512  0.737903367403064  0.8094266483461255  1.0000
  C   C8        1.0  0.020088341400104102  0.26209877087296013  0.1905773329539144  1.0000
  C   C9        1.0  0.08367114038060208  0.8030892675936199  0.7560154188129644  1.0000
  C   C10       1.0  0.9163292848814776  0.1969171834745822  0.2439907463603745  1.0000
  C   C11       1.0  0.9839929828889921  0.8763286794025615  0.6898262765732213  1.0000
  C   C12       1.0  0.016011541359944197  0.12367125299518729  0.3101741487652205  1.0000
  C   C13       1.0  0.6691286591820501  0.9512773216089766  0.5987491446041631  1.0000
  C   C14       1.0  0.3308807279391602  0.0487301097703821  0.40125279581156553  1.0000
  C   C15       1.0  0.5155217812138773  0.05520256182503398  0.623599708718146  1.0000
  C   C16       1.0  0.48448015456146004  0.9448038231851611  0.3763983982100783  1.0000
  C   C17       1.0  0.6613408245399481  0.670360988915405  0.8532605267221811  1.0000
  C   C18       1.0  0.3386489042281866  0.32963902653468585  0.1467361554096769  1.0000
  C   C19       1.0  0.6071087897244922  0.5142295598495182  0.8134517651023289  1.0000
  C   C20       1.0  0.3928970028857676  0.48576600662775604  0.1865403060055684  1.0000
  C   C21       1.0  0.0259299062020872  0.2534876802461028  0.5526478351615866  1.0000
  C   C22       1.0  0.9740656095147315  0.7465101710154228  0.4473529651623736  1.0000
  C   C23       1.0  0.8425515168361386  0.2864396998700016  0.5067154200870547  1.0000
  C   C24       1.0  0.15743967391773592  0.7135603400301633  0.4932864190147015  1.0000
  C   C25       1.0  0.7523263432730615  0.41428681807147427  0.5320850930105224  1.0000
  C   C26       1.0  0.2476589163478238  0.5857132791851213  0.46791877286593575  1.0000
  C   C27       1.0  0.8571560227376478  0.504882668656407  0.6030549242166643  1.0000
  C   C28       1.0  0.14282892726082247  0.49511206670184277  0.3969504595658577  1.0000
  C   C29       1.0  0.041199284995698776  0.46621196014132926  0.6441593640760033  1.0000
  C   C30       1.0  0.9587856021539664  0.5337817045612142  0.3558465750061046  1.0000
  C   C31       1.0  0.5583726792707465  0.4489055415612099  0.48544881507662313  1.0000
  C   C32       1.0  0.44160605308066897  0.5510838461560398  0.5145538204271389  1.0000
  C   C33       1.0  0.3977951667409201  0.11465445987837342  0.8372871903378823  1.0000
  C   C34       1.0  0.602218170561173  0.8853443546182052  0.1627164138016681  1.0000
  C   C35       1.0  0.3356364072203775  0.04281741980369699  0.8994541840222752  1.0000
  C   C36       1.0  0.6643814971965937  0.9571835059166955  0.1005486773249089  1.0000
  C   C37       1.0  0.14926560484265383  0.0700502048283695  0.9212857530917307  1.0000
  C   C38       1.0  0.8507595272549364  0.9299474329194622  0.07871561138991008  1.0000
  C   C39       1.0  0.0336426078274101  0.1717357435086413  0.8774966093691177  1.0000
  C   C40       1.0  0.9663674076128075  0.8282566369427399  0.12250567629177309  1.0000
  C   C41       1.0  0.10433840045907766  0.23672734919280453  0.8146806455756135  1.0000
  C   C42       1.0  0.8956674180266545  0.7632693568987179  0.1853209389679265  1.0000
  C   C43       1.0  0.08520185820595569  0.9905750200494123  0.9851508438944307  1.0000
  C   C44       1.0  0.9148193634512296  0.009432348335991502  0.014854594523320887  1.0000
  N   N1        1.0  0.12531849557328914  0.3423495087508642  0.6200980673745208  1.0000
  N   N2        1.0  0.8746696108489617  0.6576484055863787  0.3799040078259139  1.0000
  N   N3        1.0  0.283405981542053  0.20956657956241287  0.7947606809927662  1.0000
  N   N4        1.0  0.7165958285356452  0.7904376641363695  0.20523853653464388  1.0000
  O   O1        1.0  0.33720765677384174  0.015605477922541399  0.6133192379103536  1.0000
  O   O2        1.0  0.6627959688178535  0.984404070236387  0.3866716620578003  1.0000
  O   O3        1.0  0.5851716549739124  0.1826669506667713  0.6569327838340442  1.0000
  O   O4        1.0  0.4148288539344874  0.8173405322679557  0.34306716237612284  1.0000
  O   O5        1.0  0.46877604273782947  0.5031672260793059  0.7442851290669594  1.0000
  O   O6        1.0  0.5312154040329773  0.49683708782386293  0.2557132302445169  1.0000
  O   O7        1.0  0.6935472952036648  0.41163295656652815  0.8459206832533114  1.0000
  O   O8        1.0  0.30647335296908546  0.5883624148007627  0.1540587693663937  1.0000
