data_image0
_chemical_formula_structural       Zn4H46C56N10O22
_chemical_formula_sum              "Zn4 H46 C56 N10 O22"
_cell_length_a       8.020840570213883
_cell_length_b       9.730279557327046
_cell_length_c       19.276962860282456
_cell_angle_alpha    85.64500798588337
_cell_angle_beta     86.12341064544857
_cell_angle_gamma    70.30749728695439

_space_group_name_H-M_alt    "P 1"
_space_group_IT_number       1

loop_
  _space_group_symop_operation_xyz
  'x, y, z'

loop_
  _atom_site_type_symbol
  _atom_site_label
  _atom_site_symmetry_multiplicity
  _atom_site_fract_x
  _atom_site_fract_y
  _atom_site_fract_z
  _atom_site_occupancy
  Zn  Zn1       1.0  0.5861339682709072  0.7610765412862859  0.4010947364390702  1.0000
  Zn  Zn2       1.0  0.41386052227843345  0.23892045517654734  0.5989077095917565  1.0000
  Zn  Zn3       1.0  0.5125119137772528  0.10116610518152667  0.9126188929714515  1.0000
  Zn  Zn4       1.0  0.4874833311054656  0.8988385106869714  0.08738168269458411  1.0000
  H   H1        1.0  0.27244052825906095  0.1895799441050911  0.215268200854986  1.0000
  H   H2        1.0  0.7275489327855522  0.810420337312436  0.784733197559831  1.0000
  H   H3        1.0  0.22349043462869378  0.4536670880645417  0.18497818938287483  1.0000
  H   H4        1.0  0.7765124979398903  0.5463309233380329  0.8150203880092804  1.0000
  H   H5        1.0  0.34661268591193545  0.5937883999486288  0.258623602593687  1.0000
  H   H6        1.0  0.6533936051661154  0.4062074195861313  0.7413755002225672  1.0000
  H   H7        1.0  0.5713603753399493  0.20413837564056078  0.3894647563402814  1.0000
  H   H8        1.0  0.42863120899549023  0.7958597137129929  0.6105366776249141  1.0000
  H   H9        1.0  0.7510410956641137  0.9475807727003338  0.46459755424385213  1.0000
  H   H10       1.0  0.24895204848210975  0.05242277226891899  0.5354041498319546  1.0000
  H   H11       1.0  0.9299231863849682  0.9340198634831861  0.5685383726190808  1.0000
  H   H12       1.0  0.07008014892232237  0.06597706602440212  0.4314612750107756  1.0000
  H   H13       1.0  0.9300166612444513  0.49306589038492626  0.6124684943278141  1.0000
  H   H14       1.0  0.06998367921880086  0.5069354177527429  0.3875310531152465  1.0000
  H   H15       1.0  0.7553009094751457  0.5226380878135543  0.5059538094427297  1.0000
  H   H16       1.0  0.24469981720785228  0.4773621441231625  0.49404732719777666  1.0000
  H   H17       1.0  0.07843158527584387  0.056371919369816184  0.740105229000598  1.0000
  H   H18       1.0  0.9215628766837936  0.9436315973254278  0.2598943701501852  1.0000
  H   H19       1.0  0.22930662049552805  0.18713142960160664  0.8076893711617359  1.0000
  H   H20       1.0  0.7706933172290173  0.8128709604310487  0.1923091060436164  1.0000
  H   H21       1.0  0.47558751760817586  0.8086617120942207  0.9282421439467258  1.0000
  H   H22       1.0  0.52440651461022  0.19133964061488473  0.07175910580574651  1.0000
  H   H23       1.0  0.3481130438786976  0.6624582090048462  0.8616322641274935  1.0000
  H   H24       1.0  0.6518831281494784  0.3375409459462516  0.1383685022156129  1.0000
  H   H25       1.0  0.0003516449867790124  0.6282017432912494  0.8889237288775503  1.0000
  H   H26       1.0  0.9996578708619451  0.3718016960415156  0.11107448332133171  1.0000
  H   H27       1.0  0.9617942212021473  0.8935383726198224  0.06061604587734591  1.0000
  H   H28       1.0  0.038209002920680676  0.10646510559034539  0.9393833496711963  1.0000
  H   H29       1.0  0.22369596329811964  0.7033743900652425  0.11198159709962141  1.0000
  H   H30       1.0  0.7763043546108006  0.2966301810356526  0.8880167863832823  1.0000
  H   H31       1.0  0.37294125975989795  0.47181803893037266  0.0514313001811431  1.0000
  H   H32       1.0  0.627068642308579  0.5281843242014331  0.9485685012151849  1.0000
  H   H33       1.0  0.20218437471079645  0.548938980103685  0.8014038148118416  1.0000
  H   H34       1.0  0.7978180560053684  0.45106014735807776  0.19859680610109365  1.0000
  H   H35       1.0  0.9282215448499395  0.7289814185751382  0.3300351470418407  1.0000
  H   H36       1.0  0.07177627561916466  0.2710199062522988  0.6699649775330345  1.0000
  H   H37       1.0  0.3715488761542359  0.7027208641491427  0.5156789944099103  1.0000
  H   H38       1.0  0.6284494747569835  0.2972728243866882  0.48432193352423525  1.0000
  H   H39       1.0  0.6021790094717118  0.13938137310724127  0.7806923394089154  1.0000
  H   H40       1.0  0.3978205541038305  0.8606155785879819  0.21930791443879372  1.0000
  H   H41       1.0  0.2601334045000171  0.7768849659674684  0.4507120733507222  1.0000
  H   H42       1.0  0.7398647856698797  0.22311528835304978  0.54929015938135  1.0000
  H   H43       1.0  0.47927872562318163  0.28543326430294513  0.8178616427737566  1.0000
  H   H44       1.0  0.5207270080102188  0.7145669456423037  0.182139377522617  1.0000
  H   H45       1.0  0.8644115653719734  0.6000314149519497  0.3091321828347589  1.0000
  H   H46       1.0  0.13558578628261123  0.3999710145466081  0.6908689473414071  1.0000
  C   C1        1.0  0.44920893728814787  0.023835866754161796  0.32357030327708  1.0000
  C   C2        1.0  0.5507737857703812  0.9761622952486633  0.6764344480488376  1.0000
  C   C3        1.0  0.42410996084016955  0.181610015702482  0.30445900590199676  1.0000
  C   C4        1.0  0.5758794671665368  0.8183902771031056  0.6955434304323163  1.0000
  C   C5        1.0  0.32635458017659147  0.25154515440254943  0.24679603361271774  1.0000
  C   C6        1.0  0.6736416083705304  0.7484539948545148  0.7532042137706442  1.0000
  C   C7        1.0  0.29930479875328325  0.3994198228326126  0.23007436559089461  1.0000
  C   C8        1.0  0.7006977866688258  0.600575996113662  0.76992326760422  1.0000
  C   C9        1.0  0.36772517041532626  0.4780981270963238  0.2709122872303311  1.0000
  C   C10       1.0  0.6322773654499226  0.5218977089320447  0.7290869028440171  1.0000
  C   C11       1.0  0.46571019933514163  0.40846935311220983  0.3291260493233636  1.0000
  C   C12       1.0  0.5342914814958488  0.5915286637882318  0.6708725571548229  1.0000
  C   C13       1.0  0.4948539822679193  0.2600792503943481  0.345027586298599  1.0000
  C   C14       1.0  0.5051484980051056  0.7399198599853135  0.6549714777350959  1.0000
  C   C15       1.0  0.5353542849806415  0.4944260514983938  0.3738799215893352  1.0000
  C   C16       1.0  0.46464825088460754  0.5055697845299746  0.6261192684850131  1.0000
  C   C17       1.0  0.7980552752728584  0.8477518094532709  0.49788669225002025  1.0000
  C   C18       1.0  0.2019479714042944  0.15224840579367074  0.5021138672586717  1.0000
  C   C19       1.0  0.8962306415466087  0.8400170873466236  0.5555088251798992  1.0000
  C   C20       1.0  0.10377264420382197  0.15997985924306585  0.4444923793291978  1.0000
  C   C21       1.0  0.9453396338421167  0.7116016009276079  0.5988410133119971  1.0000
  C   C22       1.0  0.05465985762224078  0.2883986308129422  0.40115963345479605  1.0000
  C   C23       1.0  0.896963753494276  0.5942958712482421  0.5802999836091589  1.0000
  C   C24       1.0  0.10303486641685565  0.4057065470584149  0.4197005985212244  1.0000
  C   C25       1.0  0.7995396430887564  0.6095325357883609  0.5218554219449487  1.0000
  C   C26       1.0  0.2004610505563419  0.3904677075364233  0.4781467526150536  1.0000
  C   C27       1.0  0.03389269752415196  0.7048774801945255  0.6632153099081394  1.0000
  C   C28       1.0  0.9661093695265914  0.2951194605049636  0.3367848857674929  1.0000
  C   C29       1.0  0.13535143503491995  0.7685754040667091  0.7494619341861153  1.0000
  C   C30       1.0  0.8646497604625976  0.23142372319888685  0.2505381968531069  1.0000
  C   C31       1.0  0.20244446866971072  0.8487327033974097  0.7948896397831716  1.0000
  C   C32       1.0  0.7975508092509144  0.15127190108302094  0.20510989796336793  1.0000
  C   C33       1.0  0.1663844338836425  0.9991501857875491  0.7812682424225275  1.0000
  C   C34       1.0  0.8336142746576342  0.0008489467797474999  0.21873142782901311  1.0000
  C   C35       1.0  0.24915312582145074  0.0714679285869408  0.8189426002539122  1.0000
  C   C36       1.0  0.7508426765059178  0.9285322968710831  0.18105605793200402  1.0000
  C   C37       1.0  0.3878158800401932  0.859662729833971  0.8859095070076465  1.0000
  C   C38       1.0  0.6121781356592492  0.14033862856917514  0.11409226170457741  1.0000
  C   C39       1.0  0.31334291271040343  0.779257288118103  0.8493192455841623  1.0000
  C   C40       1.0  0.6866515552846052  0.22074297130794918  0.15068203648651493  1.0000
  C   C41       1.0  0.2954705700863868  0.4035154276577728  0.92560764878759  1.0000
  C   C42       1.0  0.7045302452267561  0.5964815185395835  0.07439257597408042  1.0000
  C   C43       1.0  0.19818769376206546  0.5349620045640932  0.9658207420741222  1.0000
  C   C44       1.0  0.8018122499978514  0.4650371281993699  0.034179418051131415  1.0000
  C   C45       1.0  0.05072463359071832  0.6425866372795354  0.9378797180661921  1.0000
  C   C46       1.0  0.949279042827669  0.3574157419535524  0.062119190840810704  1.0000
  C   C47       1.0  0.9636617216996155  0.7708151131328478  0.9720890173566873  1.0000
  C   C48       1.0  0.036340267204565166  0.22918836488115343  0.0279098883181419  1.0000
  C   C49       1.0  0.8103290618273247  0.8830882915854302  0.9375325106501221  1.0000
  C   C50       1.0  0.1896813465417749  0.11691946433154499  0.062461362425878506  1.0000
  C   C51       1.0  0.026537596531895156  0.7918364705537255  0.03505842347012592  1.0000
  C   C52       1.0  0.9734647560377069  0.20816919422254895  0.9649409074419993  1.0000
  C   C53       1.0  0.17330202208253806  0.6845391441715944  0.06371745153857232  1.0000
  C   C54       1.0  0.8266999277483646  0.3154676024996661  0.9362808091358517  1.0000
  C   C55       1.0  0.2578156152063044  0.5558738482995835  0.02974267497960171  1.0000
  C   C56       1.0  0.7421842564424279  0.4441285645092066  0.970257878064743  1.0000
  N   N1        1.0  0.7496870568673797  0.7343270379674677  0.4814181032354696  1.0000
  N   N2        1.0  0.2503086568298513  0.26567647322991667  0.518581466829275  1.0000
  N   N3        1.0  0.0608363035817731  0.8215585427007567  0.6886655538178772  1.0000
  N   N4        1.0  0.9391619196260306  0.17844170023169428  0.3113356409946988  1.0000
  N   N5        1.0  0.0887947403363326  0.5825084507142932  0.7052263154054756  1.0000
  N   N6        1.0  0.9112123171458462  0.4174884736877544  0.2947742828857756  1.0000
  N   N7        1.0  0.15222671608474053  0.624846505270888  0.7594861092578213  1.0000
  N   N8        1.0  0.8477773630723529  0.3751547920672067  0.2405138698868896  1.0000
  N   N9        1.0  0.36011627688358766  0.0026237093305140954  0.8698826714939826  1.0000
  N   N10       1.0  0.6398815601044704  0.9973776098028893  0.1301169341211477  1.0000
  O   O1        1.0  0.5382703449693834  0.9702682536760743  0.37863185166823143  1.0000
  O   O2        1.0  0.461699932824345  0.029726683260108192  0.6213727975989373  1.0000
  O   O3        1.0  0.38354434023901945  0.9531861456008099  0.28837279722498016  1.0000
  O   O4        1.0  0.6164376434179103  0.04681415741585939  0.7116277377865431  1.0000
  O   O5        1.0  0.6129928417064362  0.43822203716833025  0.42912287822274214  1.0000
  O   O6        1.0  0.38701394074045925  0.5617694147320832  0.5708763829523704  1.0000
  O   O7        1.0  0.5088316979875741  0.6279900518876359  0.351109106074091  1.0000
  O   O8        1.0  0.4911737110536761  0.3720047026380796  0.6488921339853919  1.0000
  O   O9        1.0  0.3902194283461424  0.2889018466203765  0.9597899339269063  1.0000
  O   O10       1.0  0.609779241121849  0.7111005546041793  0.04020909132423612  1.0000
  O   O11       1.0  0.28324060594768946  0.41218831828588515  0.8595426150193859  1.0000
  O   O12       1.0  0.7167660427604118  0.5878129452803406  0.140455230114263  1.0000
  O   O13       1.0  0.6976207388249163  0.9805507012835264  0.9759934032666137  1.0000
  O   O14       1.0  0.30238223726515645  0.01945055030613929  0.024001934326399507  1.0000
  O   O15       1.0  0.7948657084375413  0.8806181929095581  0.873576483279848  1.0000
  O   O16       1.0  0.20516090040915458  0.11939277158045768  0.1264174045968005  1.0000
  O   O17       1.0  0.35234111933083034  0.7852125157472115  0.478693485956896  1.0000
  O   O18       1.0  0.6476605014597182  0.2147822666601726  0.521308879280177  1.0000
  O   O19       1.0  0.8234676646523409  0.7061105921291996  0.3204171328731178  1.0000
  O   O20       1.0  0.17653096129416915  0.29388856890826526  0.6795851321771594  1.0000
  O   O21       1.0  0.588317153987482  0.19908075462611663  0.8223656228056911  1.0000
  O   O22       1.0  0.41168527672868266  0.8009183728356462  0.1776349981072443  1.0000
