data_image0
_chemical_formula_structural       Zn2H32C36N4O18
_chemical_formula_sum              "Zn2 H32 C36 N4 O18"
_cell_length_a       7.686031743869523
_cell_length_b       11.371531444305413
_cell_length_c       11.460767575803812
_cell_angle_alpha    68.92741648923682
_cell_angle_beta     89.71180267382127
_cell_angle_gamma    72.52207820928413

_space_group_name_H-M_alt    "P 1"
_space_group_IT_number       1

loop_
  _space_group_symop_operation_xyz
  'x, y, z'

loop_
  _atom_site_type_symbol
  _atom_site_label
  _atom_site_symmetry_multiplicity
  _atom_site_fract_x
  _atom_site_fract_y
  _atom_site_fract_z
  _atom_site_occupancy
  Zn  Zn1       1.0  0.27610551843513054  0.3445573622561183  0.9738311569434188  1.0000
  Zn  Zn2       1.0  0.7238924992541129  0.6554427094606226  0.02616672397698491  1.0000
  H   H1        1.0  0.8708574917782599  0.7892566547449961  0.31928236320539577  1.0000
  H   H2        1.0  0.12913358088485447  0.21074443147478655  0.6807186720815039  1.0000
  H   H3        1.0  0.9634539786175439  0.4141645047310476  0.8080533103980442  1.0000
  H   H4        1.0  0.036545343347817956  0.5858355607737024  0.19194544055884682  1.0000
  H   H5        1.0  0.9958264103769993  0.5299199685228189  0.8453427319624467  1.0000
  H   H6        1.0  0.0041733444324875794  0.4700791023035933  0.15465637129315726  1.0000
  H   H7        1.0  0.4542381305078393  0.5041080264155583  0.332428615156509  1.0000
  H   H8        1.0  0.5457625014773271  0.49589501070021663  0.6675708189772253  1.0000
  H   H9        1.0  0.48585506770692183  0.4196914638364788  0.1408214601183033  1.0000
  H   H10       1.0  0.5141420863381753  0.5803105947402116  0.8591774621708196  1.0000
  H   H11       1.0  0.7054299783617067  0.0790427745422306  0.4851258221690529  1.0000
  H   H12       1.0  0.29457890292570704  0.9209592418585116  0.5148713276346655  1.0000
  H   H13       1.0  0.5607804507046197  0.9526947784394012  0.39450797740160937  1.0000
  H   H14       1.0  0.4392275611949401  0.0473062469982679  0.6054904006304724  1.0000
  H   H15       1.0  0.3817113354287613  0.071637724320567  0.1816142518809158  1.0000
  H   H16       1.0  0.6182879953464779  0.9283653152621124  0.8183869311655486  1.0000
  H   H17       1.0  0.7534497781599113  0.39868082953734785  0.2892127071244559  1.0000
  H   H18       1.0  0.24655215810136594  0.6013222013664291  0.7107875970457657  1.0000
  H   H19       1.0  0.7975679894897425  0.2746252748642349  0.4453574112514005  1.0000
  H   H20       1.0  0.20243264249542392  0.72537776225154  0.5546420228823336  1.0000
  H   H21       1.0  0.5735475981463338  0.3012668147827214  0.5931102513780288  1.0000
  H   H22       1.0  0.42645520175908996  0.6987342292611061  0.4068890114234732  1.0000
  H   H23       1.0  0.38549221781836013  0.32545612177752753  0.4878272872184581  1.0000
  H   H24       1.0  0.6145092798550775  0.6745449259815716  0.5121728515126946  1.0000
  H   H25       1.0  0.7191705660292057  0.5676361256997423  0.35682240431408024  1.0000
  H   H26       1.0  0.28083006595596766  0.4323669114160325  0.6431770298196469  1.0000
  H   H27       1.0  0.7714644138531526  0.44793487484042066  0.5161063100318515  1.0000
  H   H28       1.0  0.2285379521860803  0.5520671651301114  0.4838917274878654  1.0000
  H   H29       1.0  0.6412208894065826  0.084648815019996  0.9288760322001933  1.0000
  H   H30       1.0  0.3587806035452131  0.9153492536677136  0.07112516637366889  1.0000
  H   H31       1.0  0.06136623558912652  0.1205521767172328  0.22862852260679034  1.0000
  H   H32       1.0  0.9386348177527706  0.8794439100741513  0.7713716375449381  1.0000
  C   C1        1.0  0.5027903438328637  0.317469646292281  0.20175474482977762  1.0000
  C   C2        1.0  0.4972094177423898  0.6825324011087871  0.7982450445492475  1.0000
  C   C3        1.0  0.6028814455629431  0.2600195557321073  0.32101389612136433  1.0000
  C   C4        1.0  0.397122657596526  0.7399814833480889  0.6789853637335455  1.0000
  C   C5        1.0  0.625292472869397  0.12655671208386107  0.3925608253002579  1.0000
  C   C6        1.0  0.3747129325220655  0.8734443232810635  0.6074375586250014  1.0000
  C   C7        1.0  0.5453555436239697  0.05700754058492661  0.3430485405493826  1.0000
  C   C8        1.0  0.4546468224152562  0.9429944993856052  0.6569494969703342  1.0000
  C   C9        1.0  0.4465024755546096  0.12183886219262517  0.2240907309985118  1.0000
  C   C10       1.0  0.5534985882526369  0.8781631814931786  0.7759081824508627  1.0000
  C   C11       1.0  0.692374258015917  0.3392286112705066  0.3654268913705039  1.0000
  C   C12       1.0  0.3076281090453747  0.660773427451666  0.6345720191322853  1.0000
  C   C13       1.0  0.4663933367966776  0.37633308126562065  0.5179229879190147  1.0000
  C   C14       1.0  0.5336064247785754  0.6236689661354475  0.48207680146001036  1.0000
  C   C15       1.0  0.660729258406924  0.518925106039852  0.4412538753464403  1.0000
  C   C16       1.0  0.3392718054003225  0.4810769376459448  0.5587450381029342  1.0000
  C   C17       1.0  0.7517730493922058  0.21715395318706499  0.9758740289150934  1.0000
  C   C18       1.0  0.24822844355958296  0.7828441155006373  0.024127169658775968  1.0000
  C   C19       1.0  0.7313753180414507  0.09347367881402852  0.9960219222407646  1.0000
  C   C20       1.0  0.2686257430882647  0.9065253833036594  0.003979797017464643  1.0000
  C   C21       1.0  0.8170148107684057  0.9807113618347357  0.10372885710511785  1.0000
  C   C22       1.0  0.18298493931943938  0.019284729920279603  0.8962713059932028  1.0000
  C   C23       1.0  0.9397661164458382  0.9904552071571614  0.1889130170422605  1.0000
  C   C24       1.0  0.06023623912804509  0.0095408759189581  0.8110862671798102  1.0000
  C   C25       1.0  0.9657137196140797  0.11314046734160853  0.164092857299643  1.0000
  C   C26       1.0  0.03428299214359492  0.8868566277706479  0.8359078323762005  1.0000
  C   C27       1.0  0.8684685279088312  0.22758378066213675  0.06271530802362692  1.0000
  C   C28       1.0  0.13153123201095698  0.7724152839224486  0.9372881601473252  1.0000
  C   C29       1.0  0.8854417039543206  0.3566048044266665  0.06010346026595674  1.0000
  C   C30       1.0  0.11455718351143672  0.6433932729399388  0.9398986171841557  1.0000
  C   C31       1.0  0.762689749838884  0.85874425431345  0.1233428396611487  1.0000
  C   C32       1.0  0.23730913967099096  0.1412538205564218  0.8766609837551015  1.0000
  C   C33       1.0  0.6473688691208465  0.33529465834595845  0.8621457694020904  1.0000
  C   C34       1.0  0.35263088773275786  0.6647044099837203  0.13785507981965137  1.0000
  C   C35       1.0  0.052591498116583896  0.8820832484132738  0.3067651187592517  1.0000
  C   C36       1.0  0.9473865321741002  0.11791491461325167  0.6932326409208684  1.0000
  N   N1        1.0  0.42714125288434696  0.24988348479669753  0.1541505917233792  1.0000
  N   N2        1.0  0.5728585097129653  0.7501185613560039  0.8458500706387112  1.0000
  N   N3        1.0  0.5591062602232525  0.43905487342112803  0.4084979161773532  1.0000
  N   N4        1.0  0.44089437176191376  0.560948163694647  0.5915015179563737  1.0000
  O   O1        1.0  0.4725285686058101  0.3733069372459851  0.8516822513811491  1.0000
  O   O2        1.0  0.5274711862036766  0.6266921335804199  0.1483168518744549  1.0000
  O   O3        1.0  0.7359225577431588  0.3908523607828939  0.7770962336364916  1.0000
  O   O4        1.0  0.26407850032038027  0.60914670507988  0.22290286667252704  1.0000
  O   O5        1.0  0.7447750561622968  0.4598278096671891  0.02038652595722108  1.0000
  O   O6        1.0  0.2552229625490128  0.5401722608011923  0.9796122279462551  1.0000
  O   O7        1.0  0.04041655171875651  0.35105528087585464  0.105840870811349  1.0000
  O   O8        1.0  0.959581901880803  0.6489437924174553  0.8941599813569779  1.0000
  O   O9        1.0  0.9877345375331076  0.7860056230818772  0.3733374067600507  1.0000
  O   O10       1.0  0.01225696695207995  0.21399446970792727  0.6266631078424894  1.0000
  O   O11       1.0  0.20058639733711203  0.8876678694310982  0.34292913976518247  1.0000
  O   O12       1.0  0.7994202981655291  0.11232422250766658  0.6570732937247072  1.0000
  O   O13       1.0  0.7471428498060246  0.786401183541166  0.23511160310797416  1.0000
  O   O14       1.0  0.2528512581210833  0.21359890306646892  0.7648862866521854  1.0000
  O   O15       1.0  0.7276999432780543  0.8383029364338128  0.02560622036857298  1.0000
  O   O16       1.0  0.27229763786747435  0.16169514964151693  0.9743932410789071  1.0000
  O   O17       1.0  0.05937555582062961  0.451042382398775  0.8217038633682989  1.0000
  O   O18       1.0  0.940622895734819  0.5489566933912612  0.17829524283389026  1.0000
