data_image0
_chemical_formula_structural       Mn6H90C72N12O30
_chemical_formula_sum              "Mn6 H90 C72 N12 O30"
_cell_length_a       7.024959247008057
_cell_length_b       21.644445228852952
_cell_length_c       21.644452193623874
_cell_angle_alpha    120.00018072185215
_cell_angle_beta     90.00004386030832
_cell_angle_gamma    90.00012322362609

_space_group_name_H-M_alt    "P 1"
_space_group_IT_number       1

loop_
  _space_group_symop_operation_xyz
  'x, y, z'

loop_
  _atom_site_type_symbol
  _atom_site_label
  _atom_site_symmetry_multiplicity
  _atom_site_fract_x
  _atom_site_fract_y
  _atom_site_fract_z
  _atom_site_occupancy
  Mn  Mn1       1.0  0.8484430233241937  0.6643543302633647  0.26933705798831653  1.0000
  Mn  Mn2       1.0  0.4848913190447064  0.2693352345848084  0.6643537067196021  1.0000
  Mn  Mn3       1.0  0.5151076491146114  0.7306624837224193  0.39501735168450125  1.0000
  Mn  Mn4       1.0  0.18177142200964622  0.6049827097683647  0.3356456005865098  1.0000
  Mn  Mn5       1.0  0.1515528798107866  0.3356437059921974  0.6049816302914621  1.0000
  Mn  Mn6       1.0  0.8182232838504503  0.39501959924923113  0.7306621555656605  1.0000
  H   H1        1.0  0.0041750981106503  0.42575953411841994  0.0004452803397043912  1.0000
  H   H2        1.0  0.32915828449034734  0.00044536827905973536  0.42575948055419127  1.0000
  H   H3        1.0  0.670843285238135  0.9995532506439063  0.4253110376899373  1.0000
  H   H4        1.0  0.3375105847072247  0.5746877801270927  0.5742421459798165  1.0000
  H   H5        1.0  0.9958247230146569  0.5742416143076668  0.5746889356277266  1.0000
  H   H6        1.0  0.662493260063215  0.4253139454784432  0.9995545855010094  1.0000
  H   H7        1.0  0.859878643261247  0.4918957003472785  0.12076099650073509  1.0000
  H   H8        1.0  0.47345141228328913  0.12076205053032404  0.4918958891622935  1.0000
  H   H9        1.0  0.5265501715305945  0.8792363950522458  0.3711298596757899  1.0000
  H   H10       1.0  0.1932151869409324  0.6288667375908404  0.5081052572516427  1.0000
  H   H11       1.0  0.1401171129683405  0.5081044685082149  0.6288683223005194  1.0000
  H   H12       1.0  0.806782744153196  0.37113271155460836  0.8792371779473385  1.0000
  H   H13       1.0  0.5455936083902699  0.5214278736598246  0.09080534001444106  1.0000
  H   H14       1.0  0.7877378687425675  0.09080429127552492  0.5214270267678671  1.0000
  H   H15       1.0  0.21226097298333  0.9091969997359329  0.43062584776358653  1.0000
  H   H16       1.0  0.8789299653792213  0.5693761389517534  0.4785729647601116  1.0000
  H   H17       1.0  0.4544034659442104  0.4785722181006662  0.5693755006715763  1.0000
  H   H18       1.0  0.1210722367059844  0.4306236330123385  0.9091960479530742  1.0000
  H   H19       1.0  0.21599745268280662  0.9038535411578225  0.2786075619484479  1.0000
  H   H20       1.0  0.11734501571983458  0.27860872809341  0.9038528031140487  1.0000
  H   H21       1.0  0.8826630468664406  0.7213911364327503  0.6252450745237114  1.0000
  H   H22       1.0  0.5493269591485729  0.37475319743096247  0.0961435756906397  1.0000
  H   H23       1.0  0.7839953431297673  0.09614511483002268  0.3747581696481959  1.0000
  H   H24       1.0  0.45068026507726705  0.6252518898080768  0.7213958620796818  1.0000
  H   H25       1.0  0.20578079749479625  0.8691399414553943  0.18437782583178117  1.0000
  H   H26       1.0  0.1275596691030572  0.18437935922123222  0.8691406652869986  1.0000
  H   H27       1.0  0.8724427287261847  0.8156208604020634  0.6847614295871054  1.0000
  H   H28       1.0  0.5391046798835859  0.3152368610570236  0.1308562157576034  1.0000
  H   H29       1.0  0.7942175111397843  0.13085548218226256  0.31523956588078766  1.0000
  H   H30       1.0  0.46089415528454936  0.6847662688792228  0.8156257110182922  1.0000
  H   H31       1.0  0.9907064711959916  0.8885779385150203  0.23489494966491978  1.0000
  H   H32       1.0  0.34263583983577206  0.23489657229279015  0.8885780528637  1.0000
  H   H33       1.0  0.6573708147552182  0.7651014837427041  0.6536806972867452  1.0000
  H   H34       1.0  0.324034472965863  0.34631896896827646  0.11141943226680698  1.0000
  H   H35       1.0  0.0092876630977159  0.11141853371174897  0.3463221900289497  1.0000
  H   H36       1.0  0.6759699737759133  0.6536875145655685  0.76510939681949  1.0000
  H   H37       1.0  0.4149804400186312  0.8023928444884875  0.24644765509260214  1.0000
  H   H38       1.0  0.9183601127868073  0.24644846094339812  0.8023921580702549  1.0000
  H   H39       1.0  0.08164490160487498  0.7535498707051148  0.5559425008751901  1.0000
  H   H40       1.0  0.7483120920847314  0.4440532857134301  0.19760477611610835  1.0000
  H   H41       1.0  0.5850138230509998  0.19760702697395532  0.44405626559154143  1.0000
  H   H42       1.0  0.2516910190769792  0.5559485657610282  0.7535540041521145  1.0000
  H   H43       1.0  0.2890819546958028  0.7293751617717918  0.2425270135380515  1.0000
  H   H44       1.0  0.04425956934495189  0.24252713684700225  0.7293744930307611  1.0000
  H   H45       1.0  0.9557438541143027  0.7574726888108644  0.48684706382135806  1.0000
  H   H46       1.0  0.6224155908536773  0.5131514070818498  0.2706218840519909  1.0000
  H   H47       1.0  0.7109138086639105  0.27062507100031763  0.5131536921082754  1.0000
  H   H48       1.0  0.3775904579504753  0.486851042086677  0.7574735324186149  1.0000
  H   H49       1.0  0.27052775662399847  0.6689971719805713  0.11171458543724815  1.0000
  H   H50       1.0  0.0628129099275938  0.11171487843505189  0.6689972474268159  1.0000
  H   H51       1.0  0.9371891018895653  0.8882848495496135  0.5572852096460109  1.0000
  H   H52       1.0  0.603857314301223  0.44271572890771443  0.3309994688317559  1.0000
  H   H53       1.0  0.7294734635914322  0.33100040432326244  0.44271576463519585  1.0000
  H   H54       1.0  0.39614611277377076  0.5572856876779043  0.888286417635271  1.0000
  H   H55       1.0  0.368083022174254  0.7451564293037977  0.11118797783007038  1.0000
  H   H56       1.0  0.9652595142787133  0.11118890618813283  0.7451575071413713  1.0000
  H   H57       1.0  0.0347455246110542  0.8888093563372482  0.6339696693984891  1.0000
  H   H58       1.0  0.7014119853150476  0.3660304570733218  0.25483968174034294  1.0000
  H   H59       1.0  0.6319152600725104  0.25483970829020564  0.36603121710302833  1.0000
  H   H60       1.0  0.29858850565742057  0.6339716059391449  0.8888130500837619  1.0000
  H   H61       1.0  0.6659908210574272  0.7326148946338122  0.16408850039170625  1.0000
  H   H62       1.0  0.6673490494137297  0.16408943844657387  0.7326154400257749  1.0000
  H   H63       1.0  0.33265447410226306  0.835910710231211  0.568526618260492  1.0000
  H   H64       1.0  0.9993214180205855  0.43147338637142246  0.26738215714808433  1.0000
  H   H65       1.0  0.33400617713780884  0.2673841503468211  0.4314734288944138  1.0000
  H   H66       1.0  0.0006804488932771999  0.5685279365691117  0.8359116771907865  1.0000
  H   H67       1.0  0.5741167285818705  0.6579620619995908  0.1615138196067178  1.0000
  H   H68       1.0  0.7592213720211517  0.16151320688965132  0.6579616066718614  1.0000
  H   H69       1.0  0.24078055511207447  0.8384857641613694  0.4964489637025907  1.0000
  H   H70       1.0  0.907449325239021  0.5035508707774597  0.3420363735401751  1.0000
  H   H71       1.0  0.4258789280109809  0.34203767017780246  0.5035517857190044  1.0000
  H   H72       1.0  0.09255547965922517  0.49645007089299054  0.8384870683971357  1.0000
  H   H73       1.0  0.6457141900551304  0.6711707869390581  0.0337138497293879  1.0000
  H   H74       1.0  0.6876219731216793  0.03371554533348582  0.6711742649694372  1.0000
  H   H75       1.0  0.31237444174609413  0.9662857365009005  0.6374595925448432  1.0000
  H   H76       1.0  0.9790449882586926  0.36254037192065885  0.3288249477009586  1.0000
  H   H77       1.0  0.3542882672904071  0.32882692980455636  0.3625414719248781  1.0000
  H   H78       1.0  0.0209585281526898  0.6374599361855575  0.9662867530090864  1.0000
  H   H79       1.0  0.7790927763127939  0.6223454015055765  0.06598354406987991  1.0000
  H   H80       1.0  0.5542418891096972  0.06598401824551568  0.6223471281741908  1.0000
  H   H81       1.0  0.44575721967005677  0.934016773172104  0.5563644476806928  1.0000
  H   H82       1.0  0.1124253399487927  0.44363558204618425  0.377650816218825  1.0000
  H   H83       1.0  0.22090696761696904  0.3776540698315074  0.44363700894839997  1.0000
  H   H84       1.0  0.8875767724722933  0.5563642621107335  0.9340171345583671  1.0000
  H   H85       1.0  0.5428193876892565  0.5944519800424218  0.032364267145411  1.0000
  H   H86       1.0  0.7905150018460531  0.03236396138108689  0.5944540069370986  1.0000
  H   H87       1.0  0.20948123381440806  0.9676344374794611  0.5620888651849044  1.0000
  H   H88       1.0  0.8761522042972699  0.43791057507229436  0.4055448677661246  1.0000
  H   H89       1.0  0.457184580368228  0.40554643068099233  0.43791229023226913  1.0000
  H   H90       1.0  0.1238514040973655  0.5620897357599336  0.9676359968006879  1.0000
  C   C1        1.0  0.9584681036182444  0.7603361776370435  0.2059753667388974  1.0000
  C   C2        1.0  0.37487065554432053  0.205974848764086  0.7603357855530817  1.0000
  C   C3        1.0  0.6251343074307697  0.7940235245317383  0.5543598234811142  1.0000
  C   C4        1.0  0.2917998900545555  0.44564075074701753  0.2396614317311929  1.0000
  C   C5        1.0  0.0415275371236206  0.23966234085346377  0.44564039581585757  1.0000
  C   C6        1.0  0.708203318353533  0.554363798093469  0.7940259426185676  1.0000
  C   C7        1.0  0.13601958979892  0.8684347594497838  0.22971989833030904  1.0000
  C   C8        1.0  0.1973210769940579  0.22972105544885593  0.8684350974352739  1.0000
  C   C9        1.0  0.8026841127359389  0.7702777399807844  0.6387135953876708  1.0000
  C   C10       1.0  0.46934784468228935  0.3612841245345138  0.13156096994884342  1.0000
  C   C11       1.0  0.8639759795265219  0.13156167897172824  0.3612882619269726  1.0000
  C   C12       1.0  0.5306552083827681  0.6387199482993324  0.7702830568500899  1.0000
  C   C13       1.0  0.3059661150848143  0.7617139936630083  0.21684398268045865  1.0000
  C   C14       1.0  0.027372591818142698  0.2168448007799597  0.7617134847998059  1.0000
  C   C15       1.0  0.9726309381036841  0.783154250517562  0.5448684919353539  1.0000
  C   C16       1.0  0.6392994445999135  0.45513004580171673  0.23828357847413886  1.0000
  C   C17       1.0  0.6940295496490522  0.2382855572185534  0.45513167549322014  1.0000
  C   C18       1.0  0.3607037493742027  0.5448730593879674  0.7831572658126048  1.0000
  C   C19       1.0  0.3690808234510357  0.7142894227074734  0.13901768979243911  1.0000
  C   C20       1.0  0.9642588523871822  0.13901870723726265  0.7142895233133189  1.0000
  C   C21       1.0  0.0357432339870982  0.8609809433837442  0.5752722065819071  1.0000
  C   C22       1.0  0.7024115098377949  0.4247277977939136  0.28570828634452994  1.0000
  C   C23       1.0  0.6309175607521879  0.2857090413555738  0.42472873358596525  1.0000
  C   C24       1.0  0.2975904082096008  0.5752739991636135  0.8609829112767713  1.0000
  C   C25       1.0  0.6367816861545065  0.6407198845034261  0.06168278842226015  1.0000
  C   C26       1.0  0.6965544658872176  0.061683853743325356  0.6407221992981036  1.0000
  C   C27       1.0  0.3034432677605495  0.9383163745296202  0.5790389011649637  1.0000
  C   C28       1.0  0.9701127811619301  0.42096115509831833  0.3592761562136815  1.0000
  C   C29       1.0  0.3632208729788077  0.35927814731746116  0.4209622450383321  1.0000
  C   C30       1.0  0.02989073817241209  0.5790390389376797  0.9383166702163805  1.0000
  C   C31       1.0  0.1181806248116217  0.5435356206756908  0.17479209796338321  1.0000
  C   C32       1.0  0.21514837397889147  0.17479186061078889  0.5435357126408961  1.0000
  C   C33       1.0  0.7848504208797065  0.8252077278986435  0.3687441357252154  1.0000
  C   C34       1.0  0.4515184118105324  0.6312562656896149  0.45646442922539876  1.0000
  C   C35       1.0  0.8818137743885046  0.4564626789718105  0.6312546152841136  1.0000
  C   C36       1.0  0.5484836652692806  0.36874383826504703  0.8252075074978578  1.0000
  C   C37       1.0  0.3159027846878645  0.55206101090468  0.16480231837586257  1.0000
  C   C38       1.0  0.0174304780246004  0.1648028829586537  0.5520608381481368  1.0000
  C   C39       1.0  0.9825711956909443  0.8351981386759847  0.38726014206670817  1.0000
  C   C40       1.0  0.6492376370072747  0.6127419097106355  0.44794009187327066  1.0000
  C   C41       1.0  0.684093004422216  0.447937230458301  0.6127391539444176  1.0000
  C   C42       1.0  0.35076301830402196  0.38725847218826487  0.8351970732273842  1.0000
  C   C43       1.0  0.39466459812803123  0.513296722558124  0.09595266062795096  1.0000
  C   C44       1.0  0.9386654421230174  0.09595083490255249  0.5132950993201532  1.0000
  C   C45       1.0  0.06133052737556  0.9040482114536418  0.4173457014319197  1.0000
  C   C46       1.0  0.727999605940667  0.5826563631759003  0.4867050763702778  1.0000
  C   C47       1.0  0.6053353449059884  0.4867028921300332  0.5826537492365205  1.0000
  C   C48       1.0  0.27200259966403456  0.4173442824616132  0.9040485928900637  1.0000
  C   C49       1.0  0.2889641199499309  0.46799714845889895  0.03563123510704703  1.0000
  C   C50       1.0  0.0443696098957744  0.035631325829641125  0.467996547584157  1.0000
  C   C51       1.0  0.9556291709231886  0.9643689733271403  0.43236541797548256  1.0000
  C   C52       1.0  0.622295081844271  0.567634964593843  0.5320048714934699  1.0000
  C   C53       1.0  0.7110371578146939  0.5320033959360232  0.5676346532980432  1.0000
  C   C54       1.0  0.3777029777173481  0.4323656848051343  0.9643687402313361  1.0000
  C   C55       1.0  0.0926142163615111  0.46124259078363394  0.04602719145191966  1.0000
  C   C56       1.0  0.24071668282251574  0.04602674547604121  0.46124198591505916  1.0000
  C   C57       1.0  0.75927922283136  0.9539716234743238  0.41521364339309497  1.0000
  C   C58       1.0  0.4259495235013588  0.5847856960979811  0.5387585352288015  1.0000
  C   C59       1.0  0.9073870938557461  0.5387570497669217  0.5847848362840296  1.0000
  C   C60       1.0  0.5740528022587342  0.4152157440275773  0.9539726966074369  1.0000
  C   C61       1.0  0.011002554191477998  0.49758769286543014  0.11306583704080007  1.0000
  C   C62       1.0  0.322330232175716  0.11306813768599265  0.4975882119840662  1.0000
  C   C63       1.0  0.6776713741274422  0.8869322198929269  0.3845195479892141  1.0000
  C   C64       1.0  0.34433629733801036  0.6154794011364331  0.5024134253638763  1.0000
  C   C65       1.0  0.9889946006883931  0.5024114616082258  0.6154791312124388  1.0000
  C   C66       1.0  0.6556644831071664  0.38452014589584876  0.8869312777779542  1.0000
  C   C67       1.0  0.44233934156739707  0.6030750967979162  0.22211203349372974  1.0000
  C   C68       1.0  0.8909873966766355  0.22210973542287607  0.6030729548933209  1.0000
  C   C69       1.0  0.10901005923201271  0.7778896745278631  0.3809642123259066  1.0000
  C   C70       1.0  0.7756753418752779  0.6190364091346652  0.3969265209107676  1.0000
  C   C71       1.0  0.5576536755048096  0.3969262884689187  0.6190362919341298  1.0000
  C   C72       1.0  0.22432518580535538  0.38096309782472565  0.7778887948445146  1.0000
  N   N1        1.0  0.1277345970333243  0.7971282392706204  0.22004374204183824  1.0000
  N   N2        1.0  0.20560570654708238  0.22004372739117883  0.7971279563443902  1.0000
  N   N3        1.0  0.7943979030540547  0.7799541238481069  0.5770838095144626  1.0000
  N   N4        1.0  0.46106481042315284  0.4229146377395168  0.20286835970789238  1.0000
  N   N5        1.0  0.8722610335072574  0.2028692369009661  0.4229167808438135  1.0000
  N   N6        1.0  0.5389383380526809  0.5770880269651287  0.7799578498873174  1.0000
  N   N7        1.0  0.5647202976522153  0.6870922077566562  0.13480832971114148  1.0000
  N   N8        1.0  0.7686192373253107  0.13480863222282127  0.6870926671371365  1.0000
  N   N9        1.0  0.231382789918861  0.865190555907823  0.5522847119459372  1.0000
  N   N10       1.0  0.8980511869936051  0.44771545577884103  0.31290564193272274  1.0000
  N   N11       1.0  0.43527953217419924  0.3129069469617535  0.4477163973378779  1.0000
  N   N12       1.0  0.1019521915485342  0.552284850773525  0.8651919410454668  1.0000
  O   O1        1.0  0.9631326870536724  0.6980890044265777  0.2004830320419302  1.0000
  O   O2        1.0  0.37020576828669505  0.20047987236005574  0.6980875856229574  1.0000
  O   O3        1.0  0.6297976309800077  0.799517791430688  0.4976070322288563  1.0000
  O   O4        1.0  0.2964663703040599  0.5023935932715063  0.3019075587614921  1.0000
  O   O5        1.0  0.0368630140865704  0.30190993550450435  0.5023936134630348  1.0000
  O   O6        1.0  0.7035369179088135  0.4976088620930809  0.7995186092512226  1.0000
  O   O7        1.0  0.8080132241134236  0.7891034505472733  0.1980863526569223  1.0000
  O   O8        1.0  0.5253270521841245  0.19808570102286185  0.7891034538104051  1.0000
  O   O9        1.0  0.47467656438639944  0.8019139371394458  0.591018447858751  1.0000
  O   O10       1.0  0.1413419226114598  0.4089829411620443  0.21089336563334632  1.0000
  O   O11       1.0  0.1919823641407277  0.21089467966002226  0.4089824716852348  1.0000
  O   O12       1.0  0.8586598376955976  0.5910199308654216  0.8019154545205751  1.0000
  O   O13       1.0  0.0315838627910665  0.5760387507525736  0.23771776262516653  1.0000
  O   O14       1.0  0.3017455640008818  0.23771808940973221  0.5760393863839042  1.0000
  O   O15       1.0  0.6982546568056379  0.7622816569557288  0.3383212122228016  1.0000
  O   O16       1.0  0.36492153047371545  0.6616787971519998  0.4239618511757186  1.0000
  O   O17       1.0  0.9684106463975084  0.42396009107660865  0.6616782043176386  1.0000
  O   O18       1.0  0.6350790106748079  0.3383214593201276  0.7622820011370806  1.0000
  O   O19       1.0  0.3845043270669207  0.6395934931151716  0.28635779184750737  1.0000
  O   O20       1.0  0.9488228631096332  0.28635649236471045  0.6395923281829922  1.0000
  O   O21       1.0  0.05117460315748448  0.7136431277435804  0.35323581876222204  1.0000
  O   O22       1.0  0.7178401795788856  0.6467630782820779  0.36040770086703594  1.0000
  O   O23       1.0  0.6154873748798338  0.3604088162070839  0.6467653777198663  1.0000
  O   O24       1.0  0.2821602293685856  0.3532337654791106  0.7136423959789724  1.0000
  O   O25       1.0  0.6120428248986656  0.6117787466117548  0.20426623014527232  1.0000
  O   O26       1.0  0.7212852958344058  0.20426370933653  0.6117737165040964  1.0000
  O   O27       1.0  0.2787122016026301  0.7957349101411639  0.407512163122938  1.0000
  O   O28       1.0  0.9453787194050277  0.5924871459956196  0.3882233857819841  1.0000
  O   O29       1.0  0.3879501398742137  0.388224308982835  0.5924892589701685  1.0000
  O   O30       1.0  0.0546218190473198  0.4075123528091568  0.7957342581516968  1.0000
