data_image0
_chemical_formula_structural       Sr6P4H24C8S4O28
_chemical_formula_sum              "Sr6 P4 H24 C8 S4 O28"
_cell_length_a       7.016431727384208
_cell_length_b       9.947425921508234
_cell_length_c       12.694700042660255
_cell_angle_alpha    108.32623544359572
_cell_angle_beta     97.5735576823851
_cell_angle_gamma    92.35419433511372

_space_group_name_H-M_alt    "P 1"
_space_group_IT_number       1

loop_
  _space_group_symop_operation_xyz
  'x, y, z'

loop_
  _atom_site_type_symbol
  _atom_site_label
  _atom_site_symmetry_multiplicity
  _atom_site_fract_x
  _atom_site_fract_y
  _atom_site_fract_z
  _atom_site_occupancy
  Sr  Sr1       1.0  0.33546009083756456  0.6571154853623612  0.06645841806569318  1.0000
  Sr  Sr2       1.0  0.6645408237269451  0.342886340476035  0.9335411118017307  1.0000
  Sr  Sr3       1.0  0.2325948966286973  0.019151414769247307  0.40799404759062713  1.0000
  Sr  Sr4       1.0  0.7674040818317922  0.9808461399496057  0.5920074272704882  1.0000
  Sr  Sr5       1.0  0.8901792156196748  0.6643273894145166  0.22058865442392062  1.0000
  Sr  Sr6       1.0  0.10982170035383379  0.3356744448063794  0.7794093021630816  1.0000
  P   P1        1.0  0.15105505218842546  0.34445294005637805  0.04364398888709792  1.0000
  P   P2        1.0  0.8489457392609268  0.6555478268923096  0.9563544802913031  1.0000
  P   P3        1.0  0.42130900694252205  0.719695805788625  0.33877899396681244  1.0000
  P   P4        1.0  0.5786897245831425  0.28029962695956806  0.6612211461564785  1.0000
  H   H1        1.0  0.29909140297314013  0.6883777894911917  0.8240306312792428  1.0000
  H   H2        1.0  0.7009107012549691  0.3116219080247192  0.17596924250272394  1.0000
  H   H3        1.0  0.3967836374332094  0.5411238893647694  0.805384602848129  1.0000
  H   H4        1.0  0.6032185913190562  0.4588768754233498  0.19461475834243205  1.0000
  H   H5        1.0  0.9777203996133466  0.8935487701487049  0.15462628016044294  1.0000
  H   H6        1.0  0.0222789531241006  0.10645199057803721  0.8453728702862338  1.0000
  H   H7        1.0  0.8594011700703135  0.0164194243426223  0.22104661868193182  1.0000
  H   H8        1.0  0.1405996185610547  0.9835813258410511  0.7789549970573193  1.0000
  H   H9        1.0  0.36505396868290774  0.3305324789208016  0.2000320902819085  1.0000
  H   H10       1.0  0.6349501947643929  0.6694725486043468  0.7999668991953828  1.0000
  H   H11       1.0  0.1332517824416328  0.2542675115356375  0.19636642000219245  1.0000
  H   H12       1.0  0.8667509408847636  0.7457375013850651  0.8036348240237957  1.0000
  H   H13       1.0  0.3733266135403496  0.10470431761097392  0.01384378329829871  1.0000
  H   H14       1.0  0.6266726111504539  0.8952953548872886  0.986159812940848  1.0000
  H   H15       1.0  0.18753966277508738  0.0285814198960637  0.06561648158947972  1.0000
  H   H16       1.0  0.812459934783682  0.9714214502275739  0.9343863635156496  1.0000
  H   H17       1.0  0.2676426681208213  0.5070515685468848  0.35871127947125103  1.0000
  H   H18       1.0  0.732353560962494  0.49294706195656335  0.641287112133938  1.0000
  H   H19       1.0  0.49415750275159814  0.5680232530776763  0.4449306935181526  1.0000
  H   H20       1.0  0.5058395452408391  0.4319700640516757  0.5550664332149539  1.0000
  H   H21       1.0  0.3400296804815852  0.763500207169642  0.5795760913339623  1.0000
  H   H22       1.0  0.6599677396743289  0.2364963033938281  0.4204210709053414  1.0000
  H   H23       1.0  0.2449884911379954  0.588577506045134  0.5647974535342827  1.0000
  H   H24       1.0  0.7550089276089195  0.4114189961358364  0.43520128198544955  1.0000
  C   C1        1.0  0.2445873279834316  0.2586799893831184  0.14395850598607757  1.0000
  C   C2        1.0  0.7554138335159023  0.7413239584259301  0.8560423586191634  1.0000
  C   C3        1.0  0.3078182102848571  0.111647604786306  0.08904734474231903  1.0000
  C   C4        1.0  0.6921813865694163  0.8883552611460743  0.9109562870030248  1.0000
  C   C5        1.0  0.3551947404333618  0.6024176514180655  0.4161053135385374  1.0000
  C   C6        1.0  0.644802553789397  0.3975777834906894  0.5838939345726005  1.0000
  C   C7        1.0  0.2595646056676841  0.6663542237188695  0.520452025051604  1.0000
  C   C8        1.0  0.7404329376033871  0.3336433457343021  0.4795461978767151  1.0000
  S   S1        1.0  0.4863025804571918  0.060689658659377706  0.17992260957320386  1.0000
  S   S2        1.0  0.5136971409212379  0.9393142745452182  0.8200805095807341  1.0000
  S   S3        1.0  0.015701427327371693  0.7070191267084452  0.49298022202992803  1.0000
  S   S4        1.0  0.9842973084252832  0.2929763311872692  0.5070151982520912  1.0000
  O   O1        1.0  0.08542332369191291  0.4860300217459256  0.11225649587837692  1.0000
  O   O2        1.0  0.9145745931516204  0.5139707495238853  0.8877401892757181  1.0000
  O   O3        1.0  0.31352968265873227  0.37567807615945986  0.979388052663552  1.0000
  O   O4        1.0  0.6864695462590619  0.6243216214863239  0.020610823734315938  1.0000
  O   O5        1.0  0.9870469352940887  0.2431054694019324  0.9585614769871358  1.0000
  O   O6        1.0  0.01295529486716872  0.7568953037686939  0.04143631092299668  1.0000
  O   O7        1.0  0.6751157135183093  0.1348395179241137  0.18228689575746426  1.0000
  O   O8        1.0  0.3248854437540345  0.8651644047374135  0.8177186886890554  1.0000
  O   O9        1.0  0.42622575131030527  0.1038995750069986  0.2915306747764035  1.0000
  O   O10       1.0  0.573776846082943  0.8961043622589813  0.7084726551214118  1.0000
  O   O11       1.0  0.48948661978911195  0.9058159167811156  0.13071309273627213  1.0000
  O   O12       1.0  0.5105115383532564  0.0941869429293263  0.8692912202773402  1.0000
  O   O13       1.0  0.5297954979882674  0.8545964009169467  0.4249548818125888  1.0000
  O   O14       1.0  0.4702061088477266  0.1453990317013734  0.5750462556947938  1.0000
  O   O15       1.0  0.23895348707739572  0.7611191314297799  0.2770533052365281  1.0000
  O   O16       1.0  0.7610500558626186  0.2388805723080836  0.7229458872771631  1.0000
  O   O17       1.0  0.5400374028348977  0.6354256553546735  0.249203424670526  1.0000
  O   O18       1.0  0.4599617015587399  0.36457297501890196  0.7507959643187548  1.0000
  O   O19       1.0  0.018955802656165633  0.8419083217651038  0.4627614188630958  1.0000
  O   O20       1.0  0.9810433010329759  0.1580903044172146  0.5372387567663993  1.0000
  O   O21       1.0  0.9276768242346235  0.7302855706915425  0.5948926522741049  1.0000
  O   O22       1.0  0.07232047139712709  0.26970987259971935  0.40510502255661157  1.0000
  O   O23       1.0  0.9202030881716682  0.5878661756719339  0.395919793989613  1.0000
  O   O24       1.0  0.0797974584563619  0.4121324818798584  0.604074980530335  1.0000
  O   O25       1.0  0.3069478584475008  0.6030278659612874  0.8481028779613383  1.0000
  O   O26       1.0  0.6930528084777025  0.39697183371518463  0.15189610380847546  1.0000
  O   O27       1.0  0.9516788996438735  0.9478895351637463  0.23175304588268392  1.0000
  O   O28       1.0  0.048321766576833604  0.05211016032147601  0.7682467225273371  1.0000
