data_image0
_chemical_formula_structural       Cu16H48C32I8N24
_chemical_formula_sum              "Cu16 H48 C32 I8 N24"
_cell_length_a       15.209186247176476
_cell_length_b       15.4191
_cell_length_c       15.194114985450412
_cell_angle_alpha    106.24951995823263
_cell_angle_beta     111.05829979613739
_cell_angle_gamma    111.5387921011256

_space_group_name_H-M_alt    "P 1"
_space_group_IT_number       1

loop_
  _space_group_symop_operation_xyz
  'x, y, z'

loop_
  _atom_site_type_symbol
  _atom_site_label
  _atom_site_symmetry_multiplicity
  _atom_site_fract_x
  _atom_site_fract_y
  _atom_site_fract_z
  _atom_site_occupancy
  Cu  Cu1       1.0  0.33319473787377507  0.899186471198803  0.08231309824972048  1.0000
  Cu  Cu2       1.0  0.16530723428062538  0.750805118388179  0.06323982224149202  1.0000
  Cu  Cu3       1.0  0.8144182049481401  0.061619773101625815  0.8973287375951247  1.0000
  Cu  Cu4       1.0  0.6857341538203057  0.08352823915399196  0.7507639195802512  1.0000
  Cu  Cu5       1.0  0.6668032099294691  0.10081633168421446  0.917681651276567  1.0000
  Cu  Cu6       1.0  0.8346861790697773  0.24919418215835534  0.9367575889551037  1.0000
  Cu  Cu7       1.0  0.1855844151665806  0.9383821574416161  0.10267788036578915  1.0000
  Cu  Cu8       1.0  0.31426846734549235  0.9164674013312678  0.24923870158554715  1.0000
  Cu  Cu9       1.0  0.6739336689716566  0.9069352352915914  0.9672492476674892  1.0000
  Cu  Cu10      1.0  0.8236437914037681  0.2958342271560854  0.734756478696831  1.0000
  Cu  Cu11      1.0  0.9391865521391408  0.733646801001079  0.9063546400559875  1.0000
  Cu  Cu12      1.0  0.5593740427636505  0.9682872476600722  0.2940082063789335  1.0000
  Cu  Cu13      1.0  0.3260693783830249  0.09306973095794292  0.03274900227176406  1.0000
  Cu  Cu14      1.0  0.17635911493903225  0.7041622051757487  0.2652392315228199  1.0000
  Cu  Cu15      1.0  0.060810827412261424  0.2663535119059262  0.09364593777237225  1.0000
  Cu  Cu16      1.0  0.4406214952246685  0.031712111038849966  0.7059913294555856  1.0000
  H   H1        1.0  0.7533449537202798  0.9903572826399129  0.2952317583561312  1.0000
  H   H2        1.0  0.7435413901237167  0.5395738688993604  0.7355065188431243  1.0000
  H   H3        1.0  0.6941159752138617  0.7367294064291058  0.9881767524402394  1.0000
  H   H4        1.0  0.8053952370486215  0.29390583744597626  0.5426423929362658  1.0000
  H   H5        1.0  0.24665582588244198  0.009642592007530522  0.7047698208158267  1.0000
  H   H6        1.0  0.2564616572309646  0.4604161807856428  0.264491731096122  1.0000
  H   H7        1.0  0.3058836699873382  0.26327301308514006  0.011828489745632078  1.0000
  H   H8        1.0  0.19460384410506046  0.7060909824339704  0.45735269037122367  1.0000
  H   H9        1.0  0.8038182782153098  0.04800667948825331  0.22340537079372091  1.0000
  H   H10       1.0  0.6939932324497349  0.4191968186884554  0.7443077259390097  1.0000
  H   H11       1.0  0.8250253034898447  0.7465378159342676  0.04734507218194766  1.0000
  H   H12       1.0  0.6742949938117845  0.22151595542859343  0.4208035601923188  1.0000
  H   H13       1.0  0.19617782697377353  0.9519897854115558  0.7765923335338416  1.0000
  H   H14       1.0  0.3060110903183427  0.5808057055102793  0.25568940070592566  1.0000
  H   H15       1.0  0.17497462583727952  0.25346390292913423  0.9526572558528915  1.0000
  H   H16       1.0  0.32569884572750146  0.7784771057714083  0.5791894797777319  1.0000
  H   H17       1.0  0.7653416263277393  0.9151441737243289  0.19149158321812393  1.0000
  H   H18       1.0  0.7311922648620596  0.42509320232782255  0.64727587411268  1.0000
  H   H19       1.0  0.7222716847696162  0.6498981534966435  0.9128634050812682  1.0000
  H   H20       1.0  0.7770054537268152  0.1911865409972223  0.4262336291008497  1.0000
  H   H21       1.0  0.23465334551090686  0.08485697708599108  0.8085057873282367  1.0000
  H   H22       1.0  0.2688065321657048  0.5749062638418181  0.35272212334584213  1.0000
  H   H23       1.0  0.277728952770147  0.35010336856878876  0.08713963116620967  1.0000
  H   H24       1.0  0.22299206893863052  0.8088064829800959  0.573761494856875  1.0000
  H   H25       1.0  0.3145077570265755  0.7907265096924122  0.8596660575714881  1.0000
  H   H26       1.0  0.18326367914947664  0.5471636940793946  0.9744494344697546  1.0000
  H   H27       1.0  0.9295277076700259  0.9734487797124987  0.7898613517460763  1.0000
  H   H28       1.0  0.5729485759530845  0.8641607299292319  0.5464820345799313  1.0000
  H   H29       1.0  0.6854993975409868  0.20928281446500566  0.14033789871911764  1.0000
  H   H30       1.0  0.8167324249885296  0.45282738704529635  0.02555226665291623  1.0000
  H   H31       1.0  0.07047094624370231  0.026550841377712724  0.21014209958307364  1.0000
  H   H32       1.0  0.4270570211773119  0.13583656262872534  0.4535179655657944  1.0000
  H   H33       1.0  0.412589774591595  0.7784469123065422  0.825947881383769  1.0000
  H   H34       1.0  0.08426722808702183  0.4163705576611394  0.8633674943630114  1.0000
  H   H35       1.0  0.9499607881031196  0.8639967342144672  0.7757666337405528  1.0000
  H   H36       1.0  0.551813605362291  0.8306939387846343  0.414609123124585  1.0000
  H   H37       1.0  0.5874091644991282  0.22155674336165992  0.17404865899924013  1.0000
  H   H38       1.0  0.9157385079530937  0.5836335809122347  0.13664303909254755  1.0000
  H   H39       1.0  0.050037440672802816  0.13600607889571145  0.22423719202004125  1.0000
  H   H40       1.0  0.4481953918194251  0.16930550969889438  0.585391878364746  1.0000
  H   H41       1.0  0.40685031608609284  0.8944841908643612  0.850232247794793  1.0000
  H   H42       1.0  0.09104813428903911  0.4470531525785689  0.987391636756371  1.0000
  H   H43       1.0  0.04414153828069093  0.986389686089858  0.8940508567745911  1.0000
  H   H44       1.0  0.4574561978220472  0.8524390253240809  0.4445927279084146  1.0000
  H   H45       1.0  0.5931456480911166  0.10552254795997841  0.14976291681317394  1.0000
  H   H46       1.0  0.9089559033020363  0.5529453370421749  0.012612400834704867  1.0000
  H   H47       1.0  0.9558578248967534  0.01360928506095146  0.10594930597208937  1.0000
  H   H48       1.0  0.5425465654067096  0.14756015611345683  0.5554084361818712  1.0000
  C   C1        1.0  0.4800666685501227  0.8789917624374157  0.9900439225883206  1.0000
  C   C2        1.0  0.017961441273350264  0.5121659896547757  0.897597944496184  1.0000
  C   C3        1.0  0.8876963979913058  0.8970239801963021  0.8774123384419998  1.0000
  C   C4        1.0  0.6133278749697624  0.9924458316134875  0.5114795449020594  1.0000
  C   C5        1.0  0.5199253273239249  0.12101357321675008  0.009956068978112988  1.0000
  C   C6        1.0  0.9820345229038522  0.4878329666141639  0.10239722011177592  1.0000
  C   C7        1.0  0.1123057980366937  0.10297744649406583  0.12259065715523586  1.0000
  C   C8        1.0  0.3866757385345989  0.007553451246941763  0.4885208703253455  1.0000
  C   C9        1.0  0.6296628634919087  0.9389633959027889  0.13751920175565868  1.0000
  C   C10       1.0  0.8678507259332661  0.5080617154256687  0.8079861774558951  1.0000
  C   C11       1.0  0.800429873961626  0.8085930196035777  0.9372081857950649  1.0000
  C   C12       1.0  0.6994721074126886  0.13801218965787151  0.5089659410095921  1.0000
  C   C13       1.0  0.37033295967341945  0.06103870028155727  0.8624734231327056  1.0000
  C   C14       1.0  0.13215274550813663  0.49193856630647304  0.19201569484702938  1.0000
  C   C15       1.0  0.1995699133025397  0.19140840103895582  0.06279559931529384  1.0000
  C   C16       1.0  0.30053278150506924  0.8619865967906222  0.49103335092350175  1.0000
  C   C17       1.0  0.7444366946290939  0.9751534900721097  0.21658027284234319  1.0000
  C   C18       1.0  0.7526539995222449  0.47109299421810397  0.7293921316581592  1.0000
  C   C19       1.0  0.7578594713156689  0.7311717693525069  0.9733865579081924  1.0000
  C   C20       1.0  0.7416879913810988  0.2157116951376993  0.4729239857315196  1.0000
  C   C21       1.0  0.25555558537087114  0.024845308014661838  0.7834168045730581  1.0000
  C   C22       1.0  0.24735570587210992  0.5289043118286119  0.2706095780438106  1.0000
  C   C23       1.0  0.24213847438541336  0.26882804853566716  0.02661618520832582  1.0000
  C   C24       1.0  0.25831080669775014  0.7842866693442261  0.5270700149318871  1.0000
  C   C25       1.0  0.39854885775803667  0.8329297983381565  0.8750721348452971  1.0000
  C   C26       1.0  0.09898420473044908  0.47931924178750057  0.93290453715629  1.0000
  C   C27       1.0  0.9565186304105494  0.932387339229088  0.8315979303883483  1.0000
  C   C28       1.0  0.5452272989408655  0.8786307301391221  0.4777892306336897  1.0000
  C   C29       1.0  0.6014523480335683  0.16707810498099462  0.12492507310010852  1.0000
  C   C30       1.0  0.9010106239941534  0.5206807668508232  0.0670982872607057  1.0000
  C   C31       1.0  0.043481156853616205  0.0676134328671694  0.16840585472200334  1.0000
  C   C32       1.0  0.45477560635085723  0.12136680388042727  0.5222104763810764  1.0000
  I   I1        1.0  0.3404938208878859  0.7526093729764228  0.17919511920850795  1.0000
  I   I2        1.0  0.15724262972283046  0.8391084902892845  0.9092606863117967  1.0000
  I   I3        1.0  0.5718605231881283  0.9106133981571887  0.7510232008005319  1.0000
  I   I4        1.0  0.9296606084565725  0.1791099614560212  0.8404838516852  1.0000
  I   I5        1.0  0.6595093674786768  0.24739050771884785  0.8208056704503409  1.0000
  I   I6        1.0  0.8427561673049339  0.16089162442663965  0.09073731114673242  1.0000
  I   I7        1.0  0.42813090653623215  0.08938335286784144  0.24897462547774313  1.0000
  I   I8        1.0  0.0703374793074687  0.8208882090141643  0.15951743435579863  1.0000
  N   N1        1.0  0.4576102965396132  0.8979058205235333  0.06819529060297216  1.0000
  N   N2        1.0  0.040868299275530436  0.6118514261128711  0.9377315217480702  1.0000
  N   N3        1.0  0.8285198546328443  0.9376711153218764  0.8963345200514966  1.0000
  N   N4        1.0  0.6725422264773542  0.0702759082540113  0.6122363157801731  1.0000
  N   N5        1.0  0.5423911902246701  0.10210079593021262  0.9318109935767399  1.0000
  N   N6        1.0  0.9591351721658724  0.38814950416554694  0.06227035055484744  1.0000
  N   N7        1.0  0.17147979161943278  0.06232760831952082  0.10366672533926656  1.0000
  N   N8        1.0  0.3274605367514098  0.9297187333595431  0.3877648483101127  1.0000
  N   N9        1.0  0.5874931077980534  0.9048436595113644  0.03048039371885395  1.0000
  N   N10       1.0  0.9099500824112567  0.44463453095010425  0.8169138049242481  1.0000
  N   N11       1.0  0.8731925470896371  0.8165743331410057  0.903083643512524  1.0000
  N   N12       1.0  0.6269945795523668  0.03191999783299353  0.44417467224174384  1.0000
  N   N13       1.0  0.41249747375287155  0.0951579207244606  0.9695101878320714  1.0000
  N   N14       1.0  0.0900491397543064  0.5553643373846955  0.18308381810283697  1.0000
  N   N15       1.0  0.12680837352495897  0.1834269414150214  0.09692047537902944  1.0000
  N   N16       1.0  0.3730097421646334  0.9680803853220398  0.5558264511982999  1.0000
  N   N17       1.0  0.552732977062739  0.9353445467587065  0.1618931387425847  1.0000
  N   N18       1.0  0.9452957642431769  0.6091652849234495  0.8800317246962596  1.0000
  N   N19       1.0  0.7723915074678017  0.8807207166963948  0.9337421811477075  1.0000
  N   N20       1.0  0.7278966611658504  0.1629005697376656  0.6106046512509383  1.0000
  N   N21       1.0  0.44727148566613556  0.06466372176773674  0.8381105244170615  1.0000
  N   N22       1.0  0.05470841541086459  0.3908367456495725  0.11997085581929673  1.0000
  N   N23       1.0  0.22761167984767638  0.11928091423287411  0.06626260530625674  1.0000
  N   N24       1.0  0.27210737747630986  0.8370955211027963  0.3893953895450296  1.0000
