data_image0
_chemical_formula_structural       Y6H40C56O36
_chemical_formula_sum              "Y6 H40 C56 O36"
_cell_length_a       11.491118349134194
_cell_length_b       11.934458265920703
_cell_length_c       12.881303584309618
_cell_angle_alpha    85.60202497549892
_cell_angle_beta     66.93127538827788
_cell_angle_gamma    72.04920477066746

_space_group_name_H-M_alt    "P 1"
_space_group_IT_number       1

loop_
  _space_group_symop_operation_xyz
  'x, y, z'

loop_
  _atom_site_type_symbol
  _atom_site_label
  _atom_site_symmetry_multiplicity
  _atom_site_fract_x
  _atom_site_fract_y
  _atom_site_fract_z
  _atom_site_occupancy
  Y   Y1        1.0  0.5843844458593781  0.5592662456906652  0.3578650220075588  1.0000
  Y   Y2        1.0  0.41561368682050653  0.4407329728044545  0.6421361327274655  1.0000
  Y   Y3        1.0  0.5450334648002056  0.8552847198296549  0.23528633698823156  1.0000
  Y   Y4        1.0  0.45496719267170255  0.1447153972664026  0.7647138927173815  1.0000
  Y   Y5        1.0  0.5439545071693531  0.2386146662512019  0.38283493320996353  1.0000
  Y   Y6        1.0  0.456046157859852  0.7613854770458206  0.6171629631892587  1.0000
  H   H1        1.0  0.1688775421861521  0.5660507571959245  0.4044527201328877  1.0000
  H   H2        1.0  0.8311259291991249  0.4339467430093222  0.5955451455125457  1.0000
  H   H3        1.0  0.9404070876798372  0.5797725153730938  0.4213148776676833  1.0000
  H   H4        1.0  0.059595437254408516  0.4202249705126136  0.578684091529354  1.0000
  H   H5        1.0  0.9311373295469639  0.8861374038054421  0.22320270659349  1.0000
  H   H6        1.0  0.06886581695211902  0.11385834459464661  0.7767938246591657  1.0000
  H   H7        1.0  0.15742727720034103  0.8734376470341448  0.2067818582182072  1.0000
  H   H8        1.0  0.8425749508065227  0.12656075562948393  0.7932140522226377  1.0000
  H   H9        1.0  0.8451157951798647  0.46802042577596864  0.18955345662359255  1.0000
  H   H10       1.0  0.15488296687088618  0.5319796539473529  0.810449757954011  1.0000
  H   H11       1.0  0.9274513618071082  0.6694288402636844  0.8911233877077654  1.0000
  H   H12       1.0  0.07254613142551848  0.3305694820686115  0.10887881825985356  1.0000
  H   H13       1.0  0.9351224993126905  0.07249050261783202  0.3848274096684108  1.0000
  H   H14       1.0  0.06488066254971869  0.9275078706970491  0.6151712860648219  1.0000
  H   H15       1.0  0.16407899320621058  0.9887595370691715  0.38615726223547864  1.0000
  H   H16       1.0  0.8359235521295573  0.011240591198642801  0.6138423159045346  1.0000
  H   H17       1.0  0.21937908672790488  0.3320964683657408  0.32988830274456404  1.0000
  H   H18       1.0  0.7806178053414073  0.6679062338342734  0.6701169501104192  1.0000
  H   H19       1.0  0.9915314793327145  0.41459151342587575  0.32358698053645435  1.0000
  H   H20       1.0  0.008466021705949319  0.5854094076202331  0.6764197232181319  1.0000
  H   H21       1.0  0.7144814055611876  0.44840945751248285  0.0243574893124076  1.0000
  H   H22       1.0  0.2855198963961741  0.551591573213713  0.97564013362301  1.0000
  H   H23       1.0  0.3051582664147432  0.4584682828183162  0.15225899713967556  1.0000
  H   H24       1.0  0.6948395642995634  0.5415318349874172  0.8477406543767503  1.0000
  H   H25       1.0  0.8832088698488788  0.18349791668797616  0.12373568644151332  1.0000
  H   H26       1.0  0.11679148565745126  0.8165030997186876  0.8762630400455012  1.0000
  H   H27       1.0  0.8729527396318346  0.8652324361500094  0.9974513145790103  1.0000
  H   H28       1.0  0.12704792287826902  0.13476769841335573  0.0025473595890161916  1.0000
  H   H29       1.0  0.3880183682201165  0.7809480113614459  0.43762709838794234  1.0000
  H   H30       1.0  0.6119804064261275  0.2190521120301696  0.5623722273456766  1.0000
  H   H31       1.0  0.37427846368635187  0.47047272730650047  0.436698635044195  1.0000
  H   H32       1.0  0.6257193924676728  0.5295300503486473  0.56330006987762  1.0000
  H   H33       1.0  0.42861754222565907  0.0395979423536801  0.08564860274067605  1.0000
  H   H34       1.0  0.5713837675377393  0.9604056870863288  0.9143535179817024  1.0000
  H   H35       1.0  0.347547416091821  0.9483201496214736  0.13337433315840036  1.0000
  H   H36       1.0  0.6524542183090248  0.05168265911084552  0.8666222908634112  1.0000
  H   H37       1.0  0.6682171987418996  0.9632323439949888  0.3744227842333033  1.0000
  H   H38       1.0  0.33178440014284405  0.036767769953286206  0.6255778974583066  1.0000
  H   H39       1.0  0.6051510931154882  0.020310249038900004  0.5002970593650816  1.0000
  H   H40       1.0  0.394849894280803  0.9796916373296158  0.49970294919572233  1.0000
  C   C1        1.0  0.31618071336516346  0.7097579501581779  0.2937354478707165  1.0000
  C   C2        1.0  0.6838186906519466  0.290243034461632  0.7062659377054886  1.0000
  C   C3        1.0  0.1789560850155708  0.7181615038631154  0.3036406993561727  1.0000
  C   C4        1.0  0.8210464499950659  0.28183601695722166  0.6963551587656697  1.0000
  C   C5        1.0  0.11654614685546251  0.6357510100356266  0.3645039060951519  1.0000
  C   C6        1.0  0.8834567105222673  0.36424825385620363  0.6354940641882721  1.0000
  C   C7        1.0  0.9896356744075377  0.6430729758078187  0.37384619574018546  1.0000
  C   C8        1.0  0.01036810398150589  0.356923642554129  0.6261516175862526  1.0000
  C   C9        1.0  0.9218753979570736  0.732653671944348  0.32249591549715007  1.0000
  C   C10       1.0  0.0781246072233444  0.26734293280775034  0.6775024231916975  1.0000
  C   C11       1.0  0.9828822431268592  0.8164300703171606  0.2634395551437621  1.0000
  C   C12       1.0  0.01711493781505878  0.18356654387827126  0.7365574275870943  1.0000
  C   C13       1.0  0.11011002334681316  0.8089162253127357  0.2540204749541318  1.0000
  C   C14       1.0  0.8898903167961906  0.1910821661791431  0.7459760870523127  1.0000
  C   C15       1.0  0.789197972125976  0.7333725068800023  0.3260213308445187  1.0000
  C   C16       1.0  0.21080048544010307  0.2666284634202682  0.6739811582832831  1.0000
  C   C17       1.0  0.7371629949660916  0.6648415228873219  0.09357847233626872  1.0000
  C   C18       1.0  0.26283671605478537  0.3351585798891961  0.9064228609209412  1.0000
  C   C19       1.0  0.8712425119539019  0.5777299037298677  0.04479917370756691  1.0000
  C   C20       1.0  0.12875844496448965  0.42226930532191903  0.9552033369854345  1.0000
  C   C21       1.0  0.9118573142658873  0.48219928029466536  0.10622293386990836  1.0000
  C   C22       1.0  0.08814206431150497  0.5177990444757302  0.8937793983009074  1.0000
  C   C23       1.0  0.9601813079759937  0.5951751630641197  0.93823633094592  1.0000
  C   C24       1.0  0.03981871256775093  0.4048240666027639  0.061764172223504894  1.0000
  C   C25       1.0  0.81012339235982  0.30049263714596464  0.3688171022730845  1.0000
  C   C26       1.0  0.18987598621757235  0.6995056876244305  0.6311852298977314  1.0000
  C   C27       1.0  0.9506547990133213  0.24853741744010452  0.35692867605073536  1.0000
  C   C28       1.0  0.0493452139731333  0.751461786025807  0.6430741604250727  1.0000
  C   C29       1.0  0.9989174370548285  0.12790329652906962  0.3718186865415517  1.0000
  C   C30       1.0  0.0010832153788839993  0.8720968030996732  0.6281830987016478  1.0000
  C   C31       1.0  0.12527315483830392  0.08184218632171542  0.3727859445303211  1.0000
  C   C32       1.0  0.8747290834936976  0.9181588237893907  0.6272136859286875  1.0000
  C   C33       1.0  0.2013991768313588  0.1573589322219675  0.3616864131660479  1.0000
  C   C34       1.0  0.7985992807347201  0.84264203807831  0.6383160759617539  1.0000
  C   C35       1.0  0.15582652520195242  0.27683644408350727  0.3412887130458061  1.0000
  C   C36       1.0  0.8441716178030634  0.7231653818590901  0.6587161617073748  1.0000
  C   C37       1.0  0.03097168166021903  0.3218549999255274  0.3375632560018147  1.0000
  C   C38       1.0  0.9690261289013051  0.6781450480109471  0.6624426176649792  1.0000
  C   C39       1.0  0.32633944966664075  0.1135335356167317  0.3812302374020576  1.0000
  C   C40       1.0  0.6736615402487516  0.8864683594854487  0.6187689933899494  1.0000
  C   C41       1.0  0.5217065658360839  0.39579586083572593  0.20304067079450758  1.0000
  C   C42       1.0  0.47829441375417775  0.6042034268189839  0.7969548399793354  1.0000
  C   C43       1.0  0.5107287431698992  0.4493963138431668  0.09814480134415503  1.0000
  C   C44       1.0  0.48926882386277987  0.5506099793037151  0.9018553426084284  1.0000
  C   C45       1.0  0.6210417569213932  0.4721840669459283  0.012840322587003006  1.0000
  C   C46       1.0  0.37895642411882585  0.5278204625143773  0.9871597167275895  1.0000
  C   C47       1.0  0.3897092119854833  0.4769040691729815  0.08494597509364613  1.0000
  C   C48       1.0  0.610288309205956  0.5230969217423863  0.9150545065105647  1.0000
  C   C49       1.0  0.719486548981955  0.05479159887055831  0.14495274875636718  1.0000
  C   C50       1.0  0.2805147224974932  0.9452067545389086  0.855047376311255  1.0000
  C   C51       1.0  0.8636910112392899  0.02750973054976671  0.06749502906176734  1.0000
  C   C52       1.0  0.1363077634069542  0.9724903928418485  0.9325042966718516  1.0000
  C   C53       1.0  0.9355088873958197  0.10325549374520901  0.06927491830932551  1.0000
  C   C54       1.0  0.06449272156531569  0.8967446551376951  0.9307226523070968  1.0000
  C   C55       1.0  0.929292670041242  0.9239895967365546  0.9974640120509336  1.0000
  C   C56       1.0  0.07070799246885431  0.07601053782681082  0.002534662117085395  1.0000
  O   O1        1.0  0.37662863719077694  0.621400456221437  0.3349258944212395  1.0000
  O   O2        1.0  0.6233745246716325  0.378597917093444  0.6650728013119862  1.0000
  O   O3        1.0  0.3638313746566837  0.7930824510798689  0.24694000350324796  1.0000
  O   O4        1.0  0.6361680369177166  0.20691855974091317  0.7530590487665734  1.0000
  O   O5        1.0  0.7542251146704545  0.642064420381118  0.356937030354331  1.0000
  O   O6        1.0  0.24577083850512355  0.3579382937003358  0.6430669927458582  1.0000
  O   O7        1.0  0.7216095314418141  0.8264624979712918  0.292719573512919  1.0000
  O   O8        1.0  0.278391126030087  0.17353761912476537  0.7072806561926941  1.0000
  O   O9        1.0  0.6530275298604167  0.6462832293511909  0.19045339409830583  1.0000
  O   O10       1.0  0.34697092770566235  0.3537177409490867  0.809549095029496  1.0000
  O   O11       1.0  0.7055554148969563  0.7602235982098264  0.047425632580903695  1.0000
  O   O12       1.0  0.2944442936048262  0.23977649583303426  0.952576478445103  1.0000
  O   O13       1.0  0.7400125887540199  0.23084351402551564  0.39095348956622905  1.0000
  O   O14       1.0  0.2599899286229358  0.7691539456592269  0.6090478129371919  1.0000
  O   O15       1.0  0.7672367122173042  0.4107463531450152  0.3601048277863798  1.0000
  O   O16       1.0  0.2327601390489634  0.5892510642907994  0.6398992071826373  1.0000
  O   O17       1.0  0.3936184383115062  0.004073715375675103  0.3595256212289685  1.0000
  O   O18       1.0  0.6063816076719634  0.9959281741406233  0.6404739353458384  1.0000
  O   O19       1.0  0.35717464658539905  0.18504648417101072  0.42561712382161  1.0000
  O   O20       1.0  0.6428282082732367  0.8149527709871618  0.5743816242306111  1.0000
  O   O21       1.0  0.6155593440841827  0.402225048469333  0.2312645941938316  1.0000
  O   O22       1.0  0.38443814914844426  0.5977732738629628  0.7687376117737872  1.0000
  O   O23       1.0  0.4387816383574973  0.3430702016775697  0.26284607835201274  1.0000
  O   O24       1.0  0.5612205793242354  0.6569255935385881  0.7371461120706615  1.0000
  O   O25       1.0  0.6705185871919211  0.14394928328842133  0.21316943417062376  1.0000
  O   O26       1.0  0.32948237728376023  0.8560499519643373  0.7868307432159939  1.0000
  O   O27       1.0  0.6539740127823139  0.987951056954941  0.14024048683580762  1.0000
  O   O28       1.0  0.3460282001099629  0.0120472933067433  0.8597600902178045  1.0000
  O   O29       1.0  0.4836882074184672  0.7631242465643595  0.4156441577612142  1.0000
  O   O30       1.0  0.5163105672277766  0.2368758768272485  0.5843551679724046  1.0000
  O   O31       1.0  0.45132552282559146  0.43340236689320505  0.45589040089214455  1.0000
  O   O32       1.0  0.5486707270286219  0.5665968578974799  0.5441098498708856  1.0000
  O   O33       1.0  0.4341464674599108  0.959955249693451  0.11170191894348865  1.0000
  O   O34       1.0  0.5658551543454493  0.04004751537058841  0.8882985939223078  1.0000
  O   O35       1.0  0.6284697780370366  0.0383395878321124  0.4201196818864474  1.0000
  O   O36       1.0  0.37152963353736373  0.9616614229886765  0.579879370383374  1.0000
