data_image0
_chemical_formula_structural       Cd2H38C40S2N6O16
_chemical_formula_sum              "Cd2 H38 C40 S2 N6 O16"
_cell_length_a       8.320006069317836
_cell_length_b       10.223735543645692
_cell_length_c       13.830366323391122
_cell_angle_alpha    99.81617229052588
_cell_angle_beta     100.94059625655225
_cell_angle_gamma    104.57392109625457

_space_group_name_H-M_alt    "P 1"
_space_group_IT_number       1

loop_
  _space_group_symop_operation_xyz
  'x, y, z'

loop_
  _atom_site_type_symbol
  _atom_site_label
  _atom_site_symmetry_multiplicity
  _atom_site_fract_x
  _atom_site_fract_y
  _atom_site_fract_z
  _atom_site_occupancy
  Cd  Cd1       1.0  0.7778836661071723  0.3899274783170057  0.49473432799661765  1.0000
  Cd  Cd2       1.0  0.22211293514932612  0.6100713770724369  0.5052671985367141  1.0000
  H   H1        1.0  0.5446282205094805  0.21562212013529353  0.553196718774764  1.0000
  H   H2        1.0  0.45536838074701813  0.7843767352541493  0.44680480775856785  1.0000
  H   H3        1.0  0.4427810285064383  0.32685326819687793  0.5367211298653274  1.0000
  H   H4        1.0  0.5572180078071655  0.6731455936179954  0.46328141668719514  1.0000
  H   H5        1.0  0.22163674533524622  0.9879170567219903  0.016962239560790206  1.0000
  H   H6        1.0  0.7783622268255289  0.012084921074063004  0.9830385175738028  1.0000
  H   H7        1.0  0.3893631759901483  0.9714241002766646  0.10029554962689963  1.0000
  H   H8        1.0  0.6106361513213727  0.0285789142873227  0.8997061027976087  1.0000
  H   H9        1.0  0.48419360718889953  0.147848344217806  0.3398121652827725  1.0000
  H   H10       1.0  0.5157989943242358  0.8521494655737459  0.6601865754520304  1.0000
  H   H11       1.0  0.721214424511743  0.5487238356574196  0.32336102119683113  1.0000
  H   H12       1.0  0.27878388551428673  0.4512729510052083  0.6766404557355087  1.0000
  H   H13       1.0  0.5241802210352233  0.521925464813961  0.15640230595647606  1.0000
  H   H14       1.0  0.4758192024013042  0.47807443700160235  0.8435996939666593  1.0000
  H   H15       1.0  0.29492534712460383  0.2919176804846161  0.0779825871248718  1.0000
  H   H16       1.0  0.7050704317193067  0.7080822125009973  0.9220175222896501  1.0000
  H   H17       1.0  0.10772122598122279  0.087457983813124  0.13514911408360317  1.0000
  H   H18       1.0  0.8922721979445074  0.912538788382257  0.8648510437700025  1.0000
  H   H19       1.0  0.2135779162554385  0.020017915455419203  0.23085837879761326  1.0000
  H   H20       1.0  0.7864171043287201  0.9799798991451851  0.7691421029160279  1.0000
  H   H21       1.0  0.03209706893031249  0.8246329445473963  0.0974519171002939  1.0000
  H   H22       1.0  0.9679001434628276  0.1753638510253737  0.9025436426250832  1.0000
  H   H23       1.0  0.22677103711785668  0.793658140354218  0.15595231866802103  1.0000
  H   H24       1.0  0.773227208755344  0.2063417622895898  0.8440473688463965  1.0000
  H   H25       1.0  0.8913536734112739  0.6143755183444527  0.7647021414576187  1.0000
  H   H26       1.0  0.10865244081161766  0.3856223389098262  0.23529680218537408  1.0000
  H   H27       1.0  0.008239534766275447  0.4141592691618002  0.7589531820915949  1.0000
  H   H28       1.0  0.9917762073654758  0.5858448473729397  0.24104554183267618  1.0000
  H   H29       1.0  0.22301891245178507  0.4084095867430478  0.9143507369623833  1.0000
  H   H30       1.0  0.7769939755277593  0.5915934801328007  0.0856489554913722  1.0000
  H   H31       1.0  0.30494811977766295  0.6075269766428449  0.06677259770997071  1.0000
  H   H32       1.0  0.6950573831001136  0.3924760628748131  0.9332276394844498  1.0000
  H   H33       1.0  0.7547428512497447  0.8814626200064026  0.507857434732486  1.0000
  H   H34       1.0  0.2452579258055678  0.11853417631441938  0.4921436202997497  1.0000
  H   H35       1.0  0.1185959294698122  0.2279247923687535  0.7275783367107209  1.0000
  H   H36       1.0  0.881399090905866  0.7720761446785431  0.27241747174640096  1.0000
  H   H37       1.0  0.14567276001244525  0.8133272336025642  0.7312834212381105  1.0000
  H   H38       1.0  0.8543265513129796  0.1866757793450375  0.2687189521460453  1.0000
  C   C1        1.0  0.3710373788075501  0.2026455626527195  0.20313685992916664  1.0000
  C   C2        1.0  0.6289564642132747  0.7973522527761149  0.7968613093757568  1.0000
  C   C3        1.0  0.4880901649003632  0.227286673953266  0.2958134005914843  1.0000
  C   C4        1.0  0.5119053389317259  0.7727090678996122  0.7041868819913971  1.0000
  C   C5        1.0  0.6214406428757899  0.4515203390745484  0.2864772487545152  1.0000
  C   C6        1.0  0.37855811842599263  0.5484743716075969  0.7135254709663669  1.0000
  C   C7        1.0  0.5109409675515054  0.4351305768699588  0.1932582520488708  1.0000
  C   C8        1.0  0.4890565360480253  0.5648672490052178  0.8067410868050187  1.0000
  C   C9        1.0  0.3846675932411473  0.30897049860587344  0.15055643786328687  1.0000
  C   C10       1.0  0.6153291201264466  0.6910252456515381  0.8494447152090173  1.0000
  C   C11       1.0  0.22880952804892024  0.06856228330941863  0.16700633725437797  1.0000
  C   C12       1.0  0.7711866059457365  0.9314386464441214  0.8329946674500589  1.0000
  C   C13       1.0  0.1589749407465818  0.8191825944938459  0.08889852807360654  1.0000
  C   C14       1.0  0.8410249337572253  0.18081835378794153  0.9111000413815444  1.0000
  C   C15       1.0  0.13476437972020255  0.70980409359764  0.9951686662354078  1.0000
  C   C16       1.0  0.8652412672408546  0.29019583802074334  0.0048297555786974075  1.0000
  C   C17       1.0  0.9827833220505866  0.609257226990188  0.8308626745012261  1.0000
  C   C18       1.0  0.017222824144482743  0.39074063349685423  0.16913482722247145  1.0000
  C   C19       1.0  0.04867117652052855  0.4962267252683362  0.8279406275167673  1.0000
  C   C20       1.0  0.9513417434311864  0.5037763448402757  0.17205762301769303  1.0000
  C   C21       1.0  0.16660615465895756  0.49395410707256804  0.9135744165797135  1.0000
  C   C22       1.0  0.8334039271266465  0.5060479149935448  0.08642408152459069  1.0000
  C   C23       1.0  0.2119806776665882  0.6034575712404973  0.9984651579363515  1.0000
  C   C24       1.0  0.788024681127915  0.3965485761764355  0.0015368946383916308  1.0000
  C   C25       1.0  0.9420274471752849  0.8302813829838341  0.615198839290663  1.0000
  C   C26       1.0  0.0579727986738305  0.1697174812355655  0.3848045777512752  1.0000
  C   C27       1.0  0.8629894296134996  0.9204888133069818  0.5737011852099485  1.0000
  C   C28       1.0  0.13700970261663772  0.079510058206175  0.4262970355846818  1.0000
  C   C29       1.0  0.9271970335291756  0.06361285912111471  0.6130618874110993  1.0000
  C   C30       1.0  0.07280051802861458  0.9363849716032105  0.3869352885638406  1.0000
  C   C31       1.0  0.067871123028965  0.11642723416313319  0.6967983353874911  1.0000
  C   C32       1.0  0.9321267035406609  0.8835747476939136  0.3031986674190891  1.0000
  C   C33       1.0  0.14241126762841116  0.0257493125514472  0.7402813705914753  1.0000
  C   C34       1.0  0.8575876243934388  0.9742557796094006  0.2597183180848432  1.0000
  C   C35       1.0  0.08364137929275736  0.8831710051087784  0.6987819900708061  1.0000
  C   C36       1.0  0.9163572217311825  0.11682993430296308  0.3012185927335267  1.0000
  C   C37       1.0  0.8767298471161951  0.6781167908813829  0.5702212823072443  1.0000
  C   C38       1.0  0.12327125311768587  0.32188103897460973  0.42978210993420163  1.0000
  C   C39       1.0  0.8473110811402124  0.15998648395929393  0.5645974081064509  1.0000
  C   C40       1.0  0.15269016296846866  0.840011360444123  0.43539949549816004  1.0000
  S   S1        1.0  0.3014651031368132  0.0946943606496617  0.8567896921607598  1.0000
  S   S2        1.0  0.6985326594884497  0.9053076147418648  0.14321019448441769  1.0000
  N   N1        1.0  0.6104437369928845  0.34883917236547995  0.33653896447071924  1.0000
  N   N2        1.0  0.38955218593430635  0.6511576127208586  0.6634593295634799  1.0000
  N   N3        1.0  0.2573752812844178  0.9628857277041122  0.08695741211948162  1.0000
  N   N4        1.0  0.7426217230810936  0.037114169302405714  0.9130428468248154  1.0000
  N   N5        1.0  0.02307027700043559  0.7141717772404804  0.9123542790982951  1.0000
  N   N6        1.0  0.9769349668516016  0.2858271127608277  0.08764541030484452  1.0000
  O   O1        1.0  0.9764154064826158  0.6030142950187524  0.5890932540091851  1.0000
  O   O2        1.0  0.02358679117567422  0.3969866483738045  0.4109113821827107  1.0000
  O   O3        1.0  0.724686208806169  0.6242936431110452  0.5159902749096261  1.0000
  O   O4        1.0  0.2753132947692762  0.37570314433972385  0.4840127934717842  1.0000
  O   O5        1.0  0.7065267964103726  0.11196626710710689  0.49885456134263956  1.0000
  O   O6        1.0  0.29347325414888564  0.888031576508169  0.5011407508129011  1.0000
  O   O7        1.0  0.932165010607669  0.2897600918427799  0.5940484989062043  1.0000
  O   O8        1.0  0.06783128345634985  0.7102377316278704  0.4059499694582626  1.0000
  O   O9        1.0  0.3995285242246354  0.23348452683037388  0.8541225656642907  1.0000
  O   O10       1.0  0.6004686430416017  0.7665226324409032  0.14587789357266703  1.0000
  O   O11       1.0  0.19884372815426596  0.09560743472290771  0.9336262346942092  1.0000
  O   O12       1.0  0.8011556151433368  0.9043955814574504  0.06637469677065161  1.0000
  O   O13       1.0  0.4009086549969467  0.9943741335689465  0.8641107708195148  1.0000
  O   O14       1.0  0.5990910754235798  0.0056299226121083994  0.13588961401595864  1.0000
  O   O15       1.0  0.5523148754570784  0.314295927707512  0.5723844163562148  1.0000
  O   O16       1.0  0.44768219306126167  0.685700853317833  0.4276176320060046  1.0000
