data_image0
_chemical_formula_structural       Ag2H20C18S2N4O6
_chemical_formula_sum              "Ag2 H20 C18 S2 N4 O6"
_cell_length_a       7.368033478753725
_cell_length_b       7.88103598278118
_cell_length_c       9.845852960882604
_cell_angle_alpha    110.38639489411939
_cell_angle_beta     93.11543133226438
_cell_angle_gamma    93.26825209622066

_space_group_name_H-M_alt    "P 1"
_space_group_IT_number       1

loop_
  _space_group_symop_operation_xyz
  'x, y, z'

loop_
  _atom_site_type_symbol
  _atom_site_label
  _atom_site_symmetry_multiplicity
  _atom_site_fract_x
  _atom_site_fract_y
  _atom_site_fract_z
  _atom_site_occupancy
  Ag  Ag1       1.0  0.45211048224607725  0.3546958068180787  0.2865033979448484  1.0000
  Ag  Ag2       1.0  0.5478913231726565  0.6453029389658698  0.7134933300332733  1.0000
  H   H1        1.0  0.1496421845988749  0.9305833359875069  0.14893938769153445  1.0000
  H   H2        1.0  0.8503572066187033  0.06941948311988  0.8510614117986036  1.0000
  H   H3        1.0  0.4111917940705894  0.9638700481958439  0.3297829531721632  1.0000
  H   H4        1.0  0.588810412435528  0.03613413685813071  0.6702163025586215  1.0000
  H   H5        1.0  0.3998341646082721  0.16161250706350225  0.5888330531840751  1.0000
  H   H6        1.0  0.6001719226953242  0.8383889946161672  0.41116561864184575  1.0000
  H   H7        1.0  0.1273438586883913  0.33324094758850714  0.6710228140905058  1.0000
  H   H8        1.0  0.8726618411786192  0.6667551567314546  0.3289794360747749  1.0000
  H   H9        1.0  0.1868202298813841  0.6032041065686043  0.14701627974455528  1.0000
  H   H10       1.0  0.8131762304186694  0.3967959396255764  0.8529785622132664  1.0000
  H   H11       1.0  0.17413880991080083  0.4690440079306627  0.9591834791711663  1.0000
  H   H12       1.0  0.825858815601265  0.5309533470138633  0.040812700158817015  1.0000
  H   H13       1.0  0.5212469480104858  0.6104792723514335  0.16375543721483862  1.0000
  H   H14       1.0  0.47874951228957496  0.38952077384274736  0.8362394047429758  1.0000
  H   H15       1.0  0.43922967300627386  0.692534201145179  0.027763921329985078  1.0000
  H   H16       1.0  0.560765427225917  0.3074658341262761  0.9722308635843433  1.0000
  H   H17       1.0  0.2745611058131914  0.22492598262171984  0.018512787331388794  1.0000
  H   H18       1.0  0.7254367168298685  0.7750740814802413  0.981483129351929  1.0000
  H   H19       1.0  0.12092841458700582  0.31013338145835695  0.13271354921289458  1.0000
  H   H20       1.0  0.8790694103311908  0.6898666896286586  0.8672833851524189  1.0000
  C   C1        1.0  0.9955968408753791  0.11319977881053939  0.3126020842594882  1.0000
  C   C2        1.0  0.0044034255455614076  0.8867963027736749  0.6874029907778335  1.0000
  C   C3        1.0  0.14398466762781942  0.015114900884761102  0.2628169095280199  1.0000
  C   C4        1.0  0.8560159885048363  0.9848865850442151  0.7371856048519517  1.0000
  C   C5        1.0  0.2904524426243498  0.0351324684268022  0.365707270141634  1.0000
  C   C6        1.0  0.7095508293907142  0.9648676673062796  0.6342929454436541  1.0000
  C   C7        1.0  0.2838139740337411  0.1470220632499704  0.5112815029651543  1.0000
  C   C8        1.0  0.7161878359352656  0.8529766965040864  0.4887172603769728  1.0000
  C   C9        1.0  0.1318404350881295  0.24363772919587492  0.5585368897369705  1.0000
  C   C10       1.0  0.8681612865534803  0.7563597074122015  0.44146658449750475  1.0000
  C   C11       1.0  0.987151176159898  0.2266807144962755  0.456593161442207  1.0000
  C   C12       1.0  0.012850452604041608  0.7733153849957191  0.5434129883206111  1.0000
  C   C13       1.0  0.8156072571979393  0.32310796210513365  0.4782804581374762  1.0000
  C   C14       1.0  0.1843903910654632  0.6768894626899213  0.5217258980125337  1.0000
  C   C15       1.0  0.25348922455540185  0.4985948807018872  0.06435575004788058  1.0000
  C   C16       1.0  0.7465072380197881  0.5014051724773408  0.9356401095919438  1.0000
  C   C17       1.0  0.44713064251559587  0.5691686299582627  0.055060287978442056  1.0000
  C   C18       1.0  0.5528646571227184  0.43083412145567496  0.9449352519712164  1.0000
  S   S1        1.0  0.7956914996036771  0.1327437452748796  0.21353429710345034  1.0000
  S   S2        1.0  0.20431052114711437  0.8672577655469242  0.786470309684013  1.0000
  N   N1        1.0  0.7089788698009445  0.2820587733302774  0.3511518557652167  1.0000
  N   N2        1.0  0.2910215892007244  0.7179400034412565  0.6488509212614274  1.0000
  N   N3        1.0  0.24960362936270997  0.33569053696280804  0.106358032829263  1.0000
  N   N4        1.0  0.7503983754621473  0.6643109249636295  0.8936394501841888  1.0000
  O   O1        1.0  0.6786828439422479  0.963936556093053  0.16120520392636453  1.0000
  O   O2        1.0  0.32131780536501253  0.0360649088807605  0.8387942574075994  1.0000
  O   O3        1.0  0.7788035738663054  0.4282129577262168  0.5989804631231977  1.0000
  O   O4        1.0  0.22119376846250563  0.5717803718999478  0.40102170742780885  1.0000
  O   O5        1.0  0.8428349476693598  0.20901654756213617  0.10357014420090847  1.0000
  O   O6        1.0  0.1571741748050925  0.7909890990720853  0.8964368980390062  1.0000
