data_image0
_chemical_formula_structural       Cu2H24C32N4O16
_chemical_formula_sum              "Cu2 H24 C32 N4 O16"
_cell_length_a       8.028983343867983
_cell_length_b       8.028942562141497
_cell_length_c       13.359196003133707
_cell_angle_alpha    74.83309690131816
_cell_angle_beta     74.83296855108324
_cell_angle_gamma    69.64938968088292

_space_group_name_H-M_alt    "P 1"
_space_group_IT_number       1

loop_
  _space_group_symop_operation_xyz
  'x, y, z'

loop_
  _atom_site_type_symbol
  _atom_site_label
  _atom_site_symmetry_multiplicity
  _atom_site_fract_x
  _atom_site_fract_y
  _atom_site_fract_z
  _atom_site_occupancy
  Cu  Cu1       1.0  0.5000002453814003  7.90681553998239e-07  0.4999996590340672  1.0000
  Cu  Cu2       1.0  0.9999980046101339  0.500001043471933  4.195339471109806e-07  1.0000
  H   H1        1.0  0.8956764728339836  0.8523411166437144  0.06329687641645868  1.0000
  H   H2        1.0  0.8523453092860718  0.8956740703941364  0.5632995388822976  1.0000
  H   H3        1.0  0.10432331053524985  0.1476616950730048  0.9367024805270318  1.0000
  H   H4        1.0  0.1476603750531282  0.10432197401851791  0.43670219596948096  1.0000
  H   H5        1.0  0.23783256755348947  0.6633198011280399  0.902697931205104  1.0000
  H   H6        1.0  0.6633207213928499  0.2378359752323504  0.4026969374770317  1.0000
  H   H7        1.0  0.7621654106086734  0.33667622740554026  0.09730273587715739  1.0000
  H   H8        1.0  0.33668157024612094  0.7621627691647249  0.5973041544644886  1.0000
  H   H9        1.0  0.14550929126140474  0.6225680709692725  0.8162439581996564  1.0000
  H   H10       1.0  0.622569263226623  0.1455093784938839  0.31624113080779637  1.0000
  H   H11       1.0  0.8544857184240227  0.37743332932277  0.18375933661424423  1.0000
  H   H12       1.0  0.37743386042352245  0.8544866686590566  0.6837594970836065  1.0000
  H   H13       1.0  0.43207517765787873  0.38297722805150153  0.013516720912186007  1.0000
  H   H14       1.0  0.3829751717573586  0.4320787999215057  0.5135156805772922  1.0000
  H   H15       1.0  0.5679164714737935  0.6170269043582409  0.9864829268426474  1.0000
  H   H16       1.0  0.6170305810744096  0.5679213251371281  0.48648392416243524  1.0000
  H   H17       1.0  0.7576655583543822  0.9762221009424366  0.82831903998499  1.0000
  H   H18       1.0  0.9762244406313056  0.7576631300248593  0.32831893241581156  1.0000
  H   H19       1.0  0.24233469745806951  0.023783430748224504  0.1716790813771922  1.0000
  H   H20       1.0  0.023777834934428182  0.24233559830558699  0.6716836616001061  1.0000
  H   H21       1.0  0.3037007270562171  0.39501525168105195  0.7168177729633173  1.0000
  H   H22       1.0  0.395018330899475  0.3037020267825881  0.21681486873583822  1.0000
  H   H23       1.0  0.6962938584057098  0.6049834768369564  0.28318225120867874  1.0000
  H   H24       1.0  0.6049770624637599  0.6962939803913387  0.7831869444976577  1.0000
  C   C1        1.0  0.3539123342992453  0.4088331909865559  0.8658289621939447  1.0000
  C   C2        1.0  0.40883303748995553  0.3539159241733287  0.3658262391154139  1.0000
  C   C3        1.0  0.6460780344878997  0.5911709427933332  0.13417013208069756  1.0000
  C   C4        1.0  0.5911692621856374  0.6460828282570644  0.6341741017889005  1.0000
  C   C5        1.0  0.4628228857942316  0.3280913345214033  0.9422390654031928  1.0000
  C   C6        1.0  0.3280887709048129  0.46282689955487644  0.4422360914211437  1.0000
  C   C7        1.0  0.5371734363822042  0.6719100965337648  0.0577617787420905  1.0000
  C   C8        1.0  0.6719182783447194  0.5371732402002464  0.5577625647243634  1.0000
  C   C9        1.0  0.605971157796091  0.1704027151878904  0.9299434303388877  1.0000
  C   C10       1.0  0.17040783449566987  0.6059669961128619  0.429941588887111  1.0000
  C   C11       1.0  0.3940303018317051  0.8295987264533196  0.07005812565273567  1.0000
  C   C12       1.0  0.8295991986806255  0.3940331275756179  0.570058569332801  1.0000
  C   C13       1.0  0.6443956741741342  0.09686446843414129  0.8397040009183313  1.0000
  C   C14       1.0  0.09686216030054591  0.6443958073397412  0.3397005065196126  1.0000
  C   C15       1.0  0.3556011728648442  0.9031437471743189  0.16029497960798975  1.0000
  C   C16       1.0  0.903141427756196  0.3556029517538236  0.6602996368276877  1.0000
  C   C17       1.0  0.5362510281388706  0.1788763000840063  0.7630484555092849  1.0000
  C   C18       1.0  0.17887509863459874  0.5362520223838558  0.2630504544158683  1.0000
  C   C19       1.0  0.46374833100684726  0.8211238398586787  0.23694763079230086  1.0000
  C   C20       1.0  0.8211224958497492  0.4637493992678472  0.7369516942468053  1.0000
  C   C21       1.0  0.38861848782700276  0.33301939140584846  0.7765630313428318  1.0000
  C   C22       1.0  0.3330215051444012  0.3886175998938271  0.2765592617602195  1.0000
  C   C23       1.0  0.6113756776110291  0.6669806817175682  0.22343760037282587  1.0000
  C   C24       1.0  0.6669777613989112  0.6113784353029247  0.7234412077650275  1.0000
  C   C25       1.0  0.7144327418848064  0.0802613466205599  0.014776776267709067  1.0000
  C   C26       1.0  0.08026443003208059  0.7144275916873044  0.5147776392795931  1.0000
  C   C27       1.0  0.2855688023087949  0.9197441917332655  0.9852211475374586  1.0000
  C   C28       1.0  0.9197429707487922  0.285567122816424  0.4852225394343109  1.0000
  C   C29       1.0  0.5870358356733759  0.09581224925077689  0.6671095702066694  1.0000
  C   C30       1.0  0.09581701349489433  0.5870298172741927  0.16710962046008856  1.0000
  C   C31       1.0  0.4129652521502435  0.9041905851957424  0.33288808710540246  1.0000
  C   C32       1.0  0.9041818410611381  0.4129675705612853  0.8328907055716143  1.0000
  N   N1        1.0  0.20240512369511504  0.5653490775117831  0.8822084196852984  1.0000
  N   N2        1.0  0.5653483402437086  0.20240311048163306  0.3822063242001689  1.0000
  N   N3        1.0  0.7975899544828733  0.4346564034262457  0.11779274501655118  1.0000
  N   N4        1.0  0.43465309107462247  0.7975942906801804  0.6177936067175054  1.0000
  O   O1        1.0  0.7455057316416854  0.9910014158800918  0.6490501274260226  1.0000
  O   O2        1.0  0.9910007404224782  0.7455053379878792  0.1490493931884912  1.0000
  O   O3        1.0  0.25449106297796925  0.0090027351490107  0.3509494811379524  1.0000
  O   O4        1.0  0.008999446897412586  0.25449611305680264  0.8509508582857491  1.0000
  O   O5        1.0  0.4646132133861867  0.1359976962597429  0.6111861176746558  1.0000
  O   O6        1.0  0.13599293390760886  0.4646059528082347  0.11118839234967477  1.0000
  O   O7        1.0  0.5353878664008105  0.8640051301534657  0.3888122906746219  1.0000
  O   O8        1.0  0.8640042363532385  0.5353927970694343  0.8888104856710939  1.0000
  O   O9        1.0  0.8273158087093219  0.9197459472982531  0.0007928651462804856  1.0000
  O   O10       1.0  0.9197481102671072  0.8273164575877345  0.5007959809825594  1.0000
  O   O11       1.0  0.1726822379453948  0.08025416188130662  0.9992056718239298  1.0000
  O   O12       1.0  0.08025626961770625  0.17267956409511243  0.4992074535006381  1.0000
  O   O13       1.0  0.6966230507752655  0.1495386646193921  0.09158609864266512  1.0000
  O   O14       1.0  0.1495428288043995  0.6966128083317215  0.5915882327811488  1.0000
  O   O15       1.0  0.30338322271943247  0.8504642286130776  0.9084077642925408  1.0000
  O   O16       1.0  0.8504644793740467  0.3033778014260733  0.40841632915642373  1.0000
