data_image0
_chemical_formula_structural       Zn6H51C77O24F15
_chemical_formula_sum              "Zn6 H51 C77 O24 F15"
_cell_length_a       18.552445763158143
_cell_length_b       18.707474310985337
_cell_length_c       18.82775123696133
_cell_angle_alpha    109.54106960210767
_cell_angle_beta     109.26907176139471
_cell_angle_gamma    108.9798896524643

_space_group_name_H-M_alt    "P 1"
_space_group_IT_number       1

loop_
  _space_group_symop_operation_xyz
  'x, y, z'

loop_
  _atom_site_type_symbol
  _atom_site_label
  _atom_site_symmetry_multiplicity
  _atom_site_fract_x
  _atom_site_fract_y
  _atom_site_fract_z
  _atom_site_occupancy
  Zn  Zn1       1.0  0.562161432002334  0.56140727630396  0.5033591851233582  1.0000
  Zn  Zn2       1.0  0.436930881100622  0.43714736505448565  0.5047140563755833  1.0000
  Zn  Zn3       1.0  0.9977943260347784  0.565336961083915  0.0643111238097234  1.0000
  Zn  Zn4       1.0  0.005454540157771235  0.44016421437136444  0.9448220190698822  1.0000
  Zn  Zn5       1.0  0.5533598422280902  0.004647908956037801  0.05171602105289707  1.0000
  Zn  Zn6       1.0  0.4247760261614104  0.9939355046805646  0.918107125026552  1.0000
  H   H1        1.0  0.6665671447743122  0.32347072485888617  0.4541941967236483  1.0000
  H   H2        1.0  0.3630933017614382  0.4404902649586191  0.1765785519620593  1.0000
  H   H3        1.0  0.42326182159608544  0.5550990157058279  0.2150367204108791  1.0000
  H   H4        1.0  0.4421780935160627  0.7499851025641393  0.5835875923905508  1.0000
  H   H5        1.0  0.5592159432342285  0.7957345177177402  0.6349552406331895  1.0000
  H   H6        1.0  0.7291071990660356  0.21007176522139298  0.8222744786205355  1.0000
  H   H7        1.0  0.5992515320718325  0.10975399687188062  0.8176557672269811  1.0000
  H   H8        1.0  0.7233603856328087  0.3133976464731631  0.15697129262771634  1.0000
  H   H9        1.0  0.7851719240341096  0.25765335537332135  0.1628250471202436  1.0000
  H   H10       1.0  0.8414162845616316  0.42670868262660383  0.15372566413961408  1.0000
  H   H11       1.0  0.5845789749212145  0.22399874237987663  0.5462532090981329  1.0000
  H   H12       1.0  0.3981702452924196  0.9151385307602169  0.159947205212042  1.0000
  H   H13       1.0  0.6727528622009017  0.22436651791585402  0.6811979423341087  1.0000
  H   H14       1.0  0.7841297258533544  0.36375763523164306  0.8143758209174126  1.0000
  H   H15       1.0  0.8724365697691353  0.6651195803311721  0.9017034959196695  1.0000
  H   H16       1.0  0.665275357883466  0.20647948740842278  0.3346224513063802  1.0000
  H   H17       1.0  0.2910695239529771  0.5444561671247284  0.5853155924381142  1.0000
  H   H18       1.0  0.2052879980140148  0.5697984188171716  0.5544371032488372  1.0000
  H   H19       1.0  0.18065058290721228  0.4629723782451336  0.5354104630646433  1.0000
  H   H20       1.0  0.1493112655553688  0.4682007634814839  0.3970383416587567  1.0000
  H   H21       1.0  0.23388169800276865  0.4419770603484352  0.42726732943286566  1.0000
  H   H22       1.0  0.34652909198135246  0.5960864716334412  0.49324576262137754  1.0000
  H   H23       1.0  0.2634598858462737  0.6248692313651532  0.466697081327034  1.0000
  H   H24       1.0  0.4217295423355978  0.3978237097687868  0.7008005695975117  1.0000
  H   H25       1.0  0.44878628102200924  0.4362027477575694  0.81089074995581  1.0000
  H   H26       1.0  0.3371800747807114  0.37440483301561034  0.7283244269331562  1.0000
  H   H27       1.0  0.3790667179683779  0.5323669842515385  0.7990073734321897  1.0000
  H   H28       1.0  0.3572667275021714  0.4950039891839851  0.690916511619939  1.0000
  H   H29       1.0  0.5208454693099325  0.5490238696096768  0.7464188877092826  1.0000
  H   H30       1.0  0.538547303651292  0.5983750815391246  0.8525172172244456  1.0000
  H   H31       1.0  0.5897910007336903  0.808665885669889  0.10960945344386634  1.0000
  H   H32       1.0  0.5723461234730464  0.7007323011321488  0.07237467787124535  1.0000
  H   H33       1.0  0.68070880641028  0.7899872542891727  0.1340971495183469  1.0000
  H   H34       1.0  0.6384286550675142  0.7200092329652749  0.9765024279604194  1.0000
  H   H35       1.0  0.6531677124014905  0.8265086199031798  0.013633184720241269  1.0000
  H   H36       1.0  0.49002786612965815  0.7638450519795511  0.9582012852043608  1.0000
  H   H37       1.0  0.47693700243901543  0.6586942108299211  0.912575105086006  1.0000
  H   H38       1.0  0.3760764873362346  0.7464670227794412  0.3239707000042458  1.0000
  H   H39       1.0  0.35297820017351006  0.8288230104970182  0.3735560682413422  1.0000
  H   H40       1.0  0.2833703413326134  0.7190652159507067  0.3392171303683896  1.0000
  H   H41       1.0  0.21151939104276346  0.7582950077370327  0.23312288878599932  1.0000
  H   H42       1.0  0.2381535279500183  0.6807247418108131  0.18322886041116251  1.0000
  H   H43       1.0  0.36733653291128116  0.7931313879756416  0.1998402505739278  1.0000
  H   H44       1.0  0.3581444044707424  0.8767236069448501  0.26876125648100685  1.0000
  H   H45       1.0  0.19132354781066138  0.26648955895014836  0.24293563234905954  1.0000
  H   H46       1.0  0.14352377968396007  0.1914003713561812  0.13150270459899366  1.0000
  H   H47       1.0  0.11768720764960247  0.1550914662308713  0.20025050751825552  1.0000
  H   H48       1.0  0.2265004427397201  0.11402954905912568  0.17275330716352508  1.0000
  H   H49       1.0  0.2745951945406588  0.1904292318426215  0.28336674472456025  1.0000
  H   H50       1.0  0.3388628297032454  0.31116159018706213  0.2541697235876655  1.0000
  H   H51       1.0  0.29470335675470954  0.23315503526363568  0.14524337883370467  1.0000
  C   C1        1.0  0.47775621258334405  0.3613526168382961  0.3877568278139024  1.0000
  C   C2        1.0  0.7001261579116259  0.44425239512051456  0.6871377053370085  1.0000
  C   C3        1.0  0.7065457608192389  0.524505079624248  0.6924448060163259  1.0000
  C   C4        1.0  0.7678506235044862  0.6005661685825529  0.7698575782396307  1.0000
  C   C5        1.0  0.824366648997774  0.6029021671059738  0.8428961481330788  1.0000
  C   C6        1.0  0.8189376957442818  0.5261145601423535  0.8385290680634371  1.0000
  C   C7        1.0  0.5540281224631727  0.28733756169985  0.3301748809330079  1.0000
  C   C8        1.0  0.47786891511287166  0.2929026315804392  0.31808097490657883  1.0000
  C   C9        1.0  0.40290504699252944  0.23590217736185787  0.2354586607238787  1.0000
  C   C10       1.0  0.40754903042541457  0.17405416486272432  0.17149892792668456  1.0000
  C   C11       1.0  0.48232679228354414  0.16516434096576654  0.18316961394300793  1.0000
  C   C12       1.0  0.6400082468116323  0.5261465199206158  0.6223998358175253  1.0000
  C   C13       1.0  0.5549932690223187  0.22489149573634393  0.2653473444946998  1.0000
  C   C14       1.0  0.6502236987943845  0.25356690696211365  0.31961418754913506  1.0000
  C   C15       1.0  0.6500899964608563  0.32588357245764843  0.39376076095967966  1.0000
  C   C16       1.0  0.32188644265913513  0.5207886860328016  0.25490451654088997  1.0000
  C   C17       1.0  0.33385600617089034  0.5366846868423139  0.3367817817986279  1.0000
  C   C18       1.0  0.2719592292630111  0.5516285039868265  0.3583817695648009  1.0000
  C   C19       1.0  0.20179824071957592  0.5489222389673499  0.2959515713892316  1.0000
  C   C20       1.0  0.18615269736742587  0.5290385302181518  0.21171474549743155  1.0000
  C   C21       1.0  0.2492610098949015  0.5147284725319069  0.19437256158045105  1.0000
  C   C22       1.0  0.2784570390248576  0.49460714796511246  0.127113200841869  1.0000
  C   C23       1.0  0.4794236312206408  0.589980154496388  0.6253525264552168  1.0000
  C   C24       1.0  0.3606332805984635  0.5015553961434448  0.19562327753970274  1.0000
  C   C25       1.0  0.5001503452137115  0.7366498632481823  0.7003468378875513  1.0000
  C   C26       1.0  0.4914886080392833  0.6606463798227651  0.7023281449314285  1.0000
  C   C27       1.0  0.4985570320358334  0.6579461184563725  0.7786413978002927  1.0000
  C   C28       1.0  0.5118270567055774  0.7302965980710638  0.8496271344976806  1.0000
  C   C29       1.0  0.5174722818477092  0.8055602124122316  0.8443674973697528  1.0000
  C   C30       1.0  0.5102388702423893  0.8054574806754146  0.7682495659672174  1.0000
  C   C31       1.0  0.5124279647945895  0.8576832178793764  0.7214028681063738  1.0000
  C   C32       1.0  0.5023651886700619  0.7800955029619914  0.6450746859703147  1.0000
  C   C33       1.0  0.8751776838440364  0.3607948068466698  0.9668402041662179  1.0000
  C   C34       1.0  0.4047416105398796  0.5295576002078803  0.3958651224707311  1.0000
  C   C35       1.0  0.8874254044613892  0.5308303769649996  0.9123041313014543  1.0000
  C   C36       1.0  0.1185821086202097  0.59773182221781  0.9833338504989942  1.0000
  C   C37       1.0  0.11153355988038516  0.5238554948616779  0.1441619573900254  1.0000
  C   C38       1.0  0.3478728812691613  0.8727855909017704  0.9498501420728973  1.0000
  C   C39       1.0  0.4896057284656266  0.1031015488610265  0.11558988961441231  1.0000
  C   C40       1.0  0.579246621924284  0.11142459117769482  0.9576789987655234  1.0000
  C   C41       1.0  0.5240317074754017  0.8822197040449639  0.9106618511529876  1.0000
  C   C42       1.0  0.7934441429626347  0.3047478268707735  0.03532383100613861  1.0000
  C   C43       1.0  0.7989538446189997  0.2945184312231818  0.9608265980121615  1.0000
  C   C44       1.0  0.727477814330001  0.22166493419725694  0.8823100493156916  1.0000
  C   C45       1.0  0.6425287569532329  0.3618907593593335  0.610723543986744  1.0000
  C   C46       1.0  0.6541079574608589  0.1647832824810678  0.8796646264780893  1.0000
  C   C47       1.0  0.6509845199892864  0.17481771779518604  0.9559813716698359  1.0000
  C   C48       1.0  0.7237153233925966  0.24508879530888086  0.03365685215775476  1.0000
  C   C49       1.0  0.762163654097776  0.29171610018381955  0.13125327711577484  1.0000
  C   C50       1.0  0.8378641561392826  0.36271479629130005  0.13253430049237383  1.0000
  C   C51       1.0  0.23202268730726416  0.7538895600100374  0.041334564502058434  1.0000
  C   C52       1.0  0.17771487538701083  0.666553140193237  0.97471190082635  1.0000
  C   C53       1.0  0.17807747476234684  0.6503189600752464  0.8962740418268001  1.0000
  C   C54       1.0  0.22885446663910605  0.7158858420262106  0.884912601626411  1.0000
  C   C55       1.0  0.2839577037435248  0.8015106577618879  0.9520257397004103  1.0000
  C   C56       1.0  0.6313686186078084  0.28436851757649606  0.6073775962196281  1.0000
  C   C57       1.0  0.28294122867254157  0.8168225140211619  0.029359796122101024  1.0000
  C   C58       1.0  0.32720020859250093  0.8885755892580675  0.12102307072956363  1.0000
  C   C59       1.0  0.2678049676752463  0.8189773143561891  0.1368317391814245  1.0000
  C   C60       1.0  0.681568854272889  0.2855295156905767  0.6828993066599693  1.0000
  C   C61       1.0  0.7431545505180849  0.36356639728140994  0.7576855297752588  1.0000
  C   C62       1.0  0.7549656032808867  0.4439942046712772  0.7616190229691427  1.0000
  C   C63       1.0  0.27869816913105433  0.5718933310798632  0.44558303597401067  1.0000
  C   C64       1.0  0.2170892296002407  0.49398925564339885  0.4463409984223788  1.0000
  C   C65       1.0  0.22392539524950913  0.5192815724054823  0.5352714230554129  1.0000
  C   C66       1.0  0.4949517686438369  0.5786486682129564  0.785321857168846  1.0000
  C   C67       1.0  0.40264833225175783  0.5081628793708504  0.7545572631774963  1.0000
  C   C68       1.0  0.40233004110407217  0.42450901031481436  0.748374903637874  1.0000
  C   C69       1.0  0.5176704513818179  0.7260686962742325  0.9300168877710889  1.0000
  C   C70       1.0  0.6115013673064027  0.7612351361394403  0.0005211006719533661  1.0000
  C   C71       1.0  0.6139076415821023  0.7652923227479249  0.0837389519408449  1.0000
  C   C72       1.0  0.31958850094190433  0.8105346923055236  0.2120950605599248  1.0000
  C   C73       1.0  0.2667763483386452  0.7480733130225518  0.23386679310070957  1.0000
  C   C74       1.0  0.3229352832977669  0.7611836735164916  0.3223709656065028  1.0000
  C   C75       1.0  0.32103133173699655  0.24394193126529728  0.21178428393210424  1.0000
  C   C76       1.0  0.24792734174548772  0.18173081278538208  0.21767225128129306  1.0000
  C   C77       1.0  0.17078423820302646  0.1994682124340983  0.19693673666132136  1.0000
  O   O1        1.0  0.5311998190523397  0.4394339578726445  0.41497436698092843  1.0000
  O   O2        1.0  0.9043822127416092  0.33628385312381687  0.914988139394673  1.0000
  O   O3        1.0  0.9094186132229678  0.5823382887640917  0.9904366012916627  1.0000
  O   O4        1.0  0.9218494960442101  0.48449906080466576  0.8920353137969387  1.0000
  O   O5        1.0  0.09478671570381896  0.6242097242111839  0.03823352148418734  1.0000
  O   O6        1.0  0.09570463252155291  0.518295758984749  0.9347053915366176  1.0000
  O   O7        1.0  0.0801966062085313  0.5737893261234107  0.16723727286625947  1.0000
  O   O8        1.0  0.08737806614735175  0.47104218475175225  0.06692670920435967  1.0000
  O   O9        1.0  0.42586871604694204  0.9071197830620719  0.009136324319563105  1.0000
  O   O10       1.0  0.32131251727443555  0.8951663638143261  0.8932394613948491  1.0000
  O   O11       1.0  0.5478376552565649  0.08186595812752978  0.14571235417143674  1.0000
  O   O12       1.0  0.4243800125902412  0.3361881997438304  0.4149642812593585  1.0000
  O   O13       1.0  0.4425624795945565  0.07801188912193881  0.0366324121873731  1.0000
  O   O14       1.0  0.603803404039155  0.0956393004952574  0.019574525530543962  1.0000
  O   O15       1.0  0.4993221190691486  0.07784213635989089  0.8993883962853035  1.0000
  O   O16       1.0  0.576141310944642  0.9147483499312726  0.9920029494873791  1.0000
  O   O17       1.0  0.47642035627601587  0.9118361059228378  0.8805952224222936  1.0000
  O   O18       1.0  0.6660064790438582  0.5754316879583216  0.5922647726991955  1.0000
  O   O19       1.0  0.5610526859374045  0.479144831976825  0.6003331695688774  1.0000
  O   O20       1.0  0.5239833469500822  0.6148235412571024  0.5911066440626058  1.0000
  O   O21       1.0  0.42427432168149437  0.510294736312808  0.5963916602994956  1.0000
  O   O22       1.0  0.4844588258355815  0.5784082712760539  0.4180934717583044  1.0000
  O   O23       1.0  0.3794570314141906  0.4726321702602404  0.4174150881239457  1.0000
  O   O24       1.0  0.9063625918216969  0.43877037561740195  0.024006008050349668  1.0000
  F   F1        1.0  0.7730917706625959  0.6773967086060111  0.778501677711489  1.0000
  F   F2        1.0  0.7056904929768635  0.2874058763344251  0.2900590544874576  1.0000
  F   F3        1.0  0.7046090333843721  0.41051637845794187  0.41539551208875036  1.0000
  F   F4        1.0  0.14485047139312002  0.5654578355185294  0.3196320333704393  1.0000
  F   F5        1.0  0.22444879761288664  0.41453581984624327  0.05318658549651192  1.0000
  F   F6        1.0  0.29728846230023004  0.5552196855120642  0.09991982076261516  1.0000
  F   F7        1.0  0.5967789504141052  0.35806230752614004  0.5347413732793954  1.0000
  F   F8        1.0  0.4453271899100386  0.8768663263831301  0.6988039050051359  1.0000
  F   F9        1.0  0.5891343109589684  0.9355752870400592  0.761871102001308  1.0000
  F   F10       1.0  0.922158319358388  0.3768700067494493  0.18096458894476078  1.0000
  F   F11       1.0  0.1272417828831181  0.57030610415125  0.8259626120078709  1.0000
  F   F12       1.0  0.22439648181861568  0.6921001984538578  0.8068293428596365  1.0000
  F   F13       1.0  0.31245885026527975  0.9593464012422571  0.1322183742341494  1.0000
  F   F14       1.0  0.20484676010978123  0.838979584879354  0.14988826246837317  1.0000
  F   F15       1.0  0.3337652830670166  0.120661222052675  0.09334605047261856  1.0000
