data_image0
_chemical_formula_structural       Al2H12C24Cl2O12
_chemical_formula_sum              "Al2 H12 C24 Cl2 O12"
_cell_length_a       6.651553093394282
_cell_length_b       11.187323029322094
_cell_length_c       17.894065036917663
_cell_angle_alpha    78.04627773837554
_cell_angle_beta     78.06775576666824
_cell_angle_gamma    71.73955016164695

_space_group_name_H-M_alt    "P 1"
_space_group_IT_number       1

loop_
  _space_group_symop_operation_xyz
  'x, y, z'

loop_
  _atom_site_type_symbol
  _atom_site_label
  _atom_site_symmetry_multiplicity
  _atom_site_fract_x
  _atom_site_fract_y
  _atom_site_fract_z
  _atom_site_occupancy
  Al  Al1       1.0  0.49898439551095203  0.5004097252280391  0.49980215145095724  1.0000
  Al  Al2       1.0  0.9987670784245068  0.5004814760826194  0.5002167619241077  1.0000
  H   H1        1.0  0.26503263714436537  0.5713078326225515  0.40441384088219207  1.0000
  H   H2        1.0  0.7314572578861985  0.42965846219392734  0.5955591017302166  1.0000
  H   H3        1.0  0.7735819159462666  0.11676283986707861  0.4789063214659847  1.0000
  H   H4        1.0  0.22358244818327921  0.8843138004702954  0.5205768197764441  1.0000
  H   H5        1.0  0.5575210041509565  0.5762489409226889  0.266973233467894  1.0000
  H   H6        1.0  0.6110320187318692  0.5866805263196541  0.12429833308880936  1.0000
  H   H7        1.0  0.279491511717545  0.385061145204503  0.12934757786084813  1.0000
  H   H8        1.0  0.7266688589601459  0.6168502192747101  0.8716922380632112  1.0000
  H   H9        1.0  0.44259308756020493  0.41928462116577253  0.7325255478237408  1.0000
  H   H10       1.0  0.39253582439854967  0.40770103064957675  0.8751719809803332  1.0000
  H   H11       1.0  0.9497738222824238  0.7876866760032685  0.4703413989369095  1.0000
  H   H12       1.0  0.047391519763706834  0.2132268452170366  0.5296848836484214  1.0000
  C   C1        1.0  0.8375039358342348  0.4875801866374661  0.36333655628262557  1.0000
  C   C2        1.0  0.6240993802809524  0.7314267283137784  0.49350271905888826  1.0000
  C   C3        1.0  0.16112972223454133  0.5127974419624481  0.6367887327673073  1.0000
  C   C4        1.0  0.37340961504467163  0.2694801009531745  0.5063617974101504  1.0000
  C   C5        1.0  0.5622105979574102  0.8691903175252383  0.4967151628574341  1.0000
  C   C6        1.0  0.43507298623557483  0.13185171487548797  0.5027934993411804  1.0000
  C   C7        1.0  0.7195478873714688  0.9363001975347706  0.4839195230172066  1.0000
  C   C8        1.0  0.2776972475565599  0.06478615245360693  0.5155001479130659  1.0000
  C   C9        1.0  0.6526639228461021  0.06653772059143395  0.4871146835744538  1.0000
  C   C10       1.0  0.34454165754365096  0.9345467284875756  0.5122492954205242  1.0000
  C   C11       1.0  0.8854752762898742  0.4804817001523461  0.27887919868186367  1.0000
  C   C12       1.0  0.7155905031658067  0.5360290472258101  0.23572973506129094  1.0000
  C   C13       1.0  0.7449269834667405  0.5416559370644197  0.15633351359761594  1.0000
  C   C14       1.0  0.9505770542519445  0.4888240531416629  0.11649682486900295  1.0000
  C   C15       1.0  0.12115649835553201  0.4290715285270538  0.15901300093990045  1.0000
  C   C16       1.0  0.08995495057991565  0.4251392195311967  0.23886472959730295  1.0000
  C   C17       1.0  0.9868981785316678  0.4953644781743309  0.03522908285074066  1.0000
  C   C18       1.0  0.01917927178441647  0.502260491340245  0.9649979691324616  1.0000
  C   C19       1.0  0.05433106337184766  0.509369120323477  0.8837146888713149  1.0000
  C   C20       1.0  0.8835665234201356  0.5715882993959129  0.8416125350873642  1.0000
  C   C21       1.0  0.9128235202886613  0.5762753630697265  0.7617458050030093  1.0000
  C   C22       1.0  0.11552762748956971  0.5192256829260206  0.7213031004274909  1.0000
  C   C23       1.0  0.28585383543405385  0.4612776066936207  0.7640443618704962  1.0000
  C   C24       1.0  0.258424960969755  0.45480099321712  0.8434717886458567  1.0000
  Cl  Cl1       1.0  0.3108774322022754  0.34547192106797553  0.2843760613135089  1.0000
  Cl  Cl2       1.0  0.691969215946635  0.658590617957984  0.7166919506884426  1.0000
  O   O1        1.0  0.6420311419368119  0.5067195325410271  0.39481715194342115  1.0000
  O   O2        1.0  0.8276518418727009  0.6742555528760692  0.48169389982280103  1.0000
  O   O3        1.0  0.0059729935971332675  0.5224453047256433  0.6025827954413855  1.0000
  O   O4        1.0  0.5177367853192152  0.32521833227362884  0.4983658995184042  1.0000
  O   O5        1.0  0.35614148476675217  0.49364771736870255  0.6048348895919273  1.0000
  O   O6        1.0  0.16993737772133943  0.32666188684844144  0.5186498950284175  1.0000
  O   O7        1.0  0.9915828292099395  0.47843997265942323  0.397936066576406  1.0000
  O   O8        1.0  0.4799727368307958  0.6756192617537878  0.5012556131120718  1.0000
  O   O9        1.0  0.24040802098129174  0.557303969000671  0.4605051542666913  1.0000
  O   O10       1.0  0.7571964816220813  0.44356978958749954  0.5394711021944046  1.0000
  O   O11       1.0  0.9329975191213791  0.8798798077361957  0.468427732914165  1.0000
  O   O12       1.0  0.06425605722467508  0.1211588694769646  0.53113612288773  1.0000
