data_image0
_chemical_formula_structural       Zn2H20C16N4O8
_chemical_formula_sum              "Zn2 H20 C16 N4 O8"
_cell_length_a       5.256308321161422
_cell_length_b       5.757506061312169
_cell_length_c       15.992968483291772
_cell_angle_alpha    90.00065322017949
_cell_angle_beta     90.00024042069762
_cell_angle_gamma    110.37440079342606

_space_group_name_H-M_alt    "P 1"
_space_group_IT_number       1

loop_
  _space_group_symop_operation_xyz
  'x, y, z'

loop_
  _atom_site_type_symbol
  _atom_site_label
  _atom_site_symmetry_multiplicity
  _atom_site_fract_x
  _atom_site_fract_y
  _atom_site_fract_z
  _atom_site_occupancy
  Zn  Zn1       1.0  0.2274149122606773  0.9572650915543763  0.250005013457212  1.0000
  Zn  Zn2       1.0  0.7725813488392888  0.042731732202618396  0.7500100688483897  1.0000
  H   H1        1.0  0.16584142951102626  0.5195583248656777  0.19857997397239294  1.0000
  H   H2        1.0  0.834218128428489  0.4804323313978644  0.6985742791160661  1.0000
  H   H3        1.0  0.834131718072392  0.4804667172396151  0.8014232281767163  1.0000
  H   H4        1.0  0.16584525780589132  0.5195561993463046  0.3014207944045495  1.0000
  H   H5        1.0  0.4578825815745659  0.6218248860149486  0.24999922444369094  1.0000
  H   H6        1.0  0.5421070052197977  0.37818877765583647  0.7499777161414584  1.0000
  H   H7        1.0  0.6375070677039147  0.33369280807461627  0.19896798892911954  1.0000
  H   H8        1.0  0.36250650135682605  0.6663114726033045  0.6989622301883998  1.0000
  H   H9        1.0  0.362488462213534  0.6663021628408572  0.8010333373258618  1.0000
  H   H10       1.0  0.6375076976739109  0.3337018814315371  0.3010353444750962  1.0000
  H   H11       1.0  0.7561022702138587  0.14601147220889032  0.250001221786917  1.0000
  H   H12       1.0  0.24388409324752308  0.8539891995882131  0.7499969781051163  1.0000
  H   H13       1.0  0.9216436430762229  0.32670671821642133  0.0496818668562256  1.0000
  H   H14       1.0  0.07835091897796088  0.6733377061969678  0.5496896448201054  1.0000
  H   H15       1.0  0.07840429758814345  0.673276421509641  0.9503100802691549  1.0000
  H   H16       1.0  0.921637542658267  0.32670203776181245  0.45031855957327577  1.0000
  H   H17       1.0  0.6230895673388162  0.4282978488804901  0.9447691156454496  1.0000
  H   H18       1.0  0.376886747263427  0.5716980148437258  0.4447877835178105  1.0000
  H   H19       1.0  0.37694813945837796  0.571659353973381  0.055214077559369884  1.0000
  H   H20       1.0  0.6231012831280863  0.4283454582257775  0.5552216714348572  1.0000
  C   C1        1.0  0.8374866471802775  0.8763093755972379  0.12330439274698787  1.0000
  C   C2        1.0  0.1625080065468509  0.1237225101879744  0.6233093274018487  1.0000
  C   C3        1.0  0.1625057904916787  0.12366329214412272  0.8766869290507344  1.0000
  C   C4        1.0  0.8374562743994431  0.8763138146225484  0.3766976264219579  1.0000
  C   C5        1.0  0.66656092983159  0.9424632434672517  0.05894370665181729  1.0000
  C   C6        1.0  0.333482827285934  0.057575272487092405  0.5589546970407894  1.0000
  C   C7        1.0  0.3334950148158811  0.0575160715969147  0.9410357349712299  1.0000
  C   C8        1.0  0.6665212115015322  0.9424605517236698  0.4410591348223178  1.0000
  C   C9        1.0  0.7373972312187861  0.18411496292736726  0.0275960741482137  1.0000
  C   C10       1.0  0.2625644637139431  0.8159049647696082  0.5276210329203366  1.0000
  C   C11       1.0  0.2625916828806751  0.8158391306615514  0.9723808662784279  1.0000
  C   C12       1.0  0.7374031725214037  0.18413504155415697  0.4723927989374417  1.0000
  C   C13       1.0  0.5721351171457059  0.24084301760490226  0.9691586885109871  1.0000
  C   C14       1.0  0.4278354633734126  0.7591276335271075  0.4691721452546531  1.0000
  C   C15       1.0  0.4278864132921072  0.7591069418148139  0.030834509063929292  1.0000
  C   C16       1.0  0.5721414341786968  0.24087315772379725  0.5308410612283723  1.0000
  N   N1        1.0  0.2611911840686005  0.6173089828364127  0.2500009994787433  1.0000
  N   N2        1.0  0.7388112609554724  0.3827324466553392  0.7499953247044289  1.0000
  N   N3        1.0  0.6032722638033761  0.21793542701131227  0.2500013438071278  1.0000
  N   N4        1.0  0.39671526196638507  0.7820633683879521  0.7500012330039708  1.0000
  O   O1        1.0  0.037818612157046495  0.05786662943521039  0.15489761850721348  1.0000
  O   O2        1.0  0.9621886245428827  0.9421716948471686  0.6548988685831317  1.0000
  O   O3        1.0  0.9621436658408342  0.9420971094181921  0.8451205900691292  1.0000
  O   O4        1.0  0.03783925859620751  0.05783776348081911  0.3451168390450832  1.0000
  O   O5        1.0  0.7775137644387584  0.6545503049795086  0.14571925265133248  1.0000
  O   O6        1.0  0.22247642782930646  0.3454693217223266  0.6457160401910967  1.0000
  O   O7        1.0  0.2224895647687077  0.3454017455461837  0.8542770712948665  1.0000
  O   O8        1.0  0.7774828677920453  0.6545447239156631  0.35429091357129033  1.0000
