data_image0
_chemical_formula_structural       Cd2H12C12N8O8
_chemical_formula_sum              "Cd2 H12 C12 N8 O8"
_cell_length_a       6.761256175594144
_cell_length_b       7.9440671140717125
_cell_length_c       9.37876602965372
_cell_angle_alpha    98.83383103189094
_cell_angle_beta     96.65659876470387
_cell_angle_gamma    108.9390682519374

_space_group_name_H-M_alt    "P 1"
_space_group_IT_number       1

loop_
  _space_group_symop_operation_xyz
  'x, y, z'

loop_
  _atom_site_type_symbol
  _atom_site_label
  _atom_site_symmetry_multiplicity
  _atom_site_fract_x
  _atom_site_fract_y
  _atom_site_fract_z
  _atom_site_occupancy
  Cd  Cd1       1.0  9.53157623899981e-07  0.5000021705714488  0.5000013692207262  1.0000
  Cd  Cd2       1.0  5.800392840364635e-07  0.9999976703114724  0.49999961659150943  1.0000
  H   H1        1.0  0.46368943444588245  0.2570858644604073  0.5279116604338584  1.0000
  H   H2        1.0  0.5363086562109558  0.7429138608491497  0.47208712452322743  1.0000
  H   H3        1.0  0.39891566274795315  0.09496480137583771  0.3884664139719618  1.0000
  H   H4        1.0  0.6010859576106712  0.9050363011391411  0.6115328571766911  1.0000
  H   H5        1.0  0.3723233394766794  0.7749977498246705  0.21987064812181964  1.0000
  H   H6        1.0  0.627675685537362  0.2250006055224532  0.7801301635903144  1.0000
  H   H7        1.0  0.302101413296704  0.6845589652894476  0.9442840397633463  1.0000
  H   H8        1.0  0.69789870738461  0.31544211837412917  0.0557161676377405  1.0000
  H   H9        1.0  0.13764046951620662  0.1261341328912522  0.9884668439346246  1.0000
  H   H10       1.0  0.8623591208179493  0.8738656112697073  0.011531004770020697  1.0000
  H   H11       1.0  0.21881696439838552  0.23880833421166875  0.2650806182385566  1.0000
  H   H12       1.0  0.7811805889167048  0.7611900417330233  0.7349168723628667  1.0000
  C   C1        1.0  0.31919474292319455  0.6341646123215838  0.16189285195788733  1.0000
  C   C2        1.0  0.6808027894081334  0.36583373403638564  0.8381078316659016  1.0000
  C   C3        1.0  0.27852742497827887  0.5811023683135091  0.01085143407431843  1.0000
  C   C4        1.0  0.7214736580385974  0.4188973848366118  0.9891465427186718  1.0000
  C   C5        1.0  0.20541523223413802  0.3964688563833079  0.9450299466865747  1.0000
  C   C6        1.0  0.7945863951190762  0.603532255993919  0.05496826012128511  1.0000
  C   C7        1.0  0.18651287282661144  0.27025467711933254  0.03619306374057631  1.0000
  C   C8        1.0  0.8134887615211995  0.7297464451201351  0.9638040787264972  1.0000
  C   C9        1.0  0.2305242346182084  0.32730727126604353  0.18673384713863334  1.0000
  C   C10       1.0  0.7694718120249746  0.6726910759649981  0.8132656440560171  1.0000
  C   C11       1.0  0.14232254598643124  0.33460155315436424  0.780888396451694  1.0000
  C   C12       1.0  0.857682611068576  0.6654009364282916  0.21911029654773273  1.0000
  N   N1        1.0  0.11408822377184441  0.7982732879108526  0.618551614197415  1.0000
  N   N2        1.0  0.885915412622083  0.20172915323366417  0.38145120807681115  1.0000
  N   N3        1.0  0.28464574874874415  0.8633193905705879  0.6975809357464655  1.0000
  N   N4        1.0  0.715358431981528  0.13668440980103466  0.30242211654262974  1.0000
  N   N5        1.0  0.45143096542166455  0.9277420560807385  0.7734117200887598  1.0000
  N   N6        1.0  0.5485726569830831  0.07226036533929661  0.22659323086704575  1.0000
  N   N7        1.0  0.2903289830816931  0.5073779298875323  0.24754138187862657  1.0000
  N   N8        1.0  0.7096685562442177  0.4926204263326781  0.7524582374043761  1.0000
  O   O1        1.0  0.18192745260218154  0.4584441818309486  0.7063416451896318  1.0000
  O   O2        1.0  0.8180786458046189  0.5415569476515287  0.2936580102240641  1.0000
  O   O3        1.0  0.0531476214774145  0.16418346141113457  0.733300001263949  1.0000
  O   O4        1.0  0.9468590352549029  0.8358190470229231  0.2666977554830368  1.0000
  O   O5        1.0  0.3198416740442128  0.5587476400688162  0.39205961618891655  1.0000
  O   O6        1.0  0.6801568136280809  0.441249365913457  0.607939901167562  1.0000
  O   O7        1.0  0.3501155022255773  0.13991225691147235  0.4765130581886226  1.0000
  O   O8        1.0  0.6498840881085713  0.8600874872494941  0.5234847905160223  1.0000
