data_image0
_chemical_formula_structural       Zn4H24C32O20
_chemical_formula_sum              "Zn4 H24 C32 O20"
_cell_length_a       5.897286936215746
_cell_length_b       8.592632875424249
_cell_length_c       16.938872261562896
_cell_angle_alpha    90.00089249864065
_cell_angle_beta     90.00025862340884
_cell_angle_gamma    90.00141108662478

_space_group_name_H-M_alt    "P 1"
_space_group_IT_number       1

loop_
  _space_group_symop_operation_xyz
  'x, y, z'

loop_
  _atom_site_type_symbol
  _atom_site_label
  _atom_site_symmetry_multiplicity
  _atom_site_fract_x
  _atom_site_fract_y
  _atom_site_fract_z
  _atom_site_occupancy
  Zn  Zn1       1.0  0.4109465553328917  0.8421309511661405  0.685380445560803  1.0000
  Zn  Zn2       1.0  0.5890467771988243  0.15786815664288406  0.18538424234536424  1.0000
  Zn  Zn3       1.0  0.4109515026381274  0.657867582797948  0.18538599975487816  1.0000
  Zn  Zn4       1.0  0.5890553956273552  0.3421361804316732  0.6853910857019727  1.0000
  H   H1        1.0  0.513571344350197  0.8442501613675971  0.9425080605215542  1.0000
  H   H2        1.0  0.48641606207675653  0.1557430578668146  0.4425163647092632  1.0000
  H   H3        1.0  0.5135880588590354  0.6557273302553309  0.44251241756811777  1.0000
  H   H4        1.0  0.4864078256959062  0.34425075984235304  0.9425155497609623  1.0000
  H   H5        1.0  0.10601862742824153  0.054295144493664786  0.8387019556664725  1.0000
  H   H6        1.0  0.8939762272305816  0.9457087794208049  0.33870534222613463  1.0000
  H   H7        1.0  0.1060391445130193  0.44570515516723214  0.3387126839335863  1.0000
  H   H8        1.0  0.8939828416753033  0.5543104071822851  0.8387205897855098  1.0000
  H   H9        1.0  0.2614580919783265  0.10483327277789559  0.9733316891702302  1.0000
  H   H10       1.0  0.7385330118790707  0.8951644059031236  0.47332966113240366  1.0000
  H   H11       1.0  0.26146260747468386  0.3951659985597473  0.47334084651780023  1.0000
  H   H12       1.0  0.738548844768829  0.6048270255843206  0.9733523831225812  1.0000
  H   H13       1.0  0.045954396270723015  0.02525471661710549  0.09126359668729121  1.0000
  H   H14       1.0  0.9540380018983117  0.9747425985088254  0.5912618772380327  1.0000
  H   H15       1.0  0.0459422752884748  0.47473248839417426  0.5912708734528849  1.0000
  H   H16       1.0  0.9540908194564467  0.5252555170366192  0.09127880515699621  1.0000
  H   H17       1.0  0.9902969239809921  0.8041648369798367  0.7112231952336288  1.0000
  H   H18       1.0  0.009701752033976201  0.19582809992408556  0.2112285227294421  1.0000
  H   H19       1.0  0.9902867445819299  0.6958455951038401  0.21121841613423706  1.0000
  H   H20       1.0  0.009705149072061702  0.3041636348729567  0.711238615107817  1.0000
  H   H21       1.0  0.11095452132043702  0.6316517428685839  0.7131179065420599  1.0000
  H   H22       1.0  0.8890390864895465  0.36834474484141555  0.21312036811502116  1.0000
  H   H23       1.0  0.11097300561582563  0.8683594612991923  0.2131144593754186  1.0000
  H   H24       1.0  0.8890341679342129  0.13164400924907937  0.7131261767540666  1.0000
  C   C1        1.0  0.6484398280873053  0.8650100469975823  0.09513899098644882  1.0000
  C   C2        1.0  0.3515576960567018  0.1350036829914814  0.595142017022454  1.0000
  C   C3        1.0  0.6484299832196072  0.6349813058791297  0.5951395121538994  1.0000
  C   C4        1.0  0.3515844973222785  0.3650091484789043  0.09514326685581413  1.0000
  C   C5        1.0  0.7653626072925592  0.9300304049832845  0.024663589255723702  1.0000
  C   C6        1.0  0.23461895581645112  0.06997645597791548  0.5246647057317518  1.0000
  C   C7        1.0  0.7653648894872591  0.5699553770194397  0.5246636084182441  1.0000
  C   C8        1.0  0.2346522827768851  0.430032863564861  0.024666457606109308  1.0000
  C   C9        1.0  0.6757015979465849  0.903526365745364  0.9493973349579791  1.0000
  C   C10       1.0  0.32429435536543855  0.0964682336886469  0.449403095938095  1.0000
  C   C11       1.0  0.6757171513551512  0.5964671075596895  0.4494018247762242  1.0000
  C   C12       1.0  0.32430254188160035  0.40353447481543003  0.9494039193924949  1.0000
  C   C13       1.0  0.7959797507767874  0.9509561463381497  0.8823778247407577  1.0000
  C   C14       1.0  0.2040087543129943  0.049032856460669884  0.3823818054748642  1.0000
  C   C15       1.0  0.795987930256203  0.5490097897978855  0.3823801771856807  1.0000
  C   C16       1.0  0.20401244502598107  0.45099085109165316  0.8823888988155633  1.0000
  C   C17       1.0  0.008597056195895899  0.022707900428073892  0.8909761756003081  1.0000
  C   C18       1.0  0.991401708575623  0.9772883551850313  0.3909764528359433  1.0000
  C   C19       1.0  0.008597051494895402  0.47728132169949306  0.39098183445408813  1.0000
  C   C20       1.0  0.9914169749678765  0.5227288997653472  0.8909908662253871  1.0000
  C   C21       1.0  0.09645204675913283  0.05009698074535149  0.9659772273078246  1.0000
  C   C22       1.0  0.9035254185968783  0.9499027944671921  0.46597830337182705  1.0000
  C   C23       1.0  0.09646767901742953  0.44990022783336053  0.4659832651059546  1.0000
  C   C24       1.0  0.9035538745481162  0.5501007117638821  0.9659946992277569  1.0000
  C   C25       1.0  0.9746501807655154  0.005746890188355299  0.03284494857383181  1.0000
  C   C26       1.0  0.025317898610332207  0.9942846672798281  0.5328492530172114  1.0000
  C   C27       1.0  0.9746576528990334  0.49424762567310404  0.5328511952823334  1.0000
  C   C28       1.0  0.025364687888100004  0.5057455274098642  0.03286248802952231  1.0000
  C   C29       1.0  0.7044025377555914  0.9174663917442344  0.8023616540359202  1.0000
  C   C30       1.0  0.2955800861837475  0.08253289924158476  0.3023660710058779  1.0000
  C   C31       1.0  0.704427593487708  0.582529764342915  0.30236898803895684  1.0000
  C   C32       1.0  0.29557707503970226  0.41748931139634476  0.8023740864105166  1.0000
  O   O1        1.0  0.5518582887580976  0.7327227994924853  0.0866519893340438  1.0000
  O   O2        1.0  0.4481391508106967  0.2672766985084677  0.5866585854309676  1.0000
  O   O3        1.0  0.551870081632231  0.7672730336275391  0.5866488090101074  1.0000
  O   O4        1.0  0.4481273576313782  0.23271599011768979  0.0866511392691507  1.0000
  O   O5        1.0  0.6509175367180263  0.9339713480979551  0.16201088969158664  1.0000
  O   O6        1.0  0.3490670854251477  0.0660305169718356  0.6620163302318078  1.0000
  O   O7        1.0  0.650921325459322  0.5660465725695187  0.662017962850129  1.0000
  O   O8        1.0  0.3491124717737009  0.43395063777099097  0.1620187028321709  1.0000
  O   O9        1.0  0.5087754122272372  0.8531834118555962  0.7970562584952319  1.0000
  O   O10       1.0  0.4911986807071288  0.14682269506852919  0.2970550573238242  1.0000
  O   O11       1.0  0.5088035663749295  0.6468104057818421  0.2970552334233362  1.0000
  O   O12       1.0  0.49120613651037826  0.3532108305515465  0.7970543114144492  1.0000
  O   O13       1.0  0.8227506593340693  0.949996279375476  0.7411364489229655  1.0000
  O   O14       1.0  0.17722796494481946  0.04998246780333199  0.24114156580461105  1.0000
  O   O15       1.0  0.8227860165137174  0.5499818105462707  0.24114294135841874  1.0000
  O   O16       1.0  0.1772095653080044  0.4500178851824898  0.741152784208687  1.0000
  O   O17       1.0  0.10950031588071599  0.7363712723148051  0.6874843714580551  1.0000
  O   O18       1.0  0.8905032115719467  0.2636220827133825  0.18748897914377244  1.0000
  O   O19       1.0  0.10950018694342131  0.7636367828508667  0.18748188683942155  1.0000
  O   O20       1.0  0.8905016451210915  0.23636821012783565  0.6874967770283505  1.0000
