data_image0
_chemical_formula_structural       Cu8H40C52S8I8Br8
_chemical_formula_sum              "Cu8 H40 C52 S8 I8 Br8"
_cell_length_a       12.221988789840307
_cell_length_b       12.26073215233975
_cell_length_c       14.7718
_cell_angle_alpha    98.8754205435124
_cell_angle_beta     110.80119194413264
_cell_angle_gamma    113.2432617687102

_space_group_name_H-M_alt    "P 1"
_space_group_IT_number       1

loop_
  _space_group_symop_operation_xyz
  'x, y, z'

loop_
  _atom_site_type_symbol
  _atom_site_label
  _atom_site_symmetry_multiplicity
  _atom_site_fract_x
  _atom_site_fract_y
  _atom_site_fract_z
  _atom_site_occupancy
  Cu  Cu1       1.0  0.240258601487696  0.8650384657020922  0.27027041494513776  1.0000
  Cu  Cu2       1.0  0.09439030916029612  0.9693718874418025  0.22953769436248442  1.0000
  Cu  Cu3       1.0  0.7597496126693811  0.1349586925947932  0.729728723736116  1.0000
  Cu  Cu4       1.0  0.9056143042715589  0.0306233810478673  0.7704675909430561  1.0000
  Cu  Cu5       1.0  0.348455662037054  0.11769813837833  0.34661621791601493  1.0000
  Cu  Cu6       1.0  0.270986930552553  0.0016790937123048  0.1528564345236916  1.0000
  Cu  Cu7       1.0  0.6515475001043499  0.8823027995329938  0.6533907209146362  1.0000
  Cu  Cu8       1.0  0.7290176940625627  0.9983246789098459  0.8471492661352612  1.0000
  H   H1        1.0  0.5203025419100272  0.1172483642606892  0.5549310444434141  1.0000
  H   H2        1.0  0.061113427816252355  0.965624399730494  0.9433401869288998  1.0000
  H   H3        1.0  0.4796979944886388  0.8827525736506345  0.44506970714903815  1.0000
  H   H4        1.0  0.9388928475591242  0.0343774830844339  0.05666507979477587  1.0000
  H   H5        1.0  0.6454381210341894  0.19620923430496617  0.5175246301391567  1.0000
  H   H6        1.0  0.1797536813536311  0.1282338136131003  0.9825809729267333  1.0000
  H   H7        1.0  0.3545619278732346  0.8037907587027462  0.4824745032804855  1.0000
  H   H8        1.0  0.8202538570256691  0.8717671242982162  0.0174238669321198  1.0000
  H   H9        1.0  0.6447580601875416  0.5431230349367624  0.6223123566728288  1.0000
  H   H10       1.0  0.4199856633377408  0.021341592901571  0.8777160779005513  1.0000
  H   H11       1.0  0.3552447253807856  0.4568873520106465  0.3776902658227002  1.0000
  H   H12       1.0  0.5800146735911156  0.9786555653953144  0.12228819286105619  1.0000
  H   H13       1.0  0.5889191442368613  0.3004368268405244  0.34628832823959493  1.0000
  H   H14       1.0  0.455412645451311  0.24347425770572784  0.15374921852952633  1.0000
  H   H15       1.0  0.41107866668416193  0.6995622212635837  0.6537167962516433  1.0000
  H   H16       1.0  0.5445915914074675  0.7565304598200271  0.8462537813376086  1.0000
  H   H17       1.0  0.8103230047021268  0.7284469796718085  0.6070373717508842  1.0000
  H   H18       1.0  0.6207429064093475  0.2030815182495829  0.893376873358548  1.0000
  H   H19       1.0  0.18967394215457734  0.2715605725647734  0.39295707947344727  1.0000
  H   H20       1.0  0.3792526665252751  0.7969165849509139  0.10662070289290432  1.0000
  H   H21       1.0  0.7522020376047323  0.4863607853669691  0.32970139235108314  1.0000
  H   H22       1.0  0.6582162623076755  0.42436093509525813  0.1707346948219808  1.0000
  H   H23       1.0  0.24779080985224772  0.513635428026312  0.6702971719713131  1.0000
  H   H24       1.0  0.3417814600617035  0.5756447273341081  0.8292617731581443  1.0000
  H   H25       1.0  0.8596926552424549  0.5460427870870248  0.8284080782810505  1.0000
  H   H26       1.0  0.21690098936750962  0.0301377005931016  0.6715462495858588  1.0000
  H   H27       1.0  0.1403076816864086  0.4539543712098606  0.17159009979043557  1.0000
  H   H28       1.0  0.7830975970661954  0.9698594577037908  0.32845276807434226  1.0000
  H   H29       1.0  0.8567576866641173  0.3120062266229908  0.5754072389797641  1.0000
  H   H30       1.0  0.237386681134673  0.2816757656937625  0.9246136549260341  1.0000
  H   H31       1.0  0.14324303802108315  0.6879899867702832  0.4245922859524  1.0000
  H   H32       1.0  0.7626146307766675  0.7183232824103456  0.07538505162879258  1.0000
  H   H33       1.0  0.05291530182172011  0.7320300541552385  0.8386965263272471  1.0000
  H   H34       1.0  0.3923445620572892  0.21339136152192137  0.6617080041399603  1.0000
  H   H35       1.0  0.9470807586041374  0.2679689939488625  0.16129725237245648  1.0000
  H   H36       1.0  0.60764916064727  0.7866048518713599  0.338286755560233  1.0000
  H   H37       1.0  0.04149380399579879  0.498339328411916  0.5811891061134488  1.0000
  H   H38       1.0  0.4176496083838471  0.46111957527311626  0.9190951757996328  1.0000
  H   H39       1.0  0.9584986557048366  0.5016578298849694  0.4188026956237109  1.0000
  H   H40       1.0  0.582346064285673  0.538880417734596  0.0808986099705322  1.0000
  C   C1        1.0  0.5930810730999312  0.2103856231432815  0.5611888435329035  1.0000
  C   C2        1.0  0.1493255607563242  0.0319169540879045  0.9384145171086756  1.0000
  C   C3        1.0  0.40691810055990635  0.7896143698644309  0.4388140945089488  1.0000
  C   C4        1.0  0.8506814901317341  0.9680830389198078  0.061590735474084016  1.0000
  C   C5        1.0  0.6078644803919957  0.4101958851002436  0.4860023026657458  1.0000
  C   C6        1.0  0.4248008528765154  0.12159492085978478  0.01429966450578487  1.0000
  C   C7        1.0  0.3921353802288863  0.5898088324255184  0.5140014422420335  1.0000
  C   C8        1.0  0.5752040597600399  0.8784060170515388  0.9857050808050046  1.0000
  C   C9        1.0  0.6686154069221003  0.5307315690148968  0.5583281938749421  1.0000
  C   C10       1.0  0.4722473912957952  0.1097250417298099  0.9419104352785012  1.0000
  C   C11       1.0  0.331384653168584  0.4692769281252964  0.4416740627603915  1.0000
  C   C12       1.0  0.5277516826291445  0.8902730614706869  0.058093585382358925  1.0000
  C   C13       1.0  0.6367379809356564  0.3941164603944003  0.4030120256475484  1.0000
  C   C14       1.0  0.4921949019866644  0.2343606624017482  0.09725969291728372  1.0000
  C   C15       1.0  0.36325954196392013  0.6058854224205277  0.5969920232951437  1.0000
  C   C16       1.0  0.5078069971508156  0.7656412204131797  0.902742934019187  1.0000
  C   C17       1.0  0.8444374464872979  0.4177853508837117  0.7005480211526914  1.0000
  C   C18       1.0  0.2176436786618652  0.1434269187341712  0.7997444985701063  1.0000
  C   C19       1.0  0.1555642531803798  0.582212752316785  0.29945135529724337  1.0000
  C   C20       1.0  0.7823606467485504  0.8565711844663254  0.20025700332460147  1.0000
  C   C21       1.0  0.7614035744158372  0.6349752249117984  0.5497908047379025  1.0000
  C   C22       1.0  0.5850499268557812  0.2115903752441213  0.9506092929673426  1.0000
  C   C23       1.0  0.23859152221080385  0.3650304375175608  0.45020624565972156  1.0000
  C   C24       1.0  0.41494837155647696  0.7884096177635911  0.049390680041021456  1.0000
  C   C25       1.0  0.7286579224532445  0.4981531824010474  0.3937259223870979  1.0000
  C   C26       1.0  0.6055490635294305  0.336097489025299  0.10670058328122417  1.0000
  C   C27       1.0  0.27133687496869635  0.501846810606672  0.606273021936417  1.0000
  C   C28       1.0  0.394448459370146  0.663904393789629  0.8932987269024864  1.0000
  C   C29       1.0  0.9005320900712377  0.5356847537306493  0.7748752347732474  1.0000
  C   C30       1.0  0.2605017989445955  0.1248416096585885  0.7253400311355023  1.0000
  C   C31       1.0  0.09946649636246012  0.4643124045662361  0.22512175199024398  1.0000
  C   C32       1.0  0.739498537984268  0.8751555486382968  0.27465950086712343  1.0000
  C   C33       1.0  0.8966389128342982  0.4037705405624408  0.6318510002398412  1.0000
  C   C34       1.0  0.2725722259752317  0.2648952225104182  0.8683960261829425  1.0000
  C   C35       1.0  0.10336064858188367  0.5962285075416602  0.368146515006991  1.0000
  C   C36       1.0  0.7274290859361016  0.7351038255936899  0.13160335733745404  1.0000
  C   C37       1.0  0.7911848543308082  0.6173811197215358  0.4676369059220064  1.0000
  C   C38       1.0  0.6503047814144409  0.3242880837262732  0.032890084519628715  1.0000
  C   C39       1.0  0.20881091807361676  0.38262076309339216  0.5323591820570002  1.0000
  C   C40       1.0  0.34969225399390064  0.6757128541850506  0.9671069305256947  1.0000
  C   C41       1.0  0.008214023787019208  0.6405133049612175  0.7802325368540579  1.0000
  C   C42       1.0  0.35978817119571715  0.2273674307952405  0.7201634321463999  1.0000
  C   C43       1.0  0.9917810616563613  0.3594838533356679  0.2197600363967353  1.0000
  C   C44       1.0  0.6402095399904013  0.772629727501645  0.27983397441144575  1.0000
  C   C45       1.0  0.0017613560569315818  0.5085442873837138  0.6353329209345588  1.0000
  C   C46       1.0  0.3736653452041239  0.3667870133257622  0.8650331900697239  1.0000
  C   C47       1.0  0.9982337293864416  0.4914528709131716  0.36465965231624137  1.0000
  C   C48       1.0  0.6263333409644787  0.6332120347783388  0.13496271407476004  1.0000
  C   C49       1.0  0.05689239130166607  0.6260298224501355  0.7095480765779099  1.0000
  C   C50       1.0  0.4165251052736352  0.3473040458221064  0.7909948965152296  1.0000
  C   C51       1.0  0.943101818894135  0.3739673358467499  0.2904435625361045  1.0000
  C   C52       1.0  0.583472218156146  0.6526940573783904  0.20900116318193795  1.0000
  S   S1        1.0  0.7071177058865884  0.2885849008791084  0.6979708151321373  1.0000
  S   S2        1.0  0.0906977903713013  0.0085542123677484  0.8018672035790286  1.0000
  S   S3        1.0  0.2928891455316672  0.7114113125141657  0.3020318639296491  1.0000
  S   S4        1.0  0.9093082855342729  0.9914438908327483  0.19813752052038322  1.0000
  S   S5        1.0  0.4917484805572555  0.279510991526692  0.501234273997241  1.0000
  S   S6        1.0  0.27817240302172747  0.9901814996117934  0.9986811725228077  1.0000
  S   S7        1.0  0.5082548810539435  0.72049372599907  0.4987732074576669  1.0000
  S   S8        1.0  0.7218332851275093  0.0098175484923146  0.0013255895437751586  1.0000
  I   I1        1.0  0.19725754756365876  0.9657283391274304  0.4201832179009556  1.0000
  I   I2        1.0  0.04478499720392654  0.7765983226573425  0.07877423536921671  1.0000
  I   I3        1.0  0.8027506665934182  0.034268819169462  0.5798206595392869  1.0000
  I   I4        1.0  0.9552193282064891  0.2233997805431542  0.9212320052844801  1.0000
  I   I5        1.0  0.4926989425298203  0.0234458932377066  0.2944291248856388  1.0000
  I   I6        1.0  0.229764497863556  0.1979308486796469  0.2058346054553297  1.0000
  I   I7        1.0  0.5073049951242581  0.9765531548664015  0.7055750919418102  1.0000
  I   I8        1.0  0.7702471287322012  0.8020729239424966  0.794175860435594  1.0000
  Br  Br1       1.0  0.921194392256055  0.7572759887671338  0.45627345632828303  1.0000
  Br  Br2       1.0  0.8016555607737246  0.4661663054461087  0.04442501693888801  1.0000
  Br  Br3       1.0  0.07880166816980959  0.2427230593369671  0.5437209993369976  1.0000
  Br  Br4       1.0  0.19834049965213293  0.5338327426579923  0.9555694387263927  1.0000
  Br  Br5       1.0  0.2030718569150167  0.7663839146494666  0.7130549785078485  1.0000
  Br  Br6       1.0  0.5533856396960601  0.4900430747292929  0.7876843538120821  1.0000
  Br  Br7       1.0  0.7969255662496694  0.2336160783582528  0.28694202946702047  1.0000
  Br  Br8       1.0  0.4466068200045825  0.5099540835675995  0.21230812489064724  1.0000
