data_image0
_chemical_formula_structural       H64Rh2C68N10
_chemical_formula_sum              "H64 Rh2 C68 N10"
_cell_length_a       10.930592139708276
_cell_length_b       13.650508770522453
_cell_length_c       13.65038692123596
_cell_angle_alpha    64.33414293151199
_cell_angle_beta     66.34898829783953
_cell_angle_gamma    66.34814091642795

_space_group_name_H-M_alt    "P 1"
_space_group_IT_number       1

loop_
  _space_group_symop_operation_xyz
  'x, y, z'

loop_
  _atom_site_type_symbol
  _atom_site_label
  _atom_site_symmetry_multiplicity
  _atom_site_fract_x
  _atom_site_fract_y
  _atom_site_fract_z
  _atom_site_occupancy
  H   H1        1.0  0.8851156769200087  0.8676442107038155  0.870584885410949  1.0000
  H   H2        1.0  0.37692973133480484  0.8702944807529319  0.8676476593924178  1.0000
  H   H3        1.0  0.1148771774001247  0.1294269843824836  0.1323574643132801  1.0000
  H   H4        1.0  0.6230723976278014  0.13234882756172078  0.12972100879782286  1.0000
  H   H5        1.0  0.11790447434160715  0.6969841636804194  0.8986416753717775  1.0000
  H   H6        1.0  0.2877442628581551  0.8981940437151507  0.6968894623839078  1.0000
  H   H7        1.0  0.8821077093607456  0.10135772393790889  0.3030265001618062  1.0000
  H   H8        1.0  0.71225839725318  0.3031070470234666  0.10181671809853302  1.0000
  H   H9        1.0  0.13310221148067555  0.49310779660952153  0.9622637315991014  1.0000
  H   H10       1.0  0.41251108407210796  0.9621134620006159  0.4929600591757008  1.0000
  H   H11       1.0  0.8668999722110083  0.03772735884254523  0.5069044985929736  1.0000
  H   H12       1.0  0.5875093501347024  0.5070395846341498  0.03788319661808969  1.0000
  H   H13       1.0  0.8079287458538785  0.5262058389381962  0.2649494760275743  1.0000
  H   H14       1.0  0.4009258033416855  0.26485460840325453  0.52609986707931  1.0000
  H   H15       1.0  0.19206986387363403  0.7350418824945137  0.4738115792452929  1.0000
  H   H16       1.0  0.5990601161284914  0.47389291687530755  0.7351532529115019  1.0000
  H   H17       1.0  0.7911011082389979  0.7300501008067215  0.20036965175211208  1.0000
  H   H18       1.0  0.2787795295990422  0.20002812791926772  0.7300249095384359  1.0000
  H   H19       1.0  0.20891267886311476  0.7996260972858379  0.2699622754859874  1.0000
  H   H20       1.0  0.7212025091828519  0.2699648456280953  0.7999899321360218  1.0000
  H   H21       1.0  0.9201931265377254  0.34098018168684513  0.24396925136650788  1.0000
  H   H22       1.0  0.4941957152893507  0.24446025488025208  0.3405768900020689  1.0000
  H   H23       1.0  0.07980374289110158  0.7560178327746174  0.6590466948320497  1.0000
  H   H24       1.0  0.505811487099386  0.6594176281650592  0.7555476505369896  1.0000
  H   H25       1.0  0.08541842302736306  0.317968448640606  0.1436274178313113  1.0000
  H   H26       1.0  0.4512777702262696  0.1446757215999526  0.3179111361586989  1.0000
  H   H27       1.0  0.9145768089629484  0.8563650123753563  0.6820396793699429  1.0000
  H   H28       1.0  0.5487292524257725  0.6820912960609462  0.8553281791164408  1.0000
  H   H29       1.0  0.9331554157794173  0.3586232014053365  0.1034887938752362  1.0000
  H   H30       1.0  0.6041457105453033  0.10394623315928435  0.35726427027044844  1.0000
  H   H31       1.0  0.06683919472102642  0.8964975442597948  0.6414023312495232  1.0000
  H   H32       1.0  0.39586897128561527  0.6427341057249832  0.8960552296961951  1.0000
  H   H33       1.0  0.42740164866868485  0.8593495343427761  0.043347557599069796  1.0000
  H   H34       1.0  0.6697894108818757  0.043607155319790473  0.8593535421144691  1.0000
  H   H35       1.0  0.5726126207792318  0.9566497337875219  0.1406537790636477  1.0000
  H   H36       1.0  0.33020850644761873  0.14064461347006588  0.9563866561682701  1.0000
  H   H37       1.0  0.5777309729516416  0.7022974831528188  0.1608296824147075  1.0000
  H   H38       1.0  0.5593961304008844  0.16086316166298076  0.7020803760195092  1.0000
  H   H39       1.0  0.4222776847976278  0.8391747425203065  0.2976947913163031  1.0000
  H   H40       1.0  0.4406062845871048  0.29790674225620245  0.8391161130460888  1.0000
  H   H41       1.0  0.3374141327178323  0.48243629621887857  0.23375961740344312  1.0000
  H   H42       1.0  0.947467880912576  0.2328300533923623  0.4822381053313336  1.0000
  H   H43       1.0  0.6626024483326487  0.7662220797095857  0.5175642320176195  1.0000
  H   H44       1.0  0.05252096728074903  0.5177503511162131  0.7671580467829884  1.0000
  H   H45       1.0  0.19258766094056046  0.6377277293251852  0.1117119552081007  1.0000
  H   H46       1.0  0.05858724445499768  0.11112805156783886  0.6377840213747845  1.0000
  H   H47       1.0  0.8074305484408978  0.8882694950814665  0.36228707554688805  1.0000
  H   H48       1.0  0.9414008586193173  0.3622144809646883  0.8888698854833734  1.0000
  H   H49       1.0  0.5053276875531766  0.41668105201210176  0.33281228297857984  1.0000
  H   H50       1.0  0.7460891873834825  0.33236144092116854  0.4163444273555541  1.0000
  H   H51       1.0  0.49468838860224207  0.6671744671313319  0.5833143729792738  1.0000
  H   H52       1.0  0.25389854986631377  0.5836461351827608  0.6676197925865778  1.0000
  H   H53       1.0  0.5614162795642273  0.5160915107323802  0.34384075540091885  1.0000
  H   H54       1.0  0.5793571150353641  0.3437972498578716  0.5157696905273923  1.0000
  H   H55       1.0  0.4385917538864774  0.6561607137768988  0.4838979074863943  1.0000
  H   H56       1.0  0.42061985882039477  0.4842189994370115  0.6561892793421576  1.0000
  H   H57       1.0  0.6577339746353418  0.45534134625032135  0.23487472700163883  1.0000
  H   H58       1.0  0.6526410682808929  0.23465496187526466  0.45526311077649945  1.0000
  H   H59       1.0  0.3422808623934798  0.7651149896851308  0.5446566400392499  1.0000
  H   H60       1.0  0.3473491994471163  0.5447382343036153  0.7653208164458221  1.0000
  H   H61       1.0  0.19623316765198237  0.4142062693578125  0.586923830933074  1.0000
  H   H62       1.0  0.8022087202145514  0.5872669302221638  0.41469777103113603  1.0000
  H   H63       1.0  0.8037494330655472  0.41309057771007196  0.5857731069932299  1.0000
  H   H64       1.0  0.19779750291706943  0.5852694853619198  0.4127424081761006  1.0000
  Rh  Rh1       1.0  3.1543263360611404e-06  0.9093460747965025  0.0906590530176672  1.0000
  Rh  Rh2       1.0  0.9999945167849731  0.09058994425253523  0.909417084119326  1.0000
  C   C1        1.0  0.9191214476015969  0.9056606725409609  0.908300901233595  1.0000
  C   C2        1.0  0.2670564391655148  0.9080735629311292  0.9056304595202249  1.0000
  C   C3        1.0  0.08087331143956791  0.091706980938298  0.0943457369343506  1.0000
  C   C4        1.0  0.7329385382633548  0.0943664709879499  0.09194460473421628  1.0000
  C   C5        1.0  0.9524805047260969  0.7276645448266879  0.04461134726172129  1.0000
  C   C6        1.0  0.2757572509078514  0.0442750576797196  0.7276274348493741  1.0000
  C   C7        1.0  0.047521658788035465  0.9553983700179884  0.27234427982476456  1.0000
  C   C8        1.0  0.7242406078379487  0.27236828207190206  0.9557329083666559  1.0000
  C   C9        1.0  0.04849587767446917  0.6592474857994193  0.9784135951568586  1.0000
  C   C10       1.0  0.314835386398002  0.9780303245407181  0.6591842304277407  1.0000
  C   C11       1.0  0.9515034368838186  0.02159003618789511  0.3407667025660785  1.0000
  C   C12       1.0  0.685165859090432  0.3408176328814534  0.021977431329929704  1.0000
  C   C13       1.0  0.05760955572100109  0.5446327712611776  0.014895645706893399  1.0000
  C   C14       1.0  0.383700311523043  0.014719056630227044  0.5444939068455383  1.0000
  C   C15       1.0  0.9423924115469902  0.9851019674911471  0.45538206178787277  1.0000
  C   C16       1.0  0.6163115600934718  0.4555035594211461  0.9852843918686887  1.0000
  C   C17       1.0  0.9711634624291747  0.4943705236987555  0.1182441266384799  1.0000
  C   C18       1.0  0.4164636428010836  0.1182673889583796  0.49411916601378175  1.0000
  C   C19       1.0  0.028839628069249564  0.8817591747425481  0.5056423708145985  1.0000
  C   C20       1.0  0.5835423846981344  0.5058817263099371  0.8817372248351633  1.0000
  C   C21       1.0  0.8765325731833472  0.5631532743600829  0.18413528628637718  1.0000
  C   C22       1.0  0.376424498475771  0.18398492357769675  0.5630449399552688  1.0000
  C   C23       1.0  0.1234781575841881  0.8158689377881104  0.4368540305779973  1.0000
  C   C24       1.0  0.6235583290361435  0.4369568154021692  0.8160269770788915  1.0000
  C   C25       1.0  0.866451032048488  0.6777687292895607  0.1485087721961946  1.0000
  C   C26       1.0  0.3076589595959617  0.14820519016538475  0.6777284458725674  1.0000
  C   C27       1.0  0.1335637175656075  0.8514962581430652  0.32223670917370834  1.0000
  C   C28       1.0  0.692320361435719  0.3222685214756353  0.8518154158075788  1.0000
  C   C29       1.0  0.977630771258532  0.3717750577644024  0.1548619477160997  1.0000
  C   C30       1.0  0.4949909362981939  0.15542298730501608  0.3712354110355136  1.0000
  C   C31       1.0  0.02236655489759422  0.8451235552470637  0.628240064930587  1.0000
  C   C32       1.0  0.5050226876803237  0.6287635810424064  0.8445806166016041  1.0000
  C   C33       1.0  0.29832303463071236  0.7596404969139243  0.07124661341566  1.0000
  C   C34       1.0  0.8709522883749511  0.0711839869806353  0.7597019550550854  1.0000
  C   C35       1.0  0.7016875257425284  0.9287625427548322  0.2403667218324728  1.0000
  C   C36       1.0  0.12903240338028615  0.2402950172303306  0.9288235571926434  1.0000
  C   C37       1.0  0.4097819120371683  0.775692366298898  0.0837808883917788  1.0000
  C   C38       1.0  0.7308212594319201  0.08384985158151892  0.7756540961423964  1.0000
  C   C39       1.0  0.5902304313929674  0.9162162810218532  0.2243144437788445  1.0000
  C   C40       1.0  0.26916636955157003  0.224345545176675  0.9161510440787877  1.0000
  C   C41       1.0  0.4925057236476604  0.6877850356842359  0.1512773476575831  1.0000
  C   C42       1.0  0.6687391705375277  0.15120699650414354  0.687653107664019  1.0000
  C   C43       1.0  0.5075004006838811  0.8487238402791346  0.3122160624499272  1.0000
  C   C44       1.0  0.33125473784733833  0.31234723889747323  0.8487812805635996  1.0000
  C   C45       1.0  0.465638729634655  0.5818822039523965  0.2087221520064375  1.0000
  C   C46       1.0  0.7443503888973594  0.20841674008306652  0.5817220323778116  1.0000
  C   C47       1.0  0.534365805155815  0.7912678798267693  0.41812118368704887  1.0000
  C   C48       1.0  0.2556375538409555  0.41827710078866437  0.7915710902775572  1.0000
  C   C49       1.0  0.35723896675786915  0.5654039979288682  0.19263708636594856  1.0000
  C   C50       1.0  0.8854522325232067  0.19208633217632357  0.56528750738412  1.0000
  C   C51       1.0  0.6427727488029473  0.8073525716392423  0.4345929062927851  1.0000
  C   C52       1.0  0.11453441236110971  0.43470816611643687  0.8079036765939023  1.0000
  C   C53       1.0  0.27547708142136423  0.6521323764534657  0.12427878119741108  1.0000
  C   C54       1.0  0.9486072386889502  0.1238727738990021  0.6521381834622629  1.0000
  C   C55       1.0  0.7245398209096479  0.8757131012503548  0.3478706969136098  1.0000
  C   C56       1.0  0.05137868228912613  0.3478567727492249  0.8761279934698151  1.0000
  C   C57       1.0  0.5516112864569749  0.4877059472744491  0.2839169000314712  1.0000
  C   C58       1.0  0.6775070614569996  0.283651509629422  0.4874827518712905  1.0000
  C   C59       1.0  0.44840154010220346  0.7160776032798282  0.5122912163463624  1.0000
  C   C60       1.0  0.32247810236430746  0.5125117059562285  0.7163317823258593  1.0000
  C   C61       1.0  0.9999821514056463  0.22821913034484012  0.7717772875018624  1.0000
  C   C62       1.0  1.8500309152958593e-05  0.7717007569614437  0.2282994077283433  1.0000
  C   C63       1.0  0.99999076674478  0.4040127627383114  0.5959842371768856  1.0000
  C   C64       1.0  8.309202855743856e-07  0.5959223658769375  0.4040740255101198  1.0000
  C   C65       1.0  0.888457722241178  0.45223401834472526  0.5478021092480532  1.0000
  C   C66       1.0  0.11175427354763208  0.5474776796937276  0.4520377339156454  1.0000
  C   C67       1.0  0.11153409220433748  0.452189594668603  0.5477709835735637  1.0000
  C   C68       1.0  0.8882476665985023  0.5479665080569589  0.4525056513223049  1.0000
  N   N1        1.0  0.9442566323876136  0.8438872675139069  0.0076619601324451996  1.0000
  N   N2        1.0  0.20436891836108367  0.007408193381905961  0.8438390358890757  1.0000
  N   N3        1.0  0.0557499338191503  0.9923427099151142  0.15612005850870497  1.0000
  N   N4        1.0  0.7956246864961473  0.1561514357220163  0.9926020191761465  1.0000
  N   N5        1.0  0.20825991603005178  0.8502609768752407  0.009637197144954302  1.0000
  N   N6        1.0  0.9317358047776096  0.00959310625235317  0.8504525063434727  1.0000
  N   N7        1.0  0.7917425642304962  0.990367696151473  0.1497482588314014  1.0000
  N   N8        1.0  0.06825116756471068  0.14954919855078705  0.9904170958138037  1.0000
  N   N9        1.0  0.9999888269438632  0.30990670383966545  0.6900880127578758  1.0000
  N   N10       1.0  1.1618655768918759e-05  0.6900163211231103  0.30998278589378  1.0000
