data_image0
_chemical_formula_structural       MnH24C24S2N6O8
_chemical_formula_sum              "Mn1 H24 C24 S2 N6 O8"
_cell_length_a       5.728215595204186
_cell_length_b       7.054768755343096
_cell_length_c       15.495196365367441
_cell_angle_alpha    100.60961901636281
_cell_angle_beta     99.14399011542592
_cell_angle_gamma    94.22524551125228

_space_group_name_H-M_alt    "P 1"
_space_group_IT_number       1

loop_
  _space_group_symop_operation_xyz
  'x, y, z'

loop_
  _atom_site_type_symbol
  _atom_site_label
  _atom_site_symmetry_multiplicity
  _atom_site_fract_x
  _atom_site_fract_y
  _atom_site_fract_z
  _atom_site_occupancy
  Mn  Mn1       1.0  5.6482344704e-06  2.8312768875999996e-06  3.8134952121e-06  1.0000
  H   H1        1.0  0.419542725703728  0.37658872795439174  0.7197012220820795  1.0000
  H   H2        1.0  0.5804712381832076  0.6233913999681063  0.28029238926446  1.0000
  H   H3        1.0  0.5772706424443186  0.12194584186483583  0.5926047681046498  1.0000
  H   H4        1.0  0.42273143654681883  0.8780620637210036  0.40739622237828854  1.0000
  H   H5        1.0  0.4007988585512336  0.2408223782446868  0.060031771007047006  1.0000
  H   H6        1.0  0.5991943664178478  0.7591740258723405  0.9399696489354314  1.0000
  H   H7        1.0  0.7315233553983091  0.13960559659741986  0.7544174886146706  1.0000
  H   H8        1.0  0.2684793617436014  0.8604066601073797  0.2455845486943958  1.0000
  H   H9        1.0  0.17848826400804538  0.36707403249900483  0.0884893214269269  1.0000
  H   H10       1.0  0.8215058667469461  0.6329281705207562  0.9115113461835165  1.0000
  H   H11       1.0  0.266500661794609  0.3471055916392913  0.5567955142984503  1.0000
  H   H12       1.0  0.7335008995459659  0.6528747085619884  0.44319927648294316  1.0000
  H   H13       1.0  0.7820542436888545  0.32629559959042354  0.040070393984095204  1.0000
  H   H14       1.0  0.21794494657620328  0.6737050812569692  0.9599311070052468  1.0000
  H   H15       1.0  0.626926200179973  0.2182653008878717  0.9495825003845726  1.0000
  H   H16       1.0  0.3730732082938317  0.7817368300735908  0.0504191347367851  1.0000
  H   H17       1.0  0.04274928797495648  0.3611778994914586  0.23350124440047185  1.0000
  H   H18       1.0  0.9572381569559809  0.6388156795628034  0.766501517487292  1.0000
  H   H19       1.0  0.20071001838843472  0.3565193138563956  0.3922464408911354  1.0000
  H   H20       1.0  0.7992858276716036  0.6434828672153046  0.6077562677031099  1.0000
  H   H21       1.0  0.8255003876278764  0.11918432401720479  0.3158253802282972  1.0000
  H   H22       1.0  0.1744932572832454  0.8808149811047202  0.6841769524082865  1.0000
  H   H23       1.0  0.6629511317191471  0.11332957519989861  0.1568250041355057  1.0000
  H   H24       1.0  0.3370396218798959  0.8866741295977008  0.8431781599399673  1.0000
  C   C1        1.0  0.23583024951013692  0.3208401483407571  0.6914256981066771  1.0000
  C   C2        1.0  0.7641748057563688  0.6791517292714673  0.30857091785456703  1.0000
  C   C3        1.0  0.08316076030918398  0.2627820264890346  0.745919339411259  1.0000
  C   C4        1.0  0.9168480096779986  0.7372112542340687  0.254078914929373  1.0000
  C   C5        1.0  0.846280166879609  0.18868272510832904  0.7113982025593941  1.0000
  C   C6        1.0  0.15372130691167027  0.8113208278050194  0.28860045223729003  1.0000
  C   C7        1.0  0.9095676941774256  0.2418143994743147  0.5665534370812041  1.0000
  C   C8        1.0  0.09043468798574847  0.7581833279276465  0.4334441444509523  1.0000
  C   C9        1.0  0.7598981204414272  0.1791384315131026  0.6217189817995249  1.0000
  C   C10       1.0  0.24010338630076689  0.8208651198467152  0.3782783841370333  1.0000
  C   C11       1.0  0.14975699295718667  0.30640157279027147  0.6010089504613634  1.0000
  C   C12       1.0  0.8502471729988842  0.6935845051424462  0.3989877734018564  1.0000
  C   C13       1.0  0.34548522337656346  0.24187005931474903  0.18505518613169872  1.0000
  C   C14       1.0  0.654508219801272  0.7581277949163476  0.8149463679428025  1.0000
  C   C15       1.0  0.21380082190679417  0.30812674866502476  0.25149844399626187  1.0000
  C   C16       1.0  0.786189981118632  0.6918769538022785  0.7485027867890255  1.0000
  C   C17       1.0  0.6551759759604394  0.17270135856951188  0.2970498793812625  1.0000
  C   C18       1.0  0.3448223224081843  0.8273051470125027  0.7029520504425479  1.0000
  C   C19       1.0  0.527485164993898  0.24503810593723327  0.3641810976712848  1.0000
  C   C20       1.0  0.47251115043454917  0.7549669738090686  0.6358205903268799  1.0000
  C   C21       1.0  0.5640136557544722  0.16975830802970654  0.20857878371921157  1.0000
  C   C22       1.0  0.4359822397319418  0.8302438707117048  0.7914219915848479  1.0000
  C   C23       1.0  0.3031758765702435  0.3077513714864182  0.3402911620670466  1.0000
  C   C24       1.0  0.6968186741267743  0.692253732538241  0.659710418237495  1.0000
  S   S1        1.0  0.18724195414744568  0.2907272957173603  0.8615564202628365  1.0000
  S   S2        1.0  0.8127630655821464  0.7092762078625088  0.13844180549102705  1.0000
  N   N1        1.0  0.260623169792602  0.24411376133755167  0.09408002935865062  1.0000
  N   N2        1.0  0.7393744245233973  0.7558883962325567  0.905923431359277  1.0000
  N   N3        1.0  0.6099134213495248  0.2555914854118413  0.4553964322888362  1.0000
  N   N4        1.0  0.39008617238210513  0.7444120972172144  0.5446066258246703  1.0000
  N   N5        1.0  0.8315112635653107  0.2417323457688099  0.4756427924225123  1.0000
  N   N6        1.0  0.1684873379753498  0.7582639816293266  0.5243557284505089  1.0000
  O   O1        1.0  0.7157898584516786  0.19315606356186524  0.006410816190324895  1.0000
  O   O2        1.0  0.28420600408381347  0.8068461167330695  0.9935912479738606  1.0000
  O   O3        1.0  0.09369288378089641  0.11144621304703863  0.8874234065270344  1.0000
  O   O4        1.0  0.9063144564536003  0.88856162125726  0.1125791958968847  1.0000
  O   O5        1.0  0.4479319874074505  0.3181795972385403  0.8751595543305373  1.0000
  O   O6        1.0  0.5520748464799469  0.6818238797326757  0.12483684582675644  1.0000
  O   O7        1.0  0.08449392645447767  0.4606985840055344  0.9058321249990444  1.0000
  O   O8        1.0  0.9155231062443575  0.5393134691512388  0.09416304069821994  1.0000
