data_image0
_chemical_formula_structural       Ag4H8C8N8O12
_chemical_formula_sum              "Ag4 H8 C8 N8 O12"
_cell_length_a       5.22298140175769
_cell_length_b       5.818147328225524
_cell_length_c       16.90624276921257
_cell_angle_alpha    90.0024741202322
_cell_angle_beta     90.00235338163998
_cell_angle_gamma    113.82786684758592

_space_group_name_H-M_alt    "P 1"
_space_group_IT_number       1

loop_
  _space_group_symop_operation_xyz
  'x, y, z'

loop_
  _atom_site_type_symbol
  _atom_site_label
  _atom_site_symmetry_multiplicity
  _atom_site_fract_x
  _atom_site_fract_y
  _atom_site_fract_z
  _atom_site_occupancy
  Ag  Ag1       1.0  0.3684114192885419  0.7838712716253939  0.1796091118956155  1.0000
  Ag  Ag2       1.0  0.29441551191151666  0.6888379656965783  0.8243355399624828  1.0000
  Ag  Ag3       1.0  0.794435865842445  0.1888387409472401  0.6756636156893518  1.0000
  Ag  Ag4       1.0  0.8684329687312202  0.28386675447861626  0.3203941715388935  1.0000
  H   H1        1.0  0.34016137279863307  0.6324834193479917  0.0047363788765010986  1.0000
  H   H2        1.0  0.8402032255740721  0.13249320886474442  0.4952608885809864  1.0000
  H   H3        1.0  0.9357100016528295  0.9856241589119465  0.8706729618160121  1.0000
  H   H4        1.0  0.9987316582123713  0.06731963852990931  0.12432946991516756  1.0000
  H   H5        1.0  0.4987280384698779  0.5672970650120208  0.37566820521702465  1.0000
  H   H6        1.0  0.435725397541873  0.4856094498343496  0.6293236264505778  1.0000
  H   H7        1.0  0.820715579883398  0.1651221870149016  0.9948021379439919  1.0000
  H   H8        1.0  0.3207279616084123  0.6650992981787383  0.505197408662802  1.0000
  C   C1        1.0  0.225894526452116  0.7532094320112748  0.002380464833542799  1.0000
  C   C2        1.0  0.7259254538785529  0.25320749977679924  0.49762335001037156  1.0000
  C   C3        1.0  0.9995692032793005  0.9473592553132595  0.9287229616622167  1.0000
  C   C4        1.0  0.03494158806743298  0.9929869759042731  0.06835838074525917  1.0000
  C   C5        1.0  0.5349507352384465  0.492964596470955  0.4316500069631174  1.0000
  C   C6        1.0  0.49959295246014096  0.44734264673826385  0.571280415201805  1.0000
  C   C7        1.0  0.937500862765134  0.0466408235578655  0.9972219385739217  1.0000
  C   C8        1.0  0.43751313130915304  0.5466308183347053  0.5027698870376937  1.0000
  N   N1        1.0  0.17892092305429952  0.8455251103440063  0.07077677449748167  1.0000
  N   N2        1.0  0.14379199791032723  0.8002988579147616  0.9314041646168643  1.0000
  N   N3        1.0  0.6438261897037094  0.30028947415977575  0.5685935895165668  1.0000
  N   N4        1.0  0.6789331485605743  0.3455139605232915  0.42921989559813045  1.0000
  N   N5        1.0  0.6494117998541  0.4216832505913146  0.16674290222667304  1.0000
  N   N6        1.0  0.5882189262322727  0.3420873762960994  0.8316878086811028  1.0000
  N   N7        1.0  0.08823743683085905  0.8420986862610393  0.6683099119932832  1.0000
  N   N8        1.0  0.14941214504236924  0.9216627013723128  0.3332608982346413  1.0000
  O   O1        1.0  0.6282641458468421  0.5618243304740602  0.22250299409594015  1.0000
  O   O2        1.0  0.5275840451640549  0.45683996611656147  0.7748069077692603  1.0000
  O   O3        1.0  0.027589316718646832  0.9568300313967556  0.7251946800925989  1.0000
  O   O4        1.0  0.12827911708878764  0.06181227762316872  0.2775057285616143  1.0000
  O   O5        1.0  0.764161630889035  0.2691672269311454  0.18272191131984522  1.0000
  O   O6        1.0  0.7043807416151895  0.19185493278976656  0.8147109177684155  1.0000
  O   O7        1.0  0.20441132718147523  0.6918739176717922  0.6852814278429091  1.0000
  O   O8        1.0  0.26414893396150074  0.7691470166866808  0.31727952336073156  1.0000
  O   O9        1.0  0.5630564439988532  0.4316890233378956  0.09848443496832718  1.0000
  O   O10       1.0  0.5369348476313932  0.3747172695700343  0.9020411727777994  1.0000
  O   O11       1.0  0.036946557101579604  0.8747387754554056  0.5979590368905929  1.0000
  O   O12       1.0  0.06305295042928818  0.931668973027094  0.4015153184086485  1.0000
