data_image0
_chemical_formula_structural       Zn6H54C42N6O30
_chemical_formula_sum              "Zn6 H54 C42 N6 O30"
_cell_length_a       7.995434971007045
_cell_length_b       13.946368951545121
_cell_length_c       13.946388802014114
_cell_angle_alpha    119.99998432351967
_cell_angle_beta     90.0001509588442
_cell_angle_gamma    89.99991235770592

_space_group_name_H-M_alt    "P 1"
_space_group_IT_number       1

loop_
  _space_group_symop_operation_xyz
  'x, y, z'

loop_
  _atom_site_type_symbol
  _atom_site_label
  _atom_site_symmetry_multiplicity
  _atom_site_fract_x
  _atom_site_fract_y
  _atom_site_fract_z
  _atom_site_occupancy
  Zn  Zn1       1.0  0.3957625981759492  0.0134011478784117  0.23261669732374202  1.0000
  Zn  Zn2       1.0  0.3957641035147362  0.7673848588870558  0.7807858407663845  1.0000
  Zn  Zn3       1.0  0.3957628011879706  0.2192136332915169  0.9865981945108402  1.0000
  Zn  Zn4       1.0  0.6042377430154887  0.9865983119628866  0.7673815662680142  1.0000
  Zn  Zn5       1.0  0.6042362376816257  0.23261460095287836  0.2192145739191744  1.0000
  Zn  Zn6       1.0  0.60423628929275  0.7807874824643763  0.013402331099470744  1.0000
  H   H1        1.0  0.4696225083021518  0.5767007511720195  0.1281684901770249  1.0000
  H   H2        1.0  0.4696241010036744  0.8718278199702497  0.44853217246177485  1.0000
  H   H3        1.0  0.4696244684850086  0.5514644058868611  0.42329522755508725  1.0000
  H   H4        1.0  0.5303778328925617  0.42329870866836933  0.8718312074772713  1.0000
  H   H5        1.0  0.5303762401908969  0.128172467827838  0.5514679391709763  1.0000
  H   H6        1.0  0.5303746219960247  0.4485350539536341  0.5767044700983064  1.0000
  H   H7        1.0  0.874307919952294  0.9510172051333255  0.12082703421624787  1.0000
  H   H8        1.0  0.874307138643637  0.879174016299714  0.8301894429111059  1.0000
  H   H9        1.0  0.8743050403228596  0.16980745128297056  0.04898461483963252  1.0000
  H   H10       1.0  0.1256936719558155  0.048983910622361314  0.8791734913958535  1.0000
  H   H11       1.0  0.12569070112370176  0.12082544354088041  0.16981025474139247  1.0000
  H   H12       1.0  0.12569405015965882  0.8301928365147687  0.9510162138234861  1.0000
  H   H13       1.0  0.06067023608578381  0.9290837488582613  0.26148604786924085  1.0000
  H   H14       1.0  0.06066891780904629  0.7385140639389576  0.667596323534525  1.0000
  H   H15       1.0  0.06067059169758691  0.33240188896512995  0.07091595157643135  1.0000
  H   H16       1.0  0.9393301051087877  0.0709165389398265  0.7385140637635033  1.0000
  H   H17       1.0  0.9393301726701822  0.26148622385969134  0.3324030710660608  1.0000
  H   H18       1.0  0.9393272480713863  0.66759757087501  0.9290844631073369  1.0000
  H   H19       1.0  0.0553562711536557  0.19062622501482454  0.5181866898538914  1.0000
  H   H20       1.0  0.0553574886168917  0.4818139748656591  0.6724385819355093  1.0000
  H   H21       1.0  0.055355505602641096  0.3275620081809407  0.8093745369841018  1.0000
  H   H22       1.0  0.944644070041065  0.8093732348255572  0.4818130078003976  1.0000
  H   H23       1.0  0.9446428525793209  0.5181863129319738  0.32756224672851186  1.0000
  H   H24       1.0  0.9446435848780868  0.6724391075749525  0.19062598862620933  1.0000
  H   H25       1.0  0.8779783537897572  0.15059518521103854  0.5696548329737752  1.0000
  H   H26       1.0  0.8779792589797354  0.4303456141785419  0.5809396376905199  1.0000
  H   H27       1.0  0.8779773874373191  0.41906120536391706  0.8494063892940744  1.0000
  H   H28       1.0  0.1220207366911126  0.8494051025871553  0.43034527865807354  1.0000
  H   H29       1.0  0.12202108221498521  0.569653845661847  0.41906005996377627  1.0000
  H   H30       1.0  0.1220229537570958  0.5809399103918692  0.15059413631713173  1.0000
  H   H31       1.0  0.8477620835938354  0.20553191101275556  0.48008353019984906  1.0000
  H   H32       1.0  0.8477659803749449  0.5199173294235138  0.7254473020025146  1.0000
  H   H33       1.0  0.8477627120473771  0.27455194382746123  0.794468831800053  1.0000
  H   H34       1.0  0.1522370068854002  0.7944683767858862  0.5199158644007369  1.0000
  H   H35       1.0  0.15223436081977582  0.48008213041687486  0.2745523956517815  1.0000
  H   H36       1.0  0.1522363784320078  0.7254475160134817  0.20553014882207787  1.0000
  H   H37       1.0  0.8315327858902889  0.8853037203127343  0.3119343607201656  1.0000
  H   H38       1.0  0.8315311450933366  0.688065753450644  0.5733678163971591  1.0000
  H   H39       1.0  0.8315341937365375  0.4266300374835907  0.11469636876086042  1.0000
  H   H40       1.0  0.16846755530428234  0.1146965674853533  0.6880657509125783  1.0000
  H   H41       1.0  0.16846794538754042  0.31193453434754304  0.42663229523469687  1.0000
  H   H42       1.0  0.16846614745654157  0.5733694223572527  0.8853026118621657  1.0000
  H   H43       1.0  0.6866213516406392  0.9965613687824516  0.37919757540146304  1.0000
  H   H44       1.0  0.6866223959644416  0.6208016048029279  0.6173622107698764  1.0000
  H   H45       1.0  0.6866213059811843  0.3826374014331435  0.003439579232022548  1.0000
  H   H46       1.0  0.3133789895540815  0.0034380910579372014  0.620802122252833  1.0000
  H   H47       1.0  0.3133779452302718  0.37919785503746073  0.3826374868844127  1.0000
  H   H48       1.0  0.31337653378599845  0.6173628863651502  0.9965605323989309  1.0000
  H   H49       1.0  0.7999387573751164  0.9504225236993946  0.4588630990184798  1.0000
  H   H50       1.0  0.7999381248766397  0.5411355599398178  0.49155723584620864  1.0000
  H   H51       1.0  0.7999396573843073  0.5084414354156336  0.049578860134125984  1.0000
  H   H52       1.0  0.20006158381960404  0.0495769361409941  0.5411365986358163  1.0000
  H   H53       1.0  0.2000609656043935  0.4588638999006776  0.508442461807185  1.0000
  H   H54       1.0  0.20006068381025707  0.49155885238245384  0.9504212514986251  1.0000
  C   C1        1.0  0.4574004635197967  0.7998709627481303  0.22670279061119908  1.0000
  C   C2        1.0  0.4574000416430764  0.7732941210609781  0.5731684428154368  1.0000
  C   C3        1.0  0.45739964714960024  0.4268287241982948  0.20012576150239889  1.0000
  C   C4        1.0  0.5425998776747679  0.20012932504995723  0.773297321021552  1.0000
  C   C5        1.0  0.5425990488394421  0.2267061667367614  0.4268323858476891  1.0000
  C   C6        1.0  0.5426006940434721  0.5731707356425417  0.7998732191206274  1.0000
  C   C7        1.0  0.47104846976917986  0.7316521580259022  0.282530691258174  1.0000
  C   C8        1.0  0.47104887016767094  0.7174649930146587  0.44912150320448063  1.0000
  C   C9        1.0  0.4710486772602139  0.5508749976777807  0.26834471887828937  1.0000
  C   C10       1.0  0.5289518714253917  0.2683481297721855  0.7174694203745773  1.0000
  C   C11       1.0  0.5289502203133551  0.28253446682583666  0.55087819444892  1.0000
  C   C12       1.0  0.5289504132206632  0.44912529012041347  0.7316553927535665  1.0000
  C   C13       1.0  0.4721703658546376  0.6159450735590964  0.21804538047594235  1.0000
  C   C14       1.0  0.4721705574267079  0.7819505311578824  0.39790034255856466  1.0000
  C   C15       1.0  0.4721695137499964  0.6020965437241941  0.3840511927170311  1.0000
  C   C16       1.0  0.527829975340083  0.38405438628129224  0.7819543171783537  1.0000
  C   C17       1.0  0.5278297837680129  0.21804892868250655  0.6020993550957314  1.0000
  C   C18       1.0  0.5278320781584187  0.39790291611608813  0.6159485049381602  1.0000
  C   C19       1.0  0.7606093619705447  0.0034060621974987  0.14897183623417476  1.0000
  C   C20       1.0  0.7606086018443462  0.8510317192166639  0.8544356675852428  1.0000
  C   C21       1.0  0.7606061118255951  0.1455617684721275  0.9965947300425454  1.0000
  C   C22       1.0  0.2393922299408473  0.9965950535572857  0.8510301234404666  1.0000
  C   C23       1.0  0.23939048863488924  0.14896856858198504  0.14556372701533601  1.0000
  C   C24       1.0  0.23939422936599192  0.854436863411472  0.003403119570748632  1.0000
  C   C25       1.0  0.0633206175614305  0.015459417153081698  0.33004544425894267  1.0000
  C   C26       1.0  0.06332181337345592  0.6699558213925981  0.6854138770299657  1.0000
  C   C27       1.0  0.0633204688302342  0.31458613958963605  0.9845400906258279  1.0000
  C   C28       1.0  0.9366772222060576  0.9845392147298142  0.6699538394151007  1.0000
  C   C29       1.0  0.9366785278240997  0.33004612231998454  0.3145884966222355  1.0000
  C   C30       1.0  0.9366823737899213  0.6854149761663991  0.015459717955899172  1.0000
  C   C31       1.0  0.9301291955976583  0.15381846619549583  0.4985889162404434  1.0000
  C   C32       1.0  0.9301303436502906  0.5014125065940008  0.655228641955283  1.0000
  C   C33       1.0  0.9301284875312917  0.3447710190759566  0.8461819797980823  1.0000
  C   C34       1.0  0.0698711455970624  0.8461809936448927  0.5014107814138454  1.0000
  C   C35       1.0  0.0698699975442807  0.49858778120408703  0.3447714696774612  1.0000
  C   C36       1.0  0.0698706029479439  0.6552292687226852  0.15381741480250347  1.0000
  C   C37       1.0  0.8070563884714659  0.9640151538274891  0.38792172656292223  1.0000
  C   C38       1.0  0.8070560359482144  0.6120782558923211  0.5760921525765427  1.0000
  C   C39       1.0  0.8070550486700655  0.42390693553378617  0.035985745135668955  1.0000
  C   C40       1.0  0.1929439527232546  0.035984306012899495  0.612077971091374  1.0000
  C   C41       1.0  0.19294430524799822  0.38792203190531177  0.4239086760874713  1.0000
  C   C42       1.0  0.1929427910971171  0.5760933522645076  0.9640143664952917  1.0000
  N   N1        1.0  0.9410466084127906  0.0419158664906689  0.40447439350328557  1.0000
  N   N2        1.0  0.9410464070843576  0.5955264984498854  0.6374408583386852  1.0000
  N   N3        1.0  0.9410462000495985  0.36255962422632126  0.9580850266492077  1.0000
  N   N4        1.0  0.0589537327819301  0.9580835933497198  0.5955253041510105  1.0000
  N   N5        1.0  0.0589539341116989  0.4044746173054535  0.36256038430378373  1.0000
  N   N6        1.0  0.0589541411451222  0.6374398356140675  0.04191467100508122  1.0000
  O   O1        1.0  0.4758270572510171  0.7489640318479261  0.12249205802335447  1.0000
  O   O2        1.0  0.4758267902232944  0.8775058426488229  0.6264695596349411  1.0000
  O   O3        1.0  0.4758265993528142  0.37352724078824906  0.2510356387301441  1.0000
  O   O4        1.0  0.524173283943398  0.2510370839078604  0.8775084675878517  1.0000
  O   O5        1.0  0.5241723002577318  0.12249361719167239  0.3735301380184595  1.0000
  O   O6        1.0  0.5241737418414516  0.6264747029252433  0.748965300859517  1.0000
  O   O7        1.0  0.42297957690499294  0.9022818749329246  0.2882119146110397  1.0000
  O   O8        1.0  0.42297932543377204  0.7117867569736376  0.6140713062328871  1.0000
  O   O9        1.0  0.42297982605051493  0.3859268405226998  0.09771524508688147  1.0000
  O   O10       1.0  0.5770207642912198  0.09771841286470818  0.7117889140529812  1.0000
  O   O11       1.0  0.5770210157609482  0.28821270286675127  0.3859283914214019  1.0000
  O   O12       1.0  0.5770205151422588  0.6140742752335413  0.9022845634930549  1.0000
  O   O13       1.0  0.6209433689662023  0.9522069939571837  0.13290929765965845  1.0000
  O   O14       1.0  0.6209413019458695  0.8670949653538214  0.8193011642331669  1.0000
  O   O15       1.0  0.6209391953454856  0.18069677602118622  0.04779367062452171  1.0000
  O   O16       1.0  0.37905947366232345  0.047793293838886114  0.8670936820999486  1.0000
  O   O17       1.0  0.37905778853680516  0.1329044944862119  0.18069925045149665  1.0000
  O   O18       1.0  0.37906114584759365  0.8193026838196573  0.9522053099985044  1.0000
  O   O19       1.0  0.7795263703896399  0.1062988526969804  0.19280762472760668  1.0000
  O   O20       1.0  0.77952834133891  0.8071987578631409  0.9134950227292792  1.0000
  O   O21       1.0  0.7795255005909496  0.08650524648035682  0.8937027170469918  1.0000
  O   O22       1.0  0.22047522151847695  0.8937022630586997  0.807192900884502  1.0000
  O   O23       1.0  0.22047074914211615  0.19280070197735447  0.08650467492411448  1.0000
  O   O24       1.0  0.22047233917489006  0.9134933854029939  0.10629584959578166  1.0000
  O   O25       1.0  0.17366850949367324  0.08214976244111229  0.3356143028565839  1.0000
  O   O26       1.0  0.17366867775345443  0.664387756362146  0.7465346456447507  1.0000
  O   O27       1.0  0.17366836493198431  0.2534646600177127  0.9178511145826249  1.0000
  O   O28       1.0  0.8263305809872037  0.9178505253570818  0.6643858087752648  1.0000
  O   O29       1.0  0.8263316634411099  0.3356125314359417  0.25346546598799347  1.0000
  O   O30       1.0  0.8263307255475568  0.7465339718655314  0.08214745206105076  1.0000
