data_image0
_chemical_formula_structural       Cu8Mo2H56C56S8N12
_chemical_formula_sum              "Cu8 Mo2 H56 C56 S8 N12"
_cell_length_a       9.333394286396565
_cell_length_b       11.716752541430148
_cell_length_c       19.190829981158778
_cell_angle_alpha    89.9988682160578
_cell_angle_beta     98.14004975094815
_cell_angle_gamma    89.99878605995902

_space_group_name_H-M_alt    "P 1"
_space_group_IT_number       1

loop_
  _space_group_symop_operation_xyz
  'x, y, z'

loop_
  _atom_site_type_symbol
  _atom_site_label
  _atom_site_symmetry_multiplicity
  _atom_site_fract_x
  _atom_site_fract_y
  _atom_site_fract_z
  _atom_site_occupancy
  Cu  Cu1       1.0  0.7131642183800369  0.37483251136558243  0.20895165445581657  1.0000
  Cu  Cu2       1.0  0.029208322454700005  0.38396782790290035  0.11147762395707872  1.0000
  Cu  Cu3       1.0  0.28681501461966263  0.3748544238466636  0.29105736718108244  1.0000
  Cu  Cu4       1.0  0.9707792895468617  0.3839536819790936  0.3885318824403328  1.0000
  Cu  Cu5       1.0  0.2868442137786786  0.625201559986941  0.7910565829473414  1.0000
  Cu  Cu6       1.0  0.9707926970166484  0.6160466138025954  0.8885118496774285  1.0000
  Cu  Cu7       1.0  0.7131794080565613  0.6251796477497821  0.7089431022877904  1.0000
  Cu  Cu8       1.0  0.029210706231708603  0.6160607594706563  0.6114792159397953  1.0000
  Mo  Mo1       1.0  0.9999887055449435  0.3646226686546329  0.2500053886475229  1.0000
  Mo  Mo2       1.0  1.6507555322700957e-05  0.6354173771309419  0.7499994938443422  1.0000
  H   H1        1.0  0.399733133123938  0.42872307801352594  0.14888628008512236  1.0000
  H   H2        1.0  0.27673869181955985  0.56478711196344  0.06205111497774142  1.0000
  H   H3        1.0  0.7011162429418648  0.6824753853517221  0.027940245263046413  1.0000
  H   H4        1.0  0.8081349246120553  0.53967924488137  0.11482867980497251  1.0000
  H   H5        1.0  0.48193606198779554  0.7524663689550123  0.9517271231879437  1.0000
  H   H6        1.0  0.30908498036419024  0.695493708807163  0.9607042451780856  1.0000
  H   H7        1.0  0.4744667495928498  0.8707055590833691  0.060222129300228744  1.0000
  H   H8        1.0  0.30345217890494786  0.8126822465746885  0.06947231361610312  1.0000
  H   H9        1.0  0.3735452635984657  0.9555287910645023  0.9443042084970372  1.0000
  H   H10       1.0  0.20717860824777293  0.8879653654404576  0.9465941556267623  1.0000
  H   H11       1.0  0.3708842909508334  0.0098807921328756  0.11862389642197971  1.0000
  H   H12       1.0  0.2681497282535616  0.18319509920227972  0.1680027789410445  1.0000
  H   H13       1.0  0.0160451657045684  0.2590430395009236  0.9794306761579109  1.0000
  H   H14       1.0  0.09758299610532362  0.08126960752642991  0.9224613518347836  1.0000
  H   H15       1.0  0.6002390643688218  0.4287240917172213  0.35111846808106156  1.0000
  H   H16       1.0  0.7232380578936102  0.5647892155942245  0.4379450248286006  1.0000
  H   H17       1.0  0.2988708100400288  0.6824827159817489  0.4720729272572726  1.0000
  H   H18       1.0  0.19185214913848375  0.539684363481932  0.38518933773177383  1.0000
  H   H19       1.0  0.5180501243889495  0.7524776960849382  0.5482662916518352  1.0000
  H   H20       1.0  0.6908985722642671  0.6954989864860154  0.5392953998730193  1.0000
  H   H21       1.0  0.525521231518539  0.870714363868423  0.43976591790595176  1.0000
  H   H22       1.0  0.6965407629434351  0.812681627789601  0.4305240784525922  1.0000
  H   H23       1.0  0.6264422922307915  0.9555226816771594  0.5556847775847588  1.0000
  H   H24       1.0  0.7927990670139949  0.8879513935977669  0.5534001528616984  1.0000
  H   H25       1.0  0.6291127882094045  0.009902531119188  0.3813725413859502  1.0000
  H   H26       1.0  0.7318408147504486  0.18323632336805667  0.3320067437362937  1.0000
  H   H27       1.0  0.9839548612278367  0.2590396945054323  0.5205925814341015  1.0000
  H   H28       1.0  0.9023988245440719  0.08123849256322302  0.5775455561181176  1.0000
  H   H29       1.0  0.6002765033486954  0.5712623452539987  0.8511084947788704  1.0000
  H   H30       1.0  0.7232623749021273  0.43518721632169405  0.9379331513793545  1.0000
  H   H31       1.0  0.29887936052121944  0.31752369377883133  0.97204936535082  1.0000
  H   H32       1.0  0.1918704008842482  0.4603300758678586  0.8851637047557404  1.0000
  H   H33       1.0  0.5180476547969022  0.2475233220564732  0.04825955991864112  1.0000
  H   H34       1.0  0.6909008404527129  0.30449427511716465  0.039289361325856524  1.0000
  H   H35       1.0  0.5255331507905225  0.1292738899344386  0.9397714338552918  1.0000
  H   H36       1.0  0.6965477214391741  0.18729976287954028  0.9305212495212345  1.0000
  H   H37       1.0  0.6264535402819859  0.04446346012073832  0.055690840059064294  1.0000
  H   H38       1.0  0.7928137204429221  0.1120234719253901  0.05339834926557782  1.0000
  H   H39       1.0  0.6290993095331245  0.9900901221356834  0.8813758057234226  1.0000
  H   H40       1.0  0.7318338815836611  0.8167741081253939  0.8319958817040389  1.0000
  H   H41       1.0  0.9839524860244426  0.7409415302599455  0.02057210701884324  1.0000
  H   H42       1.0  0.9024092765836119  0.9187217901754609  0.07753740211402524  1.0000
  H   H43       1.0  0.3997595715586685  0.5712724265609025  0.648895327668683  1.0000
  H   H44       1.0  0.27675832968044034  0.43519279341435896  0.5620779910817434  1.0000
  H   H45       1.0  0.7011375526496337  0.317519776529359  0.5279431217133919  1.0000
  H   H46       1.0  0.8081497754996932  0.46032581050123156  0.6148200014465887  1.0000
  H   H47       1.0  0.4819658471447283  0.24752564989075418  0.45174664945952975  1.0000
  H   H48       1.0  0.30911633563371044  0.3045026525759198  0.46071538144839513  1.0000
  H   H49       1.0  0.47447429292599  0.12926764554374162  0.5602325456848476  1.0000
  H   H50       1.0  0.30345906284942004  0.18729611413673553  0.5694778168145689  1.0000
  H   H51       1.0  0.3735662337221298  0.04447725069032061  0.44431304493636503  1.0000
  H   H52       1.0  0.20721057396517747  0.11204427142382664  0.44659410117336773  1.0000
  H   H53       1.0  0.37089905945224194  0.9900880130840478  0.6186171794338621  1.0000
  H   H54       1.0  0.2681590479582425  0.8167670229894671  0.6679909852993263  1.0000
  H   H55       1.0  0.016050394406896405  0.7409636517666485  0.4794076145123327  1.0000
  H   H56       1.0  0.09759890634742868  0.9187537586491459  0.42244837414835973  1.0000
  C   C1        1.0  0.0030301066684615004  0.47049423678215163  0.027263312252550506  1.0000
  C   C2        1.0  0.4635592009890603  0.48772310810393554  0.12202124240737085  1.0000
  C   C3        1.0  0.39493631832713316  0.5654849191390879  0.07393541829176802  1.0000
  C   C4        1.0  0.4792465753228044  0.6403365558309134  0.03975818476127562  1.0000
  C   C5        1.0  0.6297961733431451  0.6302375282496371  0.05499273394229931  1.0000
  C   C6        1.0  0.6908937366403907  0.5505648289748066  0.10387559578435204  1.0000
  C   C7        1.0  0.40966640164782586  0.7295248492281771  0.9901952689455631  1.0000
  C   C8        1.0  0.37386692510597197  0.8368510948061572  0.03036712240532322  1.0000
  C   C9        1.0  0.29893274147281085  0.9271788283974659  0.980762062122203  1.0000
  C   C10       1.0  0.24428306691506665  0.030780107496781298  0.015219373124004707  1.0000
  C   C11       1.0  0.2916421913681617  0.06144748386381591  0.0852570417033647  1.0000
  C   C12       1.0  0.2353969029436058  0.15896087838820702  0.11308984167843053  1.0000
  C   C13       1.0  0.09278302462508493  0.1991455615145271  0.008129823904113206  1.0000
  C   C14       1.0  0.14066899502401503  0.10196437241913969  0.9768702629837878  1.0000
  C   C15       1.0  0.9969690065986189  0.47047863641521553  0.4727365900522501  1.0000
  C   C16       1.0  0.5364187638074186  0.4877260416775898  0.3779832054400317  1.0000
  C   C17       1.0  0.6050468618274963  0.5654928204851758  0.4260658590343028  1.0000
  C   C18       1.0  0.5207429777963952  0.6403456342084085  0.4602416024379892  1.0000
  C   C19       1.0  0.37019248124111936  0.6302419646878761  0.4450211803274584  1.0000
  C   C20       1.0  0.30908868806641004  0.5505718773499667  0.39614039779613824  1.0000
  C   C21       1.0  0.5903193592840523  0.7295268067031982  0.5098036024939603  1.0000
  C   C22       1.0  0.6261231203684118  0.836855526291444  0.46962773138557884  1.0000
  C   C23       1.0  0.7010599706993759  0.9271811678225178  0.5192323203573892  1.0000
  C   C24       1.0  0.7557003421145724  0.0307767361081517  0.48478053359113477  1.0000
  C   C25       1.0  0.7083369693658668  0.061476192983718585  0.4147489688351556  1.0000
  C   C26       1.0  0.7645900399810303  0.15899038741459753  0.38692128034534795  1.0000
  C   C27       1.0  0.9072102397075952  0.19914025054362836  0.49188386900321746  1.0000
  C   C28       1.0  0.8593100449594501  0.10194683822508924  0.5231341144470605  1.0000
  C   C29       1.0  0.9970122315991007  0.5295475161931122  0.9727077277160987  1.0000
  C   C30       1.0  0.5364418094561146  0.5122717035722246  0.8779692728789429  1.0000
  C   C31       1.0  0.6050614873380483  0.43449709046141993  0.9260501799478931  1.0000
  C   C32       1.0  0.5207522938865027  0.35965313503501045  0.9602295732259236  1.0000
  C   C33       1.0  0.37019834783006195  0.36975984393370015  0.9449967999064983  1.0000
  C   C34       1.0  0.30910943359015874  0.44944193137551747  0.8961155937277284  1.0000
  C   C35       1.0  0.5903248448053305  0.2704588672752166  0.009797159205945108  1.0000
  C   C36       1.0  0.6261286552618232  0.16313347514282134  0.9696250920926489  1.0000
  C   C37       1.0  0.7010617612163089  0.0728074485278896  0.019229554830246832  1.0000
  C   C38       1.0  0.7557102975085784  0.9692053158597745  0.9847784161319598  1.0000
  C   C39       1.0  0.708332704017451  0.9385191630102271  0.9147472538170478  1.0000
  C   C40       1.0  0.7645834133362187  0.8410066219293812  0.886913796209413  1.0000
  C   C41       1.0  0.9072179066968644  0.8008390082737122  0.9918695443106601  1.0000
  C   C42       1.0  0.8593286985591391  0.8980278787263034  0.023127833332452517  1.0000
  C   C43       1.0  0.002990581497300598  0.5295511677601824  0.5272838150944426  1.0000
  C   C44       1.0  0.46358744361648974  0.5122738904346206  0.6220316484819933  1.0000
  C   C45       1.0  0.3949625833090452  0.4345011372274498  0.5739502667741406  1.0000
  C   C46       1.0  0.47926756824494293  0.3596525909213285  0.5397725170924659  1.0000
  C   C47       1.0  0.6298158535065427  0.36975796733661787  0.554997993198704  1.0000
  C   C48       1.0  0.6909131899363318  0.4494382965495447  0.6038741489444348  1.0000
  C   C49       1.0  0.40969011388607873  0.27046373714438243  0.4902093988013974  1.0000
  C   C50       1.0  0.3738777736190216  0.16313075038748792  0.5303758028668357  1.0000
  C   C51       1.0  0.2989528984167578  0.07282473888012933  0.48076424696139963  1.0000
  C   C52       1.0  0.2442984896032172  0.9692249033941711  0.5152113903609887  1.0000
  C   C53       1.0  0.29166616838996623  0.9385194720835272  0.5852458660492347  1.0000
  C   C54       1.0  0.2354141613581788  0.8410103984816429  0.613075714304756  1.0000
  C   C55       1.0  0.09278960906280531  0.8008596818735683  0.5081154223252968  1.0000
  C   C56       1.0  0.14068117794048624  0.8980522408550372  0.4768609173764845  1.0000
  S   S1        1.0  0.8751242536632164  0.2643763826752235  0.16172480818713106  1.0000
  S   S2        1.0  0.8474026735905797  0.47975664635863796  0.29655173180554334  1.0000
  S   S3        1.0  0.124877917978516  0.26436366537547684  0.33827935271578724  1.0000
  S   S4        1.0  0.1525494570541923  0.4797734167441023  0.20346244304433722  1.0000
  S   S5        1.0  0.12487122790666662  0.7356645166994653  0.8382783417915578  1.0000
  S   S6        1.0  0.15261443098244604  0.5202842527662811  0.703455557497975  1.0000
  S   S7        1.0  0.8751391724992102  0.7356840615548067  0.6617294988079152  1.0000
  S   S8        1.0  0.8474417325206147  0.5202700431755288  0.7965362337576638  1.0000
  N   N1        1.0  0.6087948594970882  0.4806172666410334  0.1378152074992869  1.0000
  N   N2        1.0  0.1393269345920771  0.22788497955610149  0.07547818493886643  1.0000
  N   N3        1.0  0.5580913117275585  0.29393797567374946  0.24401673702771381  1.0000
  N   N4        1.0  0.3911864535496079  0.4806180468161331  0.3622025904967999  1.0000
  N   N5        1.0  0.8606730524019499  0.22790652766799013  0.4245325126077973  1.0000
  N   N6        1.0  0.44186661403706756  0.2939430332956405  0.255989140476686  1.0000
  N   N7        1.0  0.39120718634086427  0.5193963214748719  0.8621805919931164  1.0000
  N   N8        1.0  0.8606696722993165  0.7720884950575736  0.9245203554897117  1.0000
  N   N9        1.0  0.4419062972576526  0.706096949261557  0.7559907325975246  1.0000
  N   N10       1.0  0.6088197722929749  0.519397247948099  0.6378101802912752  1.0000
  N   N11       1.0  0.1393257326019111  0.7721002326235366  0.5754646188701785  1.0000
  N   N12       1.0  0.5581289468784618  0.7060935988272163  0.7440051566765504  1.0000
