data_image0
_chemical_formula_structural       Cu4H28C24N4Cl4
_chemical_formula_sum              "Cu4 H28 C24 N4 Cl4"
_cell_length_a       5.518640322150851
_cell_length_b       7.322433736066267
_cell_length_c       16.92513131911401
_cell_angle_alpha    90.00001366344226
_cell_angle_beta     90.00052500474219
_cell_angle_gamma    90.00052681314371

_space_group_name_H-M_alt    "P 1"
_space_group_IT_number       1

loop_
  _space_group_symop_operation_xyz
  'x, y, z'

loop_
  _atom_site_type_symbol
  _atom_site_label
  _atom_site_symmetry_multiplicity
  _atom_site_fract_x
  _atom_site_fract_y
  _atom_site_fract_z
  _atom_site_occupancy
  Cu  Cu1       1.0  0.0439544138210337  0.5939884361044179  0.3241666167534589  1.0000
  Cu  Cu2       1.0  0.9560596541948951  0.9059864179946685  0.8241632272848137  1.0000
  Cu  Cu3       1.0  0.45605525219622906  0.09398951048933671  0.6758360572046129  1.0000
  Cu  Cu4       1.0  0.5439425960493908  0.40601183107489197  0.1758389503775035  1.0000
  H   H1        1.0  0.33917177804407567  0.2870615165412217  0.45279831093061074  1.0000
  H   H2        1.0  0.6608576737437204  0.21295479209646828  0.9527831818829995  1.0000
  H   H3        1.0  0.16084731111973838  0.7870503442936678  0.5472103184837563  1.0000
  H   H4        1.0  0.8391206570764635  0.7129272963384918  0.0472083136002936  1.0000
  H   H5        1.0  0.726395216396412  0.41910100796088295  0.658471280001983  1.0000
  H   H6        1.0  0.27360224081210294  0.08092355340066597  0.15845244625307234  1.0000
  H   H7        1.0  0.7735944970088298  0.919075695782233  0.3415303099913984  1.0000
  H   H8        1.0  0.2263873453751657  0.5809032517219918  0.8415425435957289  1.0000
  H   H9        1.0  0.5630659918654857  0.6193029638687619  0.6348499248439693  1.0000
  H   H10       1.0  0.43695468643905144  0.8807033384288941  0.13483293094078164  1.0000
  H   H11       1.0  0.9369384648035106  0.1192916667700956  0.365154546279733  1.0000
  H   H12       1.0  0.0630545851491675  0.38068915193257885  0.8651579961626297  1.0000
  H   H13       1.0  0.7981481035197004  0.5421054702194965  0.5707787508734017  1.0000
  H   H14       1.0  0.2018656961043205  0.9579022105301362  0.0707467536138324  1.0000
  H   H15       1.0  0.7018391752124982  0.04209513771692031  0.4292310189367825  1.0000
  H   H16       1.0  0.2981172645445582  0.4578979590330192  0.92924064723897  1.0000
  H   H17       1.0  0.13946778293691858  0.2230547177316424  0.5730469386054865  1.0000
  H   H18       1.0  0.8605096309560307  0.2769725919650199  0.07304443509014653  1.0000
  H   H19       1.0  0.3605215925169886  0.7230532533310878  0.4269551759422826  1.0000
  H   H20       1.0  0.639434992358609  0.7769447963270792  0.9269559384994468  1.0000
  H   H21       1.0  0.06696264148973088  0.2657956869547747  0.7159065622476319  1.0000
  H   H22       1.0  0.9330560413328397  0.23422066900388214  0.21590608061178077  1.0000
  H   H23       1.0  0.4330562080541611  0.7657906951626215  0.2840937902597673  1.0000
  H   H24       1.0  0.5669569578919109  0.7341882639431107  0.7840942826776711  1.0000
  H   H25       1.0  0.33870622533556366  0.4146597745541882  0.723501099746173  1.0000
  H   H26       1.0  0.6612999438841669  0.08533063218353482  0.223487791659025  1.0000
  H   H27       1.0  0.16129618087413888  0.9146718761658547  0.276499879861241  1.0000
  H   H28       1.0  0.8387023180184054  0.5853221067299829  0.7765131261551377  1.0000
  C   C1        1.0  0.6657130102309949  0.432922710900911  0.4379363996164258  1.0000
  C   C2        1.0  0.33431248275223163  0.06707721269989972  0.9379165203034034  1.0000
  C   C3        1.0  0.8343022276222027  0.9329182924448602  0.5620705113309512  1.0000
  C   C4        1.0  0.16567694760083637  0.5670934869117232  0.062073148637836105  1.0000
  C   C5        1.0  0.4775490473543655  0.3640077582803869  0.48477350469249103  1.0000
  C   C6        1.0  0.5224938086878622  0.1360140066781597  0.9847673146406352  1.0000
  C   C7        1.0  0.022476344675389694  0.8639996570662589  0.5152280534430744  1.0000
  C   C8        1.0  0.9775217084776031  0.6359971093973585  0.0152401147628325  1.0000
  C   C9        1.0  0.4669061524344825  0.3864742846278375  0.5651450952043647  1.0000
  C   C10       1.0  0.5331490011465192  0.1135543926063676  0.0651271990055946  1.0000
  C   C11       1.0  0.033124928775293896  0.8864621819082217  0.43485587758041083  1.0000
  C   C12       1.0  0.9668880073360808  0.6135304037145844  0.9348695898877255  1.0000
  C   C13       1.0  0.6496189454541295  0.49762789665812335  0.6091220519472174  1.0000
  C   C14       1.0  0.3504136415362638  0.0023953090353146  0.1090987474323057  1.0000
  C   C15       1.0  0.8503952091818048  0.9976045131692146  0.39088664728179623  1.0000
  C   C16       1.0  0.1496022405544579  0.5023744245261595  0.8908897241089236  1.0000
  C   C17       1.0  0.27225674496379776  0.2977038877912437  0.6084590230340583  1.0000
  C   C18       1.0  0.7277558946926773  0.20233160895610067  0.1084329830761348  1.0000
  C   C19       1.0  0.22774796778386988  0.7976905145078206  0.3915525631355194  1.0000
  C   C20       1.0  0.7722259403611317  0.7022952512982528  0.8915472839126865  1.0000
  C   C21       1.0  0.23297816046354564  0.3175905639179533  0.6889759079367224  1.0000
  C   C22       1.0  0.767016359445357  0.18242716300213854  0.18896477472667073  1.0000
  C   C23       1.0  0.26701590411761333  0.817581596734243  0.3110380464117384  1.0000
  C   C24       1.0  0.7329652515231471  0.682393259867702  0.8110267133197056  1.0000
  N   N1        1.0  0.8228421248992672  0.4844280348721384  0.3971594556931066  1.0000
  N   N2        1.0  0.17717701393225838  0.0155514118645215  0.8971460910204954  1.0000
  N   N3        1.0  0.6771447005459733  0.9844333612041114  0.6028451044110528  1.0000
  N   N4        1.0  0.3228190842738313  0.5155702159452105  0.1028542004446393  1.0000
  Cl  Cl1       1.0  0.8036170808885001  0.6555637056955773  0.2132760830292781  1.0000
  Cl  Cl2       1.0  0.19637274624839304  0.8444289241446514  0.713265821527301  1.0000
  Cl  Cl3       1.0  0.696384160159802  0.1555464326358589  0.786729578602291  1.0000
  Cl  Cl4       1.0  0.30362524463345136  0.34443576747408844  0.2867298234144401  1.0000
