data_image0
_chemical_formula_structural       Zn4H52C84N16O16
_chemical_formula_sum              "Zn4 H52 C84 N16 O16"
_cell_length_a       10.523760544439506
_cell_length_b       12.834244423069851
_cell_length_c       23.63837485960452
_cell_angle_alpha    78.41424871539479
_cell_angle_beta     77.1557728397256
_cell_angle_gamma    65.79778789958932

_space_group_name_H-M_alt    "P 1"
_space_group_IT_number       1

loop_
  _space_group_symop_operation_xyz
  'x, y, z'

loop_
  _atom_site_type_symbol
  _atom_site_label
  _atom_site_symmetry_multiplicity
  _atom_site_fract_x
  _atom_site_fract_y
  _atom_site_fract_z
  _atom_site_occupancy
  Zn  Zn1       1.0  0.8158867096301493  0.026324331480005007  0.49143671420942076  1.0000
  Zn  Zn2       1.0  0.3336201166283388  0.4735791353740172  0.008562031012971283  1.0000
  Zn  Zn3       1.0  0.18411116965339164  0.973677190861331  0.5085637441987174  1.0000
  Zn  Zn4       1.0  0.6663805224619282  0.5264206652013215  0.9914387617763795  1.0000
  H   H1        1.0  0.6333945628676434  0.31004735684661716  0.4481740556958087  1.0000
  H   H2        1.0  0.3915141192308695  0.18979751163551137  0.05179820521751572  1.0000
  H   H3        1.0  0.36660622931958636  0.6899541663016964  0.5518248406454589  1.0000
  H   H4        1.0  0.6084851236691976  0.8102031508032683  0.9482005182144847  1.0000
  H   H5        1.0  0.8725009435024449  0.8467806657402766  0.6051958723912492  1.0000
  H   H6        1.0  0.32434358419801873  0.6531530791531639  0.8946417696203425  1.0000
  H   H7        1.0  0.12749750686176503  0.15322171747735078  0.39480443420767136  1.0000
  H   H8        1.0  0.6756564765729821  0.34684586098163833  0.10535832957078378  1.0000
  H   H9        1.0  0.4621624313818416  0.8970639656921268  0.7470326788644356  1.0000
  H   H10       1.0  0.10572200589825802  0.602775528430094  0.7528654842064739  1.0000
  H   H11       1.0  0.5378360262209655  0.10293841708974584  0.2529684731419195  1.0000
  H   H12       1.0  0.8942798437115653  0.3972216896697136  0.24713547005482886  1.0000
  H   H13       1.0  0.2514690419720651  0.24869566882525634  0.5279787157289917  1.0000
  H   H14       1.0  0.028147258461672195  0.251349574594535  0.9718055196329373  1.0000
  H   H15       1.0  0.7485317538344634  0.7513058541051764  0.4720206033159969  1.0000
  H   H16       1.0  0.9718510098512069  0.7486510877931283  0.02819330178429882  1.0000
  H   H17       1.0  0.8936216516814925  0.5482543787544645  0.7770951860047361  1.0000
  H   H18       1.0  0.21868471440784285  0.9514709368399186  0.722865625415224  1.0000
  H   H19       1.0  0.10637565290207363  0.4517462829284613  0.22290500150889872  1.0000
  H   H20       1.0  0.7813147680438918  0.048527142854347005  0.2771337801776781  1.0000
  H   H21       1.0  0.9934652606194094  0.657771015167768  0.5184993194261978  1.0000
  H   H22       1.0  0.16949687102459174  0.8421178577725715  0.9815116159841042  1.0000
  H   H23       1.0  0.006536178245298197  0.3422270641929758  0.4815007356036745  1.0000
  H   H24       1.0  0.8305031861271033  0.15788108258010425  0.01848806050330149  1.0000
  H   H25       1.0  0.4938505012168407  0.5038832251884032  0.42348974507410025  1.0000
  H   H26       1.0  0.4213635513352331  0.9961560616274743  0.07631486568918429  1.0000
  H   H27       1.0  0.5061510332445139  0.4961208803197794  0.5765092165284641  1.0000
  H   H28       1.0  0.5786339208224902  0.003846321756917301  0.9236851161912512  1.0000
  H   H29       1.0  0.8739250599005286  0.6635547056488565  0.6786945881758017  1.0000
  H   H30       1.0  0.2157002990385879  0.8362506488164813  0.8212684641321815  1.0000
  H   H31       1.0  0.12607322650882222  0.3364459556494312  0.3213063467600392  1.0000
  H   H32       1.0  0.7842983836386993  0.1637491520923789  0.1787316792202063  1.0000
  H   H33       1.0  0.3556774606419141  0.7148313115769301  0.41636080666889097  1.0000
  H   H34       1.0  0.48692393967955633  0.7851863692617729  0.08352277846385193  1.0000
  H   H35       1.0  0.6443196152478804  0.2851719321968816  0.583639966795005  1.0000
  H   H36       1.0  0.5130753140783996  0.21481429252337864  0.916477213079304  1.0000
  H   H37       1.0  0.48305424565984384  0.779893452012928  0.8448011243176693  1.0000
  H   H38       1.0  0.10746992159704392  0.7198685901544766  0.6550859726763394  1.0000
  H   H39       1.0  0.5169426662750923  0.22010806984153675  0.1552002774831465  1.0000
  H   H40       1.0  0.892532727787234  0.280126906730736  0.3449142438254854  1.0000
  H   H41       1.0  0.12967921485417827  0.4470648182307501  0.5277445445457759  1.0000
  H   H42       1.0  0.10437185998261363  0.05283659367185582  0.9721364232556979  1.0000
  H   H43       1.0  0.8703237552012199  0.5529341229288961  0.47225356987475925  1.0000
  H   H44       1.0  0.8956273901560439  0.9471640683311765  0.02786314558374412  1.0000
  H   H45       1.0  0.36755372879329684  0.036813066976854714  0.5478380640809348  1.0000
  H   H46       1.0  0.952081762683463  0.4632172214537322  0.9521593159492524  1.0000
  H   H47       1.0  0.6324455322032563  0.9631875943725496  0.4521627728696701  1.0000
  H   H48       1.0  0.04791886916820692  0.5367825795573611  0.047840631432656294  1.0000
  H   H49       1.0  0.41891896575811666  0.929187148883017  0.6402244858924959  1.0000
  H   H50       1.0  0.9878975963927347  0.5706768631077282  0.859883537356339  1.0000
  H   H51       1.0  0.5810818409063004  0.07081437339378745  0.3597761012636553  1.0000
  H   H52       1.0  0.012101250239410872  0.4293246597204788  0.1401159776591214  1.0000
  C   C1        1.0  0.7059128170634993  0.5898794560507385  0.8764009544677622  1.0000
  C   C2        1.0  0.17204335808062862  0.90990855103329  0.6235607262683659  1.0000
  C   C3        1.0  0.2940880579591294  0.41011776199795974  0.1236000977787697  1.0000
  C   C4        1.0  0.827959062609871  0.09008952794281563  0.37644007618371234  1.0000
  C   C5        1.0  0.08582644544792135  0.8263334369261274  0.4669919823667925  1.0000
  C   C6        1.0  0.3791044897622343  0.6736211258510354  0.03297710174096121  1.0000
  C   C7        1.0  0.9141714446935012  0.17366808476158027  0.5330097441525083  1.0000
  C   C8        1.0  0.6208994729768378  0.3263778142703516  0.9670230282129425  1.0000
  C   C9        1.0  0.6901569597935834  0.6571443648541975  0.8170460454053201  1.0000
  C   C10       1.0  0.1639318380110026  0.8426488030977314  0.6828943311929337  1.0000
  C   C11       1.0  0.30984173374158536  0.34285543540104163  0.18295536605822352  1.0000
  C   C12       1.0  0.8360678876116907  0.15734669363413908  0.3171061792645986  1.0000
  C   C13       1.0  0.5528730618424263  0.2764078094216061  0.468960222667242  1.0000
  C   C14       1.0  0.2981633146043592  0.22349378578122275  0.030968166238402327  1.0000
  C   C15       1.0  0.4471251992318554  0.7235928534018189  0.5310377533425523  1.0000
  C   C16       1.0  0.7018373136280189  0.7765060154477512  0.9690313584397856  1.0000
  C   C17       1.0  0.6527518392286853  0.8569164331408106  0.6485935033780663  1.0000
  C   C18       1.0  0.1578482278350181  0.6429756888737899  0.8513672890546716  1.0000
  C   C19       1.0  0.3472489710550305  0.14308508891811308  0.35140750648179875  1.0000
  C   C20       1.0  0.8421506260357178  0.35702583351866235  0.14863307136823067  1.0000
  C   C21       1.0  0.7601604837783  0.8753395106670259  0.6047490967971854  1.0000
  C   C22       1.0  0.24010098326918713  0.624573421727405  0.8951479847146119  1.0000
  C   C23       1.0  0.23983934829892203  0.12466201155866947  0.39525158834419477  1.0000
  C   C24       1.0  0.7598967248208978  0.37542637913034604  0.10485225662300483  1.0000
  C   C25       1.0  0.6665566323982335  0.78860834018753  0.7060768884517401  1.0000
  C   C26       1.0  0.16061393431028398  0.7112588304426241  0.7938811796082419  1.0000
  C   C27       1.0  0.3334408542366775  0.21139404232535242  0.2939247842435718  1.0000
  C   C28       1.0  0.8393879189188385  0.2887383874393167  0.20612019735678191  1.0000
  C   C29       1.0  0.5565180624189164  0.8200038535168237  0.7534038935354063  1.0000
  C   C30       1.0  0.12928643402354112  0.679870126309446  0.7465327123439849  1.0000
  C   C31       1.0  0.44348160932274544  0.17999594657165122  0.24659784264662227  1.0000
  C   C32       1.0  0.8707167936799961  0.32012623101630333  0.2534681977560638  1.0000
  C   C33       1.0  0.35616216917059523  0.24824164726105385  0.5104747809871242  1.0000
  C   C34       1.0  0.11485092433397875  0.25175978186879183  0.9893736472418269  1.0000
  C   C35       1.0  0.6438370773487705  0.751759014959852  0.48952436514859704  1.0000
  C   C36       1.0  0.8851522241534655  0.7482408803386992  0.010625529656671476  1.0000
  C   C37       1.0  0.7998877013143397  0.6254207707145911  0.7699454495492404  1.0000
  C   C38       1.0  0.19484288565097765  0.8743750553456598  0.7300183641562938  1.0000
  C   C39       1.0  0.20011058147571964  0.3745798908015701  0.23005506268287948  1.0000
  C   C40       1.0  0.8051571715007244  0.12562388500702332  0.2699813123311117  1.0000
  C   C41       1.0  0.40482113422645216  0.33538351713855985  0.48405174281043634  1.0000
  C   C42       1.0  0.22428901312547103  0.16455587437001645  0.015760735123493012  1.0000
  C   C43       1.0  0.5951816537776082  0.6646137031911298  0.5159448864284215  1.0000
  C   C44       1.0  0.775712422119945  0.8354422052086008  0.9842388972026583  1.0000
  C   C45       1.0  0.1028088330771767  0.6227228395845902  0.4972582756234162  1.0000
  C   C46       1.0  0.22267945903931957  0.8772135762623494  0.002678082513604399  1.0000
  C   C47       1.0  0.8971921986617207  0.37727610081920204  0.5027413028787535  1.0000
  C   C48       1.0  0.7773207693058382  0.12278708557391846  0.9973218110443227  1.0000
  C   C49       1.0  0.3839374376004158  0.5366403861106621  0.4443571612783472  1.0000
  C   C50       1.0  0.3650510960635172  0.9633600503929081  0.055468111729396696  1.0000
  C   C51       1.0  0.6160611658607638  0.46336371967993994  0.5556412488724831  1.0000
  C   C52       1.0  0.6349477614265098  0.036641471781663916  0.9445326713972194  1.0000
  C   C53       1.0  0.7885313112512122  0.6900811303076255  0.7151702308003607  1.0000
  C   C54       1.0  0.19328176715327325  0.809726747869505  0.7847760967788205  1.0000
  C   C55       1.0  0.21146697877744464  0.30991953077278833  0.284831126839201  1.0000
  C   C56       1.0  0.8067188683176952  0.19027305292371474  0.2152242733068093  1.0000
  C   C57       1.0  0.3069813636512393  0.654954106308921  0.4399117799775425  1.0000
  C   C58       1.0  0.40189950276881353  0.8450514474651387  0.05995710308840784  1.0000
  C   C59       1.0  0.6930215489038362  0.3450491384252033  0.5600871374637677  1.0000
  C   C60       1.0  0.598099754608441  0.15494921410213897  0.9400433111584692  1.0000
  C   C61       1.0  0.16579257702929348  0.6994185143263112  0.4666481133261229  1.0000
  C   C62       1.0  0.33179997618229606  0.8005490009203418  0.0332819455207201  1.0000
  C   C63       1.0  0.8342039241605264  0.30058386878909005  0.5333523892432694  1.0000
  C   C64       1.0  0.6681992739563682  0.1994516610826907  0.9667176233187221  1.0000
  C   C65       1.0  0.3224254377732835  0.45930617765918685  0.47629346038023374  1.0000
  C   C66       1.0  0.25808563132800805  0.040638345456336815  0.023524529650941907  1.0000
  C   C67       1.0  0.6775771215369983  0.5406936247613887  0.5237037548088779  1.0000
  C   C68       1.0  0.7419150041429603  0.9593614553368827  0.9764758404346879  1.0000
  C   C69       1.0  0.5679371459639312  0.7550465939781789  0.8080331860071867  1.0000
  C   C70       1.0  0.13053233757354127  0.744793826150968  0.6918966170690339  1.0000
  C   C71       1.0  0.43205992992586323  0.24495664979563975  0.19196758745670187  1.0000
  C   C72       1.0  0.8694710468462648  0.2552042535298754  0.30810281928664557  1.0000
  C   C73       1.0  0.1799367085347256  0.504723856664896  0.5023143601273077  1.0000
  C   C74       1.0  0.1869301149794039  0.9952084903557581  0.9975600681314206  1.0000
  C   C75       1.0  0.8200625307460501  0.4952768059917575  0.4976839406009718  1.0000
  C   C76       1.0  0.8130681569527667  0.004792171814031603  0.002439175989536616  1.0000
  C   C77       1.0  0.4743162509861136  0.0322028163653911  0.5275744006392742  1.0000
  C   C78       1.0  0.03399688149740851  0.4678019977027789  0.9724322165319563  1.0000
  C   C79       1.0  0.5256847879913736  0.9677961236026463  0.4724260232703372  1.0000
  C   C80       1.0  0.9660031756542934  0.532196942649897  0.02756745995545633  1.0000
  C   C81       1.0  0.528550413025826  0.9186253095665086  0.6250393928683949  1.0000
  C   C82       1.0  0.07185647908040232  0.5813045195427764  0.874992775876926  1.0000
  C   C83       1.0  0.47144787338353206  0.08137535173177923  0.3749615420674459  1.0000
  C   C84       1.0  0.9281427782968522  0.41869614202450134  0.12500763836995793  1.0000
  N   N1        1.0  0.4708280023082239  0.14767296452807707  0.5105509705448341  1.0000
  N   N2        1.0  0.12892343156710248  0.352302648296842  0.9894385784828758  1.0000
  N   N3        1.0  0.5291730366692703  0.8523259754399608  0.48944945336477724  1.0000
  N   N4        1.0  0.8710783963269435  0.6476945711102292  0.010559839556094592  1.0000
  N   N5        1.0  0.5915756392599648  0.16326414897515926  0.48483824208739174  1.0000
  N   N6        1.0  0.23954016857388183  0.33665890064354903  0.015193147660689025  1.0000
  N   N7        1.0  0.40842717407916473  0.8367330698293931  0.5151613460775125  1.0000
  N   N8        1.0  0.7604594742134125  0.6633409011879366  0.984805206891572  1.0000
  N   N9        1.0  0.7059810129897175  0.9426960385656858  0.5579812003245055  1.0000
  N   N10       1.0  0.20665889606575402  0.5572237076066461  0.941950619970818  1.0000
  N   N11       1.0  0.29401864427475743  0.057303762394290914  0.44201884504263944  1.0000
  N   N12       1.0  0.7933397902308242  0.44277609308434057  0.05804994608529068  1.0000
  N   N13       1.0  0.5648251284419602  0.9691027737001364  0.5710839547210115  1.0000
  N   N14       1.0  0.10489793289060145  0.530844331677493  0.928915147128876  1.0000
  N   N15       1.0  0.4351739577418456  0.03089616638354902  0.4289162424553582  1.0000
  N   N16       1.0  0.8951017171352902  0.4691554697182314  0.07108405283082665  1.0000
  O   O1        1.0  0.5963923362141799  0.6179172777589133  0.916504986150187  1.0000
  O   O2        1.0  0.13074291512116795  0.88193092735515  0.5833861875580979  1.0000
  O   O3        1.0  0.4036060149340912  0.3820790795291488  0.08349599117232032  1.0000
  O   O4        1.0  0.8692581166177292  0.11806801304864223  0.4166133909440718  1.0000
  O   O5        1.0  0.15517977393915322  0.8916434358953398  0.4512350577192734  1.0000
  O   O6        1.0  0.4980776610703047  0.608398201047237  0.048702914352133996  1.0000
  O   O7        1.0  0.8448182765378365  0.10835980792958114  0.5487656177593863  1.0000
  O   O8        1.0  0.5019221637683274  0.39160332161420564  0.9512969253818112  1.0000
  O   O9        1.0  0.8239708735064755  0.5126241766257708  0.8856872820449269  1.0000
  O   O10       1.0  0.22215045834417424  0.9871139644236923  0.6143612100070897  1.0000
  O   O11       1.0  0.1760274129028759  0.48737648467251676  0.11431365289091394  1.0000
  O   O12       1.0  0.7778509877591304  0.01288411450128991  0.3856396904302315  1.0000
  O   O13       1.0  0.9535845352559492  0.8600491629169299  0.4847387085937101  1.0000
  O   O14       1.0  0.29829403257397047  0.6398335588267943  0.015279421726390314  1.0000
  O   O15       1.0  0.04641571118568783  0.13995149782995503  0.5152632984828216  1.0000
  O   O16       1.0  0.7017075702456028  0.3601662424532891  0.9847200049665616  1.0000
