data_image0
_chemical_formula_structural       Nd2H58C52N4O16
_chemical_formula_sum              "Nd2 H58 C52 N4 O16"
_cell_length_a       10.960915065528765
_cell_length_b       11.569431732367027
_cell_length_c       12.562
_cell_angle_alpha    110.73236594536087
_cell_angle_beta     99.39439430884948
_cell_angle_gamma    111.22173645431187

_space_group_name_H-M_alt    "P 1"
_space_group_IT_number       1

loop_
  _space_group_symop_operation_xyz
  'x, y, z'

loop_
  _atom_site_type_symbol
  _atom_site_label
  _atom_site_symmetry_multiplicity
  _atom_site_fract_x
  _atom_site_fract_y
  _atom_site_fract_z
  _atom_site_occupancy
  Nd  Nd1       1.0  0.9036994038267849  0.612314447293123  0.5674369697122401  1.0000
  Nd  Nd2       1.0  0.0963019470983824  0.3876808403524876  0.43256327841748987  1.0000
  H   H1        1.0  0.4981803483133262  0.46454056809698596  0.786770113393551  1.0000
  H   H2        1.0  0.5018160470170798  0.5354682109942246  0.21323462363187667  1.0000
  H   H3        1.0  0.47368340030799777  0.6020443437857069  0.45521575073068726  1.0000
  H   H4        1.0  0.5263175584907742  0.3979582084844608  0.5447836258453049  1.0000
  H   H5        1.0  0.5204762950899635  0.718668550712728  0.6058563489490751  1.0000
  H   H6        1.0  0.4795236988360259  0.2813298503434112  0.39414074072395516  1.0000
  H   H7        1.0  0.47128119452558787  0.8150130393052208  0.4566160138103327  1.0000
  H   H8        1.0  0.5287220861451445  0.1849905507684539  0.5433856239189723  1.0000
  H   H9        1.0  0.6114399039292095  0.7989789751187146  0.4119578975987395  1.0000
  H   H10       1.0  0.3885647538095967  0.2010235771514459  0.5880443939538792  1.0000
  H   H11       1.0  0.6290211228341249  0.9922356308221509  0.6614078564844161  1.0000
  H   H12       1.0  0.3709853843746913  0.0077669214480096  0.3385939024275472  1.0000
  H   H13       1.0  0.7678683757745972  0.9566721802368363  0.6337525064034181  1.0000
  H   H14       1.0  0.23213767910115723  0.0433314098368314  0.3662487303907085  1.0000
  H   H15       1.0  0.6312305037373777  0.0738251902893907  0.49588615657785334  1.0000
  H   H16       1.0  0.3687723045314116  0.926177361980777  0.5041166676154134  1.0000
  H   H17       1.0  0.7772919212926793  0.0465185044074943  0.4845167256946893  1.0000
  H   H18       1.0  0.22271090704499846  0.9534861234696806  0.5154835938651913  1.0000
  H   H19       1.0  0.7609114590230134  0.255952441181428  0.7079098141047596  1.0000
  H   H20       1.0  0.23908670550185454  0.7440480354817183  0.29208848778187496  1.0000
  H   H21       1.0  0.9034203087815413  0.214996563572619  0.7068382734156698  1.0000
  H   H22       1.0  0.09658067008612653  0.7850080643045629  0.2931641708880264  1.0000
  H   H23       1.0  0.4329250537850554  0.7716421929351114  0.8302042170107738  1.0000
  H   H24       1.0  0.5670796440915211  0.2283645105490777  0.1697954534298276  1.0000
  H   H25       1.0  0.2812485163668015  0.7890368175195803  0.8491295900325468  1.0000
  H   H26       1.0  0.7187584431750764  0.21096469694708023  0.15087269099726802  1.0000
  H   H27       1.0  0.4386784253405196  0.8805897673192504  0.6895364124420026  1.0000
  H   H28       1.0  0.5613216488610249  0.1194169361649458  0.3104618034196704  1.0000
  H   H29       1.0  0.28593558024327587  0.8923325140034137  0.7034860093497315  1.0000
  H   H30       1.0  0.7140658710263352  0.1076731516772753  0.2965232090058478  1.0000
  H   H31       1.0  0.5647584940220938  0.0454464533845425  0.9101373581160386  1.0000
  H   H32       1.0  0.4352466762564332  0.9545612879031609  0.0898603298090208  1.0000
  H   H33       1.0  0.4100117000864715  0.0515414733824286  0.9262636567575342  1.0000
  H   H34       1.0  0.5899990587398706  0.9484704191193033  0.07374016080415675  1.0000
  H   H35       1.0  0.5645853172258981  0.1496201316354799  0.7676358094134059  1.0000
  H   H36       1.0  0.4354114702309033  0.8503813828311806  0.23236104259833462  1.0000
  H   H37       1.0  0.3994252564027576  0.1377528485304538  0.7652039541019207  1.0000
  H   H38       1.0  0.6005743253279547  0.8622507415432211  0.23479476865075807  1.0000
  H   H39       1.0  0.494015038254112  0.3041210531654031  0.9843501904858483  1.0000
  H   H40       1.0  0.5059873578193929  0.6958866881223003  0.015648694425976807  1.0000
  H   H41       1.0  0.6633249764124756  0.3222182707242567  0.9901055728919842  1.0000
  H   H42       1.0  0.33668157093411816  0.6777884327599395  0.009891972804801747  1.0000
  H   H43       1.0  0.00842442408288238  0.9149960669940143  0.5442067377582517  1.0000
  H   H44       1.0  0.9915736200286533  0.0849919560270465  0.4557930590517572  1.0000
  H   H45       1.0  0.1319238726734895  0.1770555051522678  0.6522354851966483  1.0000
  H   H46       1.0  0.8680649441568704  0.8229345934758072  0.34775730571896457  1.0000
  H   H47       1.0  0.22869010951028204  0.2937482071107667  0.8790813082553584  1.0000
  H   H48       1.0  0.7713024463978826  0.7062460427313368  0.12091655283435901  1.0000
  H   H49       1.0  0.2685522805508  0.2722376538166813  0.0704640656111977  1.0000
  H   H50       1.0  0.731448165708251  0.7277597094359507  0.9295367303860188  1.0000
  H   H51       1.0  0.24762764291088496  0.12488408504096071  0.17548151316567834  1.0000
  H   H52       1.0  0.7523737280831782  0.8751132782116642  0.8245154342790783  1.0000
  H   H53       1.0  0.15882569576235983  0.8869317845518552  0.16477105941236664  1.0000
  H   H54       1.0  0.8411737856239156  0.1130614274867483  0.835228245733468  1.0000
  H   H55       1.0  0.01617758823889655  0.6291476201801842  0.038680233601652986  1.0000
  H   H56       1.0  0.9838191189423499  0.3708455918584121  0.9613210645825349  1.0000
  H   H57       1.0  0.9157808917538119  0.535354052608433  0.8143375665756948  1.0000
  H   H58       1.0  0.08420841754738008  0.4646391594301704  0.1856642700679174  1.0000
  C   C1        1.0  0.6869532220506827  0.68989337286812  0.5529562626751526  1.0000
  C   C2        1.0  0.3130481890811581  0.3101081415985405  0.4470460241734315  1.0000
  C   C3        1.0  0.5548460542582134  0.7038103178999009  0.5267605705982845  1.0000
  C   C4        1.0  0.4451581310786424  0.2961911965667596  0.4732413153151214  1.0000
  C   C5        1.0  0.5726802706644776  0.818507323714023  0.4886585863157151  1.0000
  C   C6        1.0  0.42732294979959556  0.18149003953860904  0.5113410126947286  1.0000
  C   C7        1.0  0.6752056674533976  0.9621133840251802  0.5908236855690134  1.0000
  C   C8        1.0  0.32479759314845313  0.0378881304414804  0.4091780686389299  1.0000
  C   C9        1.0  0.7221661980264003  0.0733498762830891  0.5477186950409774  1.0000
  C   C10       1.0  0.2778356855073767  0.9266526759870786  0.4522824053436452  1.0000
  C   C11       1.0  0.8179785569546709  0.21906786673142883  0.6508970934067193  1.0000
  C   C12       1.0  0.1820242513141181  0.7809346855387318  0.3491049347349601  1.0000
  C   C13       1.0  0.8820205156844311  0.320866012754351  0.6019810292315383  1.0000
  C   C14       1.0  0.1179771764384938  0.6791334261052953  0.3980168670158832  1.0000
  C   C15       1.0  0.2509793870812658  0.6401005983953567  0.6730874476132556  1.0000
  C   C16       1.0  0.7490243258536395  0.3598998782677967  0.32691482871252475  1.0000
  C   C17       1.0  0.3399131773770705  0.775257900354255  0.7864330745615717  1.0000
  C   C18       1.0  0.6600914803617359  0.2247446519159055  0.21356842093945974  1.0000
  C   C19       1.0  0.38096182109668314  0.8960634176118559  0.7529825845112227  1.0000
  C   C20       1.0  0.6190396301729209  0.103942248068833  0.2470170812253443  1.0000
  C   C21       1.0  0.466909965787842  0.0384163724266529  0.8616914403281368  1.0000
  C   C22       1.0  0.53309612922569  0.9615913688610505  0.13831035956030743  1.0000
  C   C23       1.0  0.4968478670415379  0.1543867631441316  0.8232846105358574  1.0000
  C   C24       1.0  0.5031526594930682  0.8456189025365576  0.17671094323732467  1.0000
  C   C25       1.0  0.5637551232926796  0.299319136337509  0.9305552730614933  1.0000
  C   C26       1.0  0.43625047925002036  0.700685491539673  0.0694438495116287  1.0000
  C   C27       1.0  0.5905778675900208  0.41321392004054763  0.8920939651864543  1.0000
  C   C28       1.0  0.4094189399356694  0.5867896700331201  0.10790038219190018  1.0000
  C   C29       1.0  0.05318575053697574  0.9707053592614301  0.6422936926552794  1.0000
  C   C30       1.0  0.9468091071742606  0.029287852777173405  0.35770575001480853  1.0000
  C   C31       1.0  0.12103677162543391  0.1166864751374561  0.7031328775903204  1.0000
  C   C32       1.0  0.8789576538216294  0.8833098503116688  0.29686672253487956  1.0000
  C   C33       1.0  0.1757156597992235  0.1809804780165649  0.8278122241592171  1.0000
  C   C34       1.0  0.824272252365013  0.8190116962185314  0.17218748303654516  1.0000
  C   C35       1.0  0.1633291283082485  0.0993344004967867  0.8904820004746837  1.0000
  C   C36       1.0  0.8366638397951932  0.9006546603277883  0.10951581963855975  1.0000
  C   C37       1.0  0.21905134703266776  0.1594439796347942  0.01941854142106079  1.0000
  C   C38       1.0  0.7809480942158231  0.8405450811897737  0.9805794045788758  1.0000
  C   C39       1.0  0.2062629433871805  0.07745542695763422  0.07703405457077389  1.0000
  C   C40       1.0  0.7937370104010384  0.9225388228844693  0.9229664522658608  1.0000
  C   C41       1.0  0.13414640737729397  0.929256524986684  0.010058520277070142  1.0000
  C   C42       1.0  0.8658572453509521  0.0707377248554195  0.9899425133814361  1.0000
  C   C43       1.0  0.11469870273975145  0.8413089045710862  0.06679594860041499  1.0000
  C   C44       1.0  0.8853058747234995  0.1586853452710244  0.9332028286088059  1.0000
  C   C45       1.0  0.03724833655736148  0.6997504305796696  0.997620736932859  1.0000
  C   C46       1.0  0.962746068820813  0.300243819262441  0.002377387567797559  1.0000
  C   C47       1.0  0.9805128442282935  0.6463004365474703  0.8716093839281029  1.0000
  C   C48       1.0  0.0194806564837577  0.3536958889016546  0.12839326869796253  1.0000
  C   C49       1.0  0.07483122196697425  0.8654264202753056  0.8818116641854131  1.0000
  C   C50       1.0  0.9251686916834672  0.1345636783527766  0.1181906677116515  1.0000
  C   C51       1.0  0.0924936819115274  0.9523652956818864  0.8209255738631924  1.0000
  C   C52       1.0  0.9075044424755632  0.0476310297672313  0.17907853334179438  1.0000
  N   N1        1.0  0.03921981918556131  0.8904509762448285  0.6984361701720161  1.0000
  N   N2        1.0  0.9607759833295688  0.10954431140078921  0.3015648798280708  1.0000
  N   N3        1.0  0.9996889412748968  0.7254765417200701  0.8144889988092457  1.0000
  N   N4        1.0  0.0003049917013341736  0.2745166703185262  0.18551190425853997  1.0000
  O   O1        1.0  0.7109291247333331  0.6429171971139382  0.6286408642825095  1.0000
  O   O2        1.0  0.289067602516802  0.3570780905316724  0.37135713321671193  1.0000
  O   O3        1.0  0.7720106413127112  0.7228716549169576  0.4979424393142152  1.0000
  O   O4        1.0  0.2279893124755077  0.277122594925153  0.5020572714708393  1.0000
  O   O5        1.0  0.9720122444915802  0.3045818379226048  0.5539571822849751  1.0000
  O   O6        1.0  0.027984542965221206  0.6954196765440486  0.4460428539331005  1.0000
  O   O7        1.0  0.8404737173426684  0.4123141443997937  0.6103334592717289  1.0000
  O   O8        1.0  0.1595165166935288  0.5876790676388097  0.3896589564583408  1.0000
  O   O9        1.0  0.12343083532332598  0.609032912603304  0.624098907802768  1.0000
  O   O10       1.0  0.876573410220189  0.3909748286843993  0.3759050168294919  1.0000
  O   O11       1.0  0.3034644355083671  0.5632398328473514  0.6246828248089571  1.0000
  O   O12       1.0  0.6965398100351479  0.436767908440352  0.3753195077201354  1.0000
  O   O13       1.0  0.4736472872311452  0.3935921691295974  0.8158426673640945  1.0000
  O   O14       1.0  0.5263467059517453  0.6064072697300489  0.18414992575195302  1.0000
  O   O15       1.0  0.7034915115172424  0.5129935382419291  0.9240998376056593  1.0000
  O   O16       1.0  0.2965099999590279  0.4870183542597957  0.07589868264343377  1.0000
