data_image0
_chemical_formula_structural       Cu4H20C32N8O8
_chemical_formula_sum              "Cu4 H20 C32 N8 O8"
_cell_length_a       7.148306263610116
_cell_length_b       7.674735426013434
_cell_length_c       12.893435718104728
_cell_angle_alpha    90.0000189895898
_cell_angle_beta     101.80483543053217
_cell_angle_gamma    89.9996703874653

_space_group_name_H-M_alt    "P 1"
_space_group_IT_number       1

loop_
  _space_group_symop_operation_xyz
  'x, y, z'

loop_
  _atom_site_type_symbol
  _atom_site_label
  _atom_site_symmetry_multiplicity
  _atom_site_fract_x
  _atom_site_fract_y
  _atom_site_fract_z
  _atom_site_occupancy
  Cu  Cu1       1.0  0.5524248507455738  0.03138804545179849  0.09803406422280152  1.0000
  Cu  Cu2       1.0  0.44757556746964866  0.5313967262348739  0.40196348678163923  1.0000
  Cu  Cu3       1.0  0.44756118194775507  0.9685990668574574  0.9019640348209633  1.0000
  Cu  Cu4       1.0  0.5524218664498263  0.4686099306821206  0.5980375244802119  1.0000
  H   H1        1.0  0.16152421912503456  0.4352669997404846  0.784677566321008  1.0000
  H   H2        1.0  0.8384329608545329  0.9352778105893477  0.7153348666743184  1.0000
  H   H3        1.0  0.838463289592525  0.564735748280242  0.2153183820085189  1.0000
  H   H4        1.0  0.16158291003479516  0.0647470879368797  0.284675326097549  1.0000
  H   H5        1.0  0.0073202030832390935  0.7258026438087414  0.7567487570704331  1.0000
  H   H6        1.0  0.992659335346289  0.22580524919920458  0.7432632431583104  1.0000
  H   H7        1.0  0.9926800420004651  0.2742040130995562  0.24325491666117927  1.0000
  H   H8        1.0  0.007364072452681098  0.7742105284528265  0.2567284584078422  1.0000
  H   H9        1.0  0.012727374073122596  0.9252363008908803  0.9105580775623494  1.0000
  H   H10       1.0  0.9872944216758767  0.4252192173291078  0.5894488827714852  1.0000
  H   H11       1.0  0.9872756978410919  0.07476775005518023  0.08944748487405717  1.0000
  H   H12       1.0  0.012729111442659802  0.5747809246006168  0.41053662867363266  1.0000
  H   H13       1.0  0.1692224557403819  0.827238377079233  0.0933631668075563  1.0000
  H   H14       1.0  0.8308368007035084  0.32722151385521403  0.406639855122961  1.0000
  H   H15       1.0  0.8307906353761042  0.17275264406531934  0.9066428159716935  1.0000
  H   H16       1.0  0.16916228157464264  0.6727695073312319  0.5933504940106573  1.0000
  H   H17       1.0  0.4770576060506357  0.30226287988836725  0.22295872846081718  1.0000
  H   H18       1.0  0.5229759668961192  0.8022630422501392  0.2770443303120799  1.0000
  H   H19       1.0  0.5229413039706117  0.6977216264212275  0.7770401320961398  1.0000
  H   H20       1.0  0.4770315018812212  0.1977331908178357  0.7229563275263686  1.0000
  C   C1        1.0  0.1577002932027511  0.5211696890245463  0.8512957004531643  1.0000
  C   C2        1.0  0.8422786716536733  0.021181099256757797  0.6487154565310149  1.0000
  C   C3        1.0  0.8422928065213993  0.4788330589798377  0.14870712034710457  1.0000
  C   C4        1.0  0.15772303380401806  0.9788359814574791  0.35128684025326606  1.0000
  C   C5        1.0  0.0742260386430758  0.6845006971949064  0.83639225377199  1.0000
  C   C6        1.0  0.9257666249436408  0.18449457593892055  0.6636166595508044  1.0000
  C   C7        1.0  0.9257757295038117  0.31549423291653517  0.16360694795531566  1.0000
  C   C8        1.0  0.07424522498508417  0.815518595805237  0.3363798674491747  1.0000
  C   C9        1.0  0.0776647710534988  0.796468114084746  0.9231208261999201  1.0000
  C   C10       1.0  0.9223489474051405  0.29646061134511104  0.5768867217687017  1.0000
  C   C11       1.0  0.9223311711540703  0.2035359368864178  0.07688310953856364  1.0000
  C   C12       1.0  0.07766874412116208  0.7035447425153193  0.4231042974541737  1.0000
  C   C13       1.0  0.1629827525774985  0.7428940833279043  0.024769667889870606  1.0000
  C   C14       1.0  0.8370366636940146  0.2428824684416853  0.4752371307148735  1.0000
  C   C15       1.0  0.8370103471707181  0.2570969378878658  0.9752331529132973  1.0000
  C   C16       1.0  0.1629637536733313  0.7571176735783425  0.5247580315966331  1.0000
  C   C17       1.0  0.24479137999094286  0.5762769751065804  0.0407153071018058  1.0000
  C   C18       1.0  0.7552260028810379  0.07628157525642373  0.4592842687614578  1.0000
  C   C19       1.0  0.7552031958028917  0.4237192580085605  0.9592853629897036  1.0000
  C   C20       1.0  0.24477144670739642  0.9237211727305094  0.5407159687357534  1.0000
  C   C21       1.0  0.24169295538681007  0.4638684449038948  0.9536774237885695  1.0000
  C   C22       1.0  0.7582943213521531  0.9638744282592668  0.5463285184386706  1.0000
  C   C23       1.0  0.7582959667673987  0.5361225763236136  0.046319468895930485  1.0000
  C   C24       1.0  0.24170303425997725  0.03613353163683539  0.4536763616509205  1.0000
  C   C25       1.0  0.3261412478073495  0.2907286272559447  0.9707091372769625  1.0000
  C   C26       1.0  0.6738439283584228  0.790740419848042  0.529294228027922  1.0000
  C   C27       1.0  0.6738447535534178  0.7092636969603986  0.02929050929672879  1.0000
  C   C28       1.0  0.326147726612561  0.20927144899756908  0.4707091959492402  1.0000
  C   C29       1.0  0.3378322215327644  0.5180180120512787  0.1462651081876558  1.0000
  C   C30       1.0  0.6622094598399215  0.017994501091322897  0.3537490029224912  1.0000
  C   C31       1.0  0.6621765040344413  0.4819847358998572  0.853744231657366  1.0000
  C   C32       1.0  0.33778938751620297  0.9820004290324534  0.6462529526943328  1.0000
  N   N1        1.0  0.40573213980207606  0.2393488279417966  0.06909458234724748  1.0000
  N   N2        1.0  0.5942686816841275  0.7393655911974548  0.4309115479094103  1.0000
  N   N3        1.0  0.5942510034303794  0.7606343754492073  0.9309047230557752  1.0000
  N   N4        1.0  0.40572006816236683  0.2606436717069441  0.5690938561923033  1.0000
  N   N5        1.0  0.4063082452984119  0.3532863533911481  0.1518103664699453  1.0000
  N   N6        1.0  0.593716622074787  0.8532991130501201  0.348187774742172  1.0000
  N   N7        1.0  0.5936850110618151  0.6467033648429208  0.84818471667743  1.0000
  N   N8        1.0  0.40628214695259857  0.14670754386486354  0.6518180496998127  1.0000
  O   O1        1.0  0.32368384156777796  0.18934919767779224  0.8902764130143055  1.0000
  O   O2        1.0  0.6762945113529354  0.6893584624317909  0.6097307920444024  1.0000
  O   O3        1.0  0.6763065096546015  0.8106444294976213  0.1097206502560084  1.0000
  O   O4        1.0  0.3236956205762524  0.3106547093985768  0.39027710393963844  1.0000
  O   O5        1.0  0.3566252595049519  0.6126479644262091  0.22815836776553766  1.0000
  O   O6        1.0  0.6434294432028125  0.11266227937111489  0.2718301500601257  1.0000
  O   O7        1.0  0.6433951962482354  0.38733523882636695  0.771837635229403  1.0000
  O   O8        1.0  0.3565751360976037  0.8873378626376933  0.7281717141356553  1.0000
