data_image0
_chemical_formula_structural       Na2H22C18O14
_chemical_formula_sum              "Na2 H22 C18 O14"
_cell_length_a       4.943179199851898
_cell_length_b       5.776353016789067
_cell_length_c       18.168835923505444
_cell_angle_alpha    83.54669302587958
_cell_angle_beta     86.67170798219432
_cell_angle_gamma    81.17242155439736

_space_group_name_H-M_alt    "P 1"
_space_group_IT_number       1

loop_
  _space_group_symop_operation_xyz
  'x, y, z'

loop_
  _atom_site_type_symbol
  _atom_site_label
  _atom_site_symmetry_multiplicity
  _atom_site_fract_x
  _atom_site_fract_y
  _atom_site_fract_z
  _atom_site_occupancy
  Na  Na1       1.0  0.5766730077065388  0.930531968181612  0.4048397109106929  1.0000
  Na  Na2       1.0  0.42332819824506623  0.06946013157269701  0.5951588505124477  1.0000
  H   H1        1.0  0.057721715426161745  0.4247122905710301  0.05924855385664069  1.0000
  H   H2        1.0  0.9422668707822767  0.5752959436729203  0.9407550939591759  1.0000
  H   H3        1.0  0.3671461137670278  0.49861571542430744  0.1517562350791906  1.0000
  H   H4        1.0  0.6328513397440716  0.5013870273572893  0.8482474983387718  1.0000
  H   H5        1.0  0.16851772936478673  0.8869075151463194  0.2918384559312059  1.0000
  H   H6        1.0  0.8314846002345604  0.11308983292257581  0.7081637577939829  1.0000
  H   H7        1.0  0.8691717938822022  0.8061626183118026  0.19613787803163518  1.0000
  H   H8        1.0  0.1308216167570322  0.19384022631398787  0.8038653514237524  1.0000
  H   H9        1.0  0.7249657068828839  0.42228488970800976  0.22392722535552423  1.0000
  H   H10       1.0  0.27503123872508434  0.5777090702363666  0.776070221769089  1.0000
  H   H11       1.0  0.444440672247879  0.5816519008951532  0.2717187937522141  1.0000
  H   H12       1.0  0.5555585251821497  0.4183402485076259  0.7282792403565495  1.0000
  H   H13       1.0  0.5703164676397351  0.17148916175794685  0.9751436968278213  1.0000
  H   H14       1.0  0.42970015368731407  0.8285235964051338  0.024853387725563905  1.0000
  H   H15       1.0  0.28426742216091566  0.36244158692905887  0.46439256118413397  1.0000
  H   H16       1.0  0.7157300100480412  0.6375488512290347  0.5356050052800398  1.0000
  H   H17       1.0  0.08962326003492652  0.20561293837570105  0.4370229815988083  1.0000
  H   H18       1.0  0.9103696427011696  0.7943811234128689  0.5629739615632374  1.0000
  H   H19       1.0  0.11279987159959153  0.6392485615317228  0.3946018029794445  1.0000
  H   H20       1.0  0.8871978297385824  0.36074011318596905  0.6053952724883446  1.0000
  H   H21       1.0  0.1208672463455471  0.7322091870498184  0.47038503184427327  1.0000
  H   H22       1.0  0.8791317852701539  0.26778471560427874  0.5296112905962005  1.0000
  C   C1        1.0  0.9443336088220208  0.10768032421749753  0.12075813501827071  1.0000
  C   C2        1.0  0.055656499307005385  0.8923313821642653  0.8792459207723482  1.0000
  C   C3        1.0  0.08437166791324559  0.30335636049643  0.10948716748458762  1.0000
  C   C4        1.0  0.9156305430026491  0.6966550429000126  0.8905189508599208  1.0000
  C   C5        1.0  0.2598658900207624  0.34638549542281555  0.1621811656191809  1.0000
  C   C6        1.0  0.7401328421104271  0.6536224803897356  0.8378229161038035  1.0000
  C   C7        1.0  0.29353699734477345  0.1922066019782847  0.22754340639159662  1.0000
  C   C8        1.0  0.7064609944247664  0.8077926139224944  0.7724593450335888  1.0000
  C   C9        1.0  0.1514587617651769  0.998199120785657  0.2395043097663034  1.0000
  C   C10       1.0  0.8485419167699603  0.0017947678817904066  0.76050024931493  1.0000
  C   C11       1.0  0.9809388558721609  0.9555870077232669  0.18653939956160312  1.0000
  C   C12       1.0  0.019053084503937594  0.04441235967016871  0.8134623205866376  1.0000
  C   C13       1.0  0.7538843133380483  0.057374317893177804  0.0670377388182146  1.0000
  C   C14       1.0  0.2461132176592287  0.9426284172466026  0.9329643426012311  1.0000
  C   C15       1.0  0.5944187069593241  0.42001035140769016  0.2752340615134017  1.0000
  C   C16       1.0  0.4055840725703063  0.5799852153898898  0.7247638065521969  1.0000
  C   C17       1.0  0.7791689615811634  0.4178524907072473  0.3394894264067502  1.0000
  C   C18       1.0  0.22083902566535582  0.5821341748749946  0.6605103453026686  1.0000
  O   O1        1.0  0.6390431088819212  0.8768652141152486  0.0772503607629105  1.0000
  O   O2        1.0  0.36097191265656653  0.1231598601106967  0.9227441034373243  1.0000
  O   O3        1.0  0.7137747007279955  0.21561163272411932  0.008685575701413505  1.0000
  O   O4        1.0  0.28623806937023477  0.7843994714845623  0.9913121658915286  1.0000
  O   O5        1.0  0.45695528739185676  0.21698655297299047  0.2835764057758468  1.0000
  O   O6        1.0  0.5430522132536737  0.7830036343955201  0.7164232465940117  1.0000
  O   O7        1.0  0.865236035685406  0.6127208035162683  0.3431116705848538  1.0000
  O   O8        1.0  0.13476802246431424  0.3872799963122589  0.6568865457857811  1.0000
  O   O9        1.0  0.8382327973554738  0.2295156945959392  0.3817869435392538  1.0000
  O   O10       1.0  0.16176545270130296  0.7704834958321172  0.6182103012242166  1.0000
  O   O11       1.0  0.23709478204076356  0.20003060511046308  0.47379874513097764  1.0000
  O   O12       1.0  0.7629024326964211  0.7999615913934977  0.5261982109972507  1.0000
  O   O13       1.0  0.24766872325124473  0.6706834628759851  0.4309122923425406  1.0000
  O   O14       1.0  0.7523328034870218  0.32930686834336603  0.5690846767518636  1.0000
