data_image0
_chemical_formula_structural       Ba4H24C48O16
_chemical_formula_sum              "Ba4 H24 C48 O16"
_cell_length_a       8.192759823173889
_cell_length_b       8.327362252013742
_cell_length_c       15.465281057593804
_cell_angle_alpha    90.00020153046005
_cell_angle_beta     94.04304296019386
_cell_angle_gamma    89.99993425236045

_space_group_name_H-M_alt    "P 1"
_space_group_IT_number       1

loop_
  _space_group_symop_operation_xyz
  'x, y, z'

loop_
  _atom_site_type_symbol
  _atom_site_label
  _atom_site_symmetry_multiplicity
  _atom_site_fract_x
  _atom_site_fract_y
  _atom_site_fract_z
  _atom_site_occupancy
  Ba  Ba1       1.0  0.7521977859499673  0.6326376133090862  0.9618644635925263  1.0000
  Ba  Ba2       1.0  0.7478005490745189  0.1326395406884373  0.03813587183976349  1.0000
  Ba  Ba3       1.0  0.24780111115152445  0.36736240998726527  0.038135240483754315  1.0000
  Ba  Ba4       1.0  0.2521995726837929  0.8673616834699303  0.9618645240483303  1.0000
  H   H1        1.0  0.0021967276825805002  0.4797227890348026  0.2007879463966944  1.0000
  H   H2        1.0  0.4978062998132983  0.9797207225706897  0.7992114710167968  1.0000
  H   H3        1.0  0.9978058413450697  0.5202784351224709  0.7992125398175317  1.0000
  H   H4        1.0  0.5021925972881933  0.020279300725668695  0.20078823305948387  1.0000
  H   H5        1.0  0.0200987710741316  0.4242123186712803  0.3586537260457945  1.0000
  H   H6        1.0  0.47990063619953816  0.9242104432643714  0.6413454525235522  1.0000
  H   H7        1.0  0.9798989034153963  0.5757877046277288  0.6413465795150444  1.0000
  H   H8        1.0  0.5200994845360755  0.0757907808918858  0.3586542967169137  1.0000
  H   H9        1.0  0.0823590669128436  0.6457413572953854  0.4634796534391938  1.0000
  H   H10       1.0  0.4176381493856951  0.1457379380753068  0.5365202096118793  1.0000
  H   H11       1.0  0.9176373849647207  0.354258666006281  0.5365212536062032  1.0000
  H   H12       1.0  0.5823619713510128  0.8542608843600518  0.4634795396263485  1.0000
  H   H13       1.0  0.14521247666086623  0.9195328029339294  0.4946249878911999  1.0000
  H   H14       1.0  0.3547881605661019  0.4195292517800552  0.5053755204220991  1.0000
  H   H15       1.0  0.8547900933900293  0.0804672203650014  0.5053761449695386  1.0000
  H   H16       1.0  0.6452107375580952  0.5804707715184065  0.4946248303018024  1.0000
  H   H17       1.0  0.18024044026631003  0.20200169572796509  0.4470948742796991  1.0000
  H   H18       1.0  0.3197603965924359  0.7019982240195404  0.5529058756594549  1.0000
  H   H19       1.0  0.8197633513749524  0.7979959258452993  0.5529050104466149  1.0000
  H   H20       1.0  0.6802397251669774  0.29800059841792154  0.4470945202264005  1.0000
  H   H21       1.0  0.1654169070750484  0.26465848495531935  0.2892470277140902  1.0000
  H   H22       1.0  0.33458264689714673  0.7646548255627437  0.7107525004274391  1.0000
  H   H23       1.0  0.8345819900264503  0.7353415383410322  0.7107526763621833  1.0000
  H   H24       1.0  0.6654186964515318  0.2353439968699504  0.2892466473262373  1.0000
  C   C1        1.0  0.0130731484409807  0.7491992014497554  0.11819079515479558  1.0000
  C   C2        1.0  0.4869264216906046  0.24919675586875206  0.8818099974994239  1.0000
  C   C3        1.0  0.9869257507048135  0.25080322357172236  0.8818102022189649  1.0000
  C   C4        1.0  0.5130749226802251  0.7508032674265053  0.1181897969029961  1.0000
  C   C5        1.0  0.052649097262929004  0.7306377915469895  0.2139892789011668  1.0000
  C   C6        1.0  0.4473504877703647  0.2306347657462737  0.786010185897716  1.0000
  C   C7        1.0  0.9473510234732316  0.2693622317488149  0.7860104703381836  1.0000
  C   C8        1.0  0.552650855578861  0.7693628558259746  0.2139889618548381  1.0000
  C   C9        1.0  0.034432255136955796  0.5765867245979308  0.2461645502028418  1.0000
  C   C10       1.0  0.465568694182558  0.0765822673200205  0.7538346729296208  1.0000
  C   C11       1.0  0.9655678645743182  0.42341810213757464  0.7538345523933501  1.0000
  C   C12       1.0  0.5344326512109704  0.9234177559773542  0.24616576812042004  1.0000
  C   C13       1.0  0.043944144625371  0.545025997378687  0.3358415156718095  1.0000
  C   C14       1.0  0.45605560987405624  0.0450233674483442  0.6641576035362675  1.0000
  C   C15       1.0  0.9560547524766747  0.45497282505721154  0.6641581884033485  1.0000
  C   C16       1.0  0.5439445118859041  0.9549742541286649  0.33584279234847253  1.0000
  C   C17       1.0  0.0766216607098329  0.6678117474064322  0.3937825686679162  1.0000
  C   C18       1.0  0.42337798066348853  0.1678051738815967  0.6062161325040307  1.0000
  C   C19       1.0  0.9233772353684133  0.3321894767482619  0.6062164887618593  1.0000
  C   C20       1.0  0.5766196928044353  0.8321924476943963  0.393783526406942  1.0000
  C   C21       1.0  0.102403194955663  0.8263840585320777  0.36432422571641604  1.0000
  C   C22       1.0  0.3975999745869956  0.3263801081992312  0.6356761994887064  1.0000
  C   C23       1.0  0.8976018213413185  0.17361716562410115  0.6356763508239425  1.0000
  C   C24       1.0  0.6023976988798269  0.6736199150976675  0.3643234594245044  1.0000
  C   C25       1.0  0.13710775230219246  0.9501365118643791  0.42587899144924524  1.0000
  C   C26       1.0  0.3628916323266652  0.4501309983786044  0.5741208820326733  1.0000
  C   C27       1.0  0.8628923694561195  0.04986471229398862  0.5741214044388485  1.0000
  C   C28       1.0  0.6371072657980791  0.5498678240594046  0.42587946869011256  1.0000
  C   C29       1.0  0.15674651066865417  0.10639384862196272  0.3996898413273513  1.0000
  C   C30       1.0  0.34325318984721787  0.6063894587320746  0.600310685435332  1.0000
  C   C31       1.0  0.8432511627987226  0.893604973814483  0.6003098175847441  1.0000
  C   C32       1.0  0.6567481555468646  0.39360936370484007  0.3996897556135934  1.0000
  C   C33       1.0  0.14630083117022966  0.14199667474523645  0.3106541218049657  1.0000
  C   C34       1.0  0.3536988378621757  0.6419928539878583  0.6893471178948829  1.0000
  C   C35       1.0  0.8536992916113277  0.8580033485547887  0.6893469207296334  1.0000
  C   C36       1.0  0.6463000602631157  0.35800476758969785  0.3106532328267875  1.0000
  C   C37       1.0  0.1163762052449755  0.024375808559092608  0.24799226351552758  1.0000
  C   C38       1.0  0.38362601844563227  0.5243735635991982  0.7520088475132667  1.0000
  C   C39       1.0  0.8836263648070145  0.9756218130189326  0.7520088693429654  1.0000
  C   C40       1.0  0.6163741043359253  0.47562645970082684  0.2479921950213324  1.0000
  C   C41       1.0  0.0902720833989861  0.8613960534880079  0.2725971823476954  1.0000
  C   C42       1.0  0.40972738122699337  0.3613938887931098  0.7274018792635815  1.0000
  C   C43       1.0  0.9097268126781658  0.1386075723875919  0.7274018750843182  1.0000
  C   C44       1.0  0.5902727395086202  0.6386073353631474  0.2725978699768845  1.0000
  C   C45       1.0  0.12465542864108412  0.0856109843416135  0.1570948689528819  1.0000
  C   C46       1.0  0.3753442888031985  0.5856093418951858  0.8429043258214222  1.0000
  C   C47       1.0  0.8753459167518969  0.9143902398162069  0.8429055720982744  1.0000
  C   C48       1.0  0.624655830910264  0.4143906813985084  0.1570947767703004  1.0000
  O   O1        1.0  0.0636960539571518  0.642175919168366  0.0665929009376995  1.0000
  O   O2        1.0  0.43630483854600755  0.14217266683940716  0.9334083842594794  1.0000
  O   O3        1.0  0.936304069846557  0.3578253049942219  0.9334087882456359  1.0000
  O   O4        1.0  0.5636952832134058  0.8578261555980546  0.0665920116263763  1.0000
  O   O5        1.0  0.9228353178739254  0.8650516069915355  0.0904208639655408  1.0000
  O   O6        1.0  0.5771652512014926  0.36504980742007836  0.9095793478741284  1.0000
  O   O7        1.0  0.07716602751905552  0.13494961716628498  0.9095795770856226  1.0000
  O   O8        1.0  0.42283364487730785  0.6349502158741629  0.0904197095545314  1.0000
  O   O9        1.0  0.23295701329294624  0.031094106765714  0.11009593358812  1.0000
  O   O10       1.0  0.2670427549490952  0.5310916929897473  0.8899038063279504  1.0000
  O   O11       1.0  0.767043106419969  0.9689071173884398  0.8899031690047253  1.0000
  O   O12       1.0  0.732957364764367  0.46890833030395374  0.110095296263772  1.0000
  O   O13       1.0  0.0317553131165837  0.2048395951097532  0.13478642124065487  1.0000
  O   O14       1.0  0.468244295470747  0.7048367919918943  0.8652129955246934  1.0000
  O   O15       1.0  0.9682448076190299  0.7951616290465041  0.8652133279998111  1.0000
  O   O16       1.0  0.5317546006085933  0.295162030441901  0.1347860619028438  1.0000
