data_image0
_chemical_formula_structural       Zn4H56C68N12O20
_chemical_formula_sum              "Zn4 H56 C68 N12 O20"
_cell_length_a       10.140444407598801
_cell_length_b       10.205728210637417
_cell_length_c       21.094443210000634
_cell_angle_alpha    90.00001286385336
_cell_angle_beta     89.99997226756024
_cell_angle_gamma    105.57184216938695

_space_group_name_H-M_alt    "P 1"
_space_group_IT_number       1

loop_
  _space_group_symop_operation_xyz
  'x, y, z'

loop_
  _atom_site_type_symbol
  _atom_site_label
  _atom_site_symmetry_multiplicity
  _atom_site_fract_x
  _atom_site_fract_y
  _atom_site_fract_z
  _atom_site_occupancy
  Zn  Zn1       1.0  0.10137924569237095  0.6245443816842238  0.7880862419564565  1.0000
  Zn  Zn2       1.0  0.39861870557306384  0.8754549053191594  0.28808629701543964  1.0000
  Zn  Zn3       1.0  0.8986199514156394  0.37545789464105883  0.2119140177804084  1.0000
  Zn  Zn4       1.0  0.6013806360290204  0.12454431410278492  0.7119139627212476  1.0000
  H   H1        1.0  0.07432315867041688  0.35503736266201  0.9806407319263357  1.0000
  H   H2        1.0  0.42567809591887584  0.1449643720095821  0.480641703340126  1.0000
  H   H3        1.0  0.9256757583786452  0.6449638964996822  0.0193576315765256  1.0000
  H   H4        1.0  0.5743208211288431  0.8550368871524012  0.5193595045137087  1.0000
  H   H5        1.0  0.7818049471914958  0.9511457584440635  0.867809545374442  1.0000
  H   H6        1.0  0.7181939776169486  0.5488540633987  0.3678100808002043  1.0000
  H   H7        1.0  0.21819144038997956  0.048853477217313895  0.13219024030409088  1.0000
  H   H8        1.0  0.2818066287183711  0.4511461677735226  0.6321906529948862  1.0000
  H   H9        1.0  0.14433897360337508  0.20307547039843135  0.05740184118764089  1.0000
  H   H10       1.0  0.35566366485949175  0.2969261719004024  0.5574026936079193  1.0000
  H   H11       1.0  0.855658254157639  0.7969268167531213  0.9425979444909629  1.0000
  H   H12       1.0  0.6443382062090564  0.7030750710220987  0.4425985142455744  1.0000
  H   H13       1.0  0.09614256503837738  0.6981479886263459  0.9225325542066969  1.0000
  H   H14       1.0  0.4038589180513623  0.8018502871846849  0.42253307397938755  1.0000
  H   H15       1.0  0.9038607152572594  0.3018512091431518  0.0774696017635037  1.0000
  H   H16       1.0  0.5961415527177394  0.19814586992091418  0.5774686079324809  1.0000
  H   H17       1.0  0.2552296036002489  0.8463105960250844  0.0019796850007125  1.0000
  H   H18       1.0  0.24477298076931214  0.6536865708017672  0.5019810216962384  1.0000
  H   H19       1.0  0.7447787356303266  0.15369264874509983  0.9980201006766479  1.0000
  H   H20       1.0  0.7552246804736953  0.3463065456398269  0.4980192380403068  1.0000
  H   H21       1.0  0.5471473317928286  0.9737144353313243  0.8497133392120163  1.0000
  H   H22       1.0  0.9528534438657059  0.5262812979002547  0.3497133430480233  1.0000
  H   H23       1.0  0.45285313897828416  0.026281721773834508  0.1502840761733921  1.0000
  H   H24       1.0  0.047148571698258444  0.47371688811862356  0.6502850204543122  1.0000
  H   H25       1.0  0.37946132759451245  0.820766273585278  0.777454036235916  1.0000
  H   H26       1.0  0.12054001227330956  0.6792309552543115  0.2774555570613515  1.0000
  H   H27       1.0  0.6205359090952526  0.17922888259611372  0.22254480132530569  1.0000
  H   H28       1.0  0.8794645327566784  0.32076925426522257  0.7225447026747744  1.0000
  H   H29       1.0  0.8051759912800307  0.49719017832882184  0.7874950014490948  1.0000
  H   H30       1.0  0.6948231245765156  0.002806960127259103  0.28749648539654515  1.0000
  H   H31       1.0  0.19482489511580778  0.5028110700066507  0.21250431017053018  1.0000
  H   H32       1.0  0.3051746722322689  0.9971902303810649  0.7125037743402061  1.0000
  H   H33       1.0  0.8112593167413845  0.8220883489470051  0.7175173479742796  1.0000
  H   H34       1.0  0.6887400298837463  0.6779124591796021  0.21751600830564397  1.0000
  H   H35       1.0  0.1887401604258017  0.17791494454181842  0.2824843339381005  1.0000
  H   H36       1.0  0.31125860710524467  0.3220877828187554  0.7824828292556916  1.0000
  H   H37       1.0  0.653806175285979  0.8149886995666196  0.7570510001773769  1.0000
  H   H38       1.0  0.8461938386651439  0.6850110941060025  0.2570486762416095  1.0000
  H   H39       1.0  0.34619274176174025  0.18501255959536417  0.24295020767645778  1.0000
  H   H40       1.0  0.15380269341040528  0.3149850846520438  0.7429511094367385  1.0000
  H   H41       1.0  0.6500385311985966  0.7499896665561822  0.6789655039225195  1.0000
  H   H42       1.0  0.8499591625018112  0.7500121616390842  0.1789631862705718  1.0000
  H   H43       1.0  0.3499606659087462  0.250012609769243  0.3210361779898321  1.0000
  H   H44       1.0  0.15003947448673216  0.24998808035936548  0.8210365994077621  1.0000
  H   H45       1.0  0.586247792475646  0.4334188018077825  0.7744541484718824  1.0000
  H   H46       1.0  0.9137499264535546  0.0665803791219943  0.2744555880987249  1.0000
  H   H47       1.0  0.4137504199587595  0.5665834799306638  0.22554611126510343  1.0000
  H   H48       1.0  0.08624787035433452  0.9334168113865217  0.7255465678720086  1.0000
  H   H49       1.0  0.5289057290776924  0.5053406991680659  0.7056986112883762  1.0000
  H   H50       1.0  0.9710946133674057  0.9946601011173117  0.20569961060856912  1.0000
  H   H51       1.0  0.4710944527037098  0.49466157174410347  0.2943021225068776  1.0000
  H   H52       1.0  0.028903743560398695  0.0053391237179454  0.7943020713037116  1.0000
  H   H53       1.0  0.5017157204677146  0.5666398664144765  0.7821021514299319  1.0000
  H   H54       1.0  0.9982820204467016  0.933358926068422  0.2821026635548094  1.0000
  H   H55       1.0  0.4982834766402957  0.4333624099107993  0.21789810830694017  1.0000
  H   H56       1.0  0.0017157763616352975  0.06663826443999452  0.717898544298933  1.0000
  C   C1        1.0  0.9609130237673893  0.42692470744933797  0.8780069677513254  1.0000
  C   C2        1.0  0.5390867113315777  0.07307142702703122  0.3780089700353599  1.0000
  C   C3        1.0  0.039083490450892065  0.5730857332489734  0.1219942401032981  1.0000
  C   C4        1.0  0.46091305482397626  0.9269257526550734  0.6219922378181479  1.0000
  C   C5        1.0  0.9365658307075503  0.2842628827215279  0.9034966139565553  1.0000
  C   C6        1.0  0.563435560709486  0.21573935997215438  0.40349673002652514  1.0000
  C   C7        1.0  0.06343336640046718  0.7157393936037552  0.0965036457803095  1.0000
  C   C8        1.0  0.436564341012513  0.7842618937765239  0.5965030556517092  1.0000
  C   C9        1.0  0.011275027686536963  0.2663340394650077  0.9557351232809382  1.0000
  C   C10       1.0  0.48872597033393106  0.23366667292603452  0.4557360896868303  1.0000
  C   C11       1.0  0.9887264188296567  0.7336692431970987  0.04426276616325  1.0000
  C   C12       1.0  0.5112726666541647  0.7663335690725077  0.5442646441084875  1.0000
  C   C13       1.0  0.007713493781821484  0.13408522384144558  0.9786643776912456  1.0000
  C   C14       1.0  0.4922897320187829  0.3659164995977662  0.478665357844072  1.0000
  C   C15       1.0  0.9922848631470983  0.8659140009935623  0.0213349339285642  1.0000
  C   C16       1.0  0.5077121390497652  0.6340847433247419  0.5213358500094145  1.0000
  C   C17       1.0  0.9238925006636335  0.016602129324624605  0.9458276539927795  1.0000
  C   C18       1.0  0.5761066014186937  0.4833991157296112  0.44582969283811746  1.0000
  C   C19       1.0  0.0761068409393458  0.983397090097128  0.054170709509925495  1.0000
  C   C20       1.0  0.42389259568864895  0.5166031605958137  0.5541719890742343  1.0000
  C   C21       1.0  0.847057454702039  0.0387116862852608  0.8924444111649805  1.0000
  C   C22       1.0  0.6529419777917908  0.461290564964031  0.3924454814326666  1.0000
  C   C23       1.0  0.15294146234657544  0.9612895728765309  0.107554900454879  1.0000
  C   C24       1.0  0.3470591886627759  0.5387117005350746  0.6075562004794577  1.0000
  C   C25       1.0  0.8507702103488696  0.1678098411365028  0.8717493942499459  1.0000
  C   C26       1.0  0.6492305063980126  0.33219341761097343  0.3717504511532752  1.0000
  C   C27       1.0  0.14923194078064475  0.8321924189491483  0.1282494433110912  1.0000
  C   C28       1.0  0.35076869070955746  0.6678088587144017  0.6282507567005808  1.0000
  C   C29       1.0  0.081785855156383  0.11447944580786641  0.032221752621524  1.0000
  C   C30       1.0  0.4182158223823506  0.385522196730669  0.5322235482553097  1.0000
  C   C31       1.0  0.9182153112995195  0.8855228196909479  0.9677770849396268  1.0000
  C   C32       1.0  0.5817850640123651  0.6144790516050449  0.46777813365678605  1.0000
  C   C33       1.0  0.7582209731033416  0.18500293517897154  0.818932178837052  1.0000
  C   C34       1.0  0.7417778241138748  0.31500032354284  0.3189327380775637  1.0000
  C   C35       1.0  0.24177907311273114  0.8149952616663753  0.1810676068409975  1.0000
  C   C36       1.0  0.2582199637668339  0.6850039979355033  0.6810670476010827  1.0000
  C   C37       1.0  0.19715140144483456  0.7617231094918608  0.9091811624134108  1.0000
  C   C38       1.0  0.30285079885194216  0.7382741409993657  0.40918122481033947  1.0000
  C   C39       1.0  0.8028524389716053  0.23827812260417863  0.0908186232643615  1.0000
  C   C40       1.0  0.6971529059989479  0.2617230170298939  0.5908180868087313  1.0000
  C   C41       1.0  0.2851110390710331  0.8426685685157125  0.9526627498341468  1.0000
  C   C42       1.0  0.2148901355399744  0.6573286963225443  0.45266329799633814  1.0000
  C   C43       1.0  0.7148912565530025  0.1573306346665149  0.0473351396097144  1.0000
  C   C44       1.0  0.7851087904367161  0.34266543186922854  0.5473364876816191  1.0000
  C   C45       1.0  0.4133423043892818  0.9203640271842418  0.9316306598914252  1.0000
  C   C46       1.0  0.08665889006012142  0.5796332333325224  0.43162933333092474  1.0000
  C   C47       1.0  0.5866599912336311  0.0796351759982201  0.0683695998449139  1.0000
  C   C48       1.0  0.9133398914229429  0.4203639517624963  0.5683695042302261  1.0000
  C   C49       1.0  0.4487748449319253  0.9138654992318465  0.867760280294057  1.0000
  C   C50       1.0  0.051225705145732485  0.586132770738672  0.3677603849369433  1.0000
  C   C51       1.0  0.5512274506916556  0.08613370395047332  0.1322385572667955  1.0000
  C   C52       1.0  0.9487750456843286  0.41386440353006987  0.6322389266824757  1.0000
  C   C53       1.0  0.35590863254556376  0.8287458828480536  0.8274596257197685  1.0000
  C   C54       1.0  0.14409420495106667  0.6712533851792203  0.3274592439066595  1.0000
  C   C55       1.0  0.6440968971580289  0.1712543212583171  0.1725406340162436  1.0000
  C   C56       1.0  0.85590781061223  0.3287448008398073  0.6725405417711556  1.0000
  C   C57       1.0  0.819012259225218  0.6001009108632401  0.7680339561653254  1.0000
  C   C58       1.0  0.6809877443660567  0.8998988850661148  0.2680331168512851  1.0000
  C   C59       1.0  0.18098708237663888  0.39989830855875397  0.23196677762985732  1.0000
  C   C60       1.0  0.3190106125628702  0.1001003397688933  0.7319661947685248  1.0000
  C   C61       1.0  0.7054899499740657  0.7617320132155926  0.7241371098750236  1.0000
  C   C62       1.0  0.7945086857933105  0.7382698188477193  0.2241362261105806  1.0000
  C   C63       1.0  0.294509247133277  0.23827026310983268  0.27586457203732806  1.0000
  C   C64       1.0  0.20548939107554526  0.261728388823947  0.7758635595677035  1.0000
  C   C65       1.0  0.5731348978212196  0.5271952632243214  0.7533822550793162  1.0000
  C   C66       1.0  0.9268648395288535  0.9728035125314562  0.2533832623642311  1.0000
  C   C67       1.0  0.42686528396040296  0.4728070076877985  0.2466180046574351  1.0000
  C   C68       1.0  0.07313394195308828  0.0271936725638042  0.7466179454893904  1.0000
  N   N1        1.0  0.23185239000681424  0.7545053242834568  0.8475729900000956  1.0000
  N   N2        1.0  0.2681500039644859  0.7454959876163939  0.3475735353912057  1.0000
  N   N3        1.0  0.7681521550238413  0.2454948852359351  0.15242584756055066  1.0000
  N   N4        1.0  0.7318503223107625  0.2545032263924867  0.6524276724623519  1.0000
  N   N5        1.0  0.5100541541546377  0.011005655241717703  0.9706963368067746  1.0000
  N   N6        1.0  0.9899487276008754  0.4889914992025694  0.47069685702142294  1.0000
  N   N7        1.0  0.48995362495735856  0.9889955552014342  0.029301078578058096  1.0000
  N   N8        1.0  0.010050478436333736  0.51100364615246  0.5293015064810688  1.0000
  N   N9        1.0  0.704934306841885  0.6288208154868755  0.7493295191511748  1.0000
  N   N10       1.0  0.7950647297171898  0.8711789820127297  0.2493300720873108  1.0000
  N   N11       1.0  0.2950648902661257  0.3711814608384075  0.2506707405856901  1.0000
  N   N12       1.0  0.20493334715121847  0.12881922565903642  0.7506706617079572  1.0000
  O   O1        1.0  0.022477702034144873  0.4415535342256973  0.8230997275000788  1.0000
  O   O2        1.0  0.4775206115618147  0.05844411024988719  0.3231002031546168  1.0000
  O   O3        1.0  0.9775220641236473  0.5584436454559167  0.1768967397684804  1.0000
  O   O4        1.0  0.5224760560790642  0.9415561425749812  0.6769005306409355  1.0000
  O   O5        1.0  0.9337089455844206  0.5189144127690638  0.9097850131642106  1.0000
  O   O6        1.0  0.5662917644866708  0.9810884637749028  0.4097837356476077  1.0000
  O   O7        1.0  0.06629687310888234  0.48107967753029607  0.0902119281619633  1.0000
  O   O8        1.0  0.4337074326215671  0.0189138125503305  0.5902160500307686  1.0000
  O   O9        1.0  0.7247846637116807  0.2937417766509753  0.8128433814444519  1.0000
  O   O10       1.0  0.7752169577040177  0.2062573905135068  0.3128429727342663  1.0000
  O   O11       1.0  0.2752153825052872  0.7062564201941726  0.18715450799961533  1.0000
  O   O12       1.0  0.22478167928519344  0.7937428514847938  0.6871553907685737  1.0000
  O   O13       1.0  0.7144957890140444  0.0805868545410746  0.7815469771794881  1.0000
  O   O14       1.0  0.785504452692507  0.4194143513463827  0.28154753767690727  1.0000
  O   O15       1.0  0.28550102312112796  0.9194103413804057  0.21845328255737684  1.0000
  O   O16       1.0  0.2144972738821949  0.5805899484794139  0.7184531961182685  1.0000
  O   O17       1.0  0.9361816643761924  0.6850706187875841  0.7638527511826042  1.0000
  O   O18       1.0  0.5638163738120239  0.8149291871089158  0.2638509818662769  1.0000
  O   O19       1.0  0.06381697261190308  0.3149296232109577  0.23614798261271366  1.0000
  O   O20       1.0  0.4361812785038026  0.1850710603024979  0.7361469075781883  1.0000
