data_image0
_chemical_formula_structural       Sm2H108C114N12O30
_chemical_formula_sum              "Sm2 H108 C114 N12 O30"
_cell_length_a       10.934586038024197
_cell_length_b       19.781877665266563
_cell_length_c       19.781908983699566
_cell_angle_alpha    119.99977155233823
_cell_angle_beta     89.99981720683856
_cell_angle_gamma    89.99995540363689

_space_group_name_H-M_alt    "P 1"
_space_group_IT_number       1

loop_
  _space_group_symop_operation_xyz
  'x, y, z'

loop_
  _atom_site_type_symbol
  _atom_site_label
  _atom_site_symmetry_multiplicity
  _atom_site_fract_x
  _atom_site_fract_y
  _atom_site_fract_z
  _atom_site_occupancy
  Sm  Sm1       1.0  0.14397128510612586  0.33333320879432915  0.6666668759966684  1.0000
  Sm  Sm2       1.0  0.8560291471007843  0.6666664965947647  0.3333330810326205  1.0000
  H   H1        1.0  0.7982742546698771  0.43505368433930897  0.8917798989873307  1.0000
  H   H2        1.0  0.7982751825263746  0.4567274458177552  0.5649458507620795  1.0000
  H   H3        1.0  0.7982754899742514  0.10821874297447921  0.5432713344667164  1.0000
  H   H4        1.0  0.20172526300467553  0.5649473239319391  0.1082207772068956  1.0000
  H   H5        1.0  0.20172433514998994  0.5432730569421836  0.43505431992137045  1.0000
  H   H6        1.0  0.2017249422387408  0.8917797377394339  0.45672681417243427  1.0000
  H   H7        1.0  0.1666985477362388  0.4908125752301945  0.8435587174621805  1.0000
  H   H8        1.0  0.16669778053088888  0.3527471106366989  0.5091890401087653  1.0000
  H   H9        1.0  0.16669752009165958  0.15644118372226518  0.6472534996215631  1.0000
  H   H10       1.0  0.8332991408795961  0.5091884330426526  0.15644195873445454  1.0000
  H   H11       1.0  0.8333017371454828  0.6472533921232471  0.49081113057468434  1.0000
  H   H12       1.0  0.8333019975937717  0.8435567914811416  0.35274414350801925  1.0000
  H   H13       1.0  0.9184346308730297  0.6691880398784847  0.07499997401014022  1.0000
  H   H14       1.0  0.9184413940325483  0.40581486656306265  0.33081291313089184  1.0000
  H   H15       1.0  0.9184366111011499  0.9249977223534815  0.5941868280831603  1.0000
  H   H16       1.0  0.08156580132779817  0.3308128901857901  0.9250017914092796  1.0000
  H   H17       1.0  0.08155812364137197  0.5941858498494458  0.6691880549211435  1.0000
  H   H18       1.0  0.08156290657457528  0.07500248854771749  0.40581363445810587  1.0000
  H   H19       1.0  0.2562058967508348  0.6163311846408563  0.9458242341335464  1.0000
  H   H20       1.0  0.2562068059034459  0.32949012433185504  0.38366903766809923  1.0000
  H   H21       1.0  0.2562061716883973  0.05417648520614218  0.6705094604328254  1.0000
  H   H22       1.0  0.7437936209285283  0.38366801523773125  0.05417521738617384  1.0000
  H   H23       1.0  0.7437917972465511  0.6705090755475356  0.6163304138528292  1.0000
  H   H24       1.0  0.7437933459873347  0.9458237256950568  0.3294910021084407  1.0000
  H   H25       1.0  0.12799320115075827  0.7066901612386189  0.06020318209822766  1.0000
  H   H26       1.0  0.1280000929361691  0.3535133027488017  0.29331012999107753  1.0000
  H   H27       1.0  0.12799408919062216  0.9397966345697172  0.646488093691872  1.0000
  H   H28       1.0  0.8720081455807076  0.29331135254233237  0.939797999604359  1.0000
  H   H29       1.0  0.8719994247413753  0.646486402641088  0.7066898270394193  1.0000
  H   H30       1.0  0.8720054284826586  0.060203789984051174  0.35351316621798656  1.0000
  H   H31       1.0  0.625142294000092  0.5347490272143461  0.11698946994768285  1.0000
  H   H32       1.0  0.6251430847636285  0.5822408252428418  0.4652526897953707  1.0000
  H   H33       1.0  0.6251439249754043  0.8830125574866516  0.4177597274793501  1.0000
  H   H34       1.0  0.3748563091342162  0.4652550141255462  0.8830142393123882  1.0000
  H   H35       1.0  0.3748573474414626  0.41775938565756127  0.5347477727446943  1.0000
  H   H36       1.0  0.37485650722968694  0.11698765341374434  0.582240735060708  1.0000
  H   H37       1.0  0.7149145228845198  0.6409235582958815  0.022656149931336265  1.0000
  H   H38       1.0  0.7149146487999544  0.3817324530910185  0.3590782887464742  1.0000
  H   H39       1.0  0.714914396881788  0.9773461628370868  0.61826709319341  1.0000
  H   H40       1.0  0.2850877383744929  0.35907846099557644  0.9773455372808119  1.0000
  H   H41       1.0  0.28508578340758817  0.6182675441568154  0.6409213764249916  1.0000
  H   H42       1.0  0.2850869498551205  0.022653834409950942  0.38173257197685473  1.0000
  H   H43       1.0  0.7585447242179055  0.6074601186369649  0.08816064889477107  1.0000
  H   H44       1.0  0.7585439350040134  0.48070036877723527  0.3925391082148338  1.0000
  H   H45       1.0  0.7585432662611068  0.9118392583445428  0.5192998718735355  1.0000
  H   H46       1.0  0.24145753703567147  0.3925434171884138  0.9118425548496989  1.0000
  H   H47       1.0  0.24145649720108503  0.5192998421231608  0.6074613543252243  1.0000
  H   H48       1.0  0.24145625141462548  0.08816095255665607  0.4807005906677305  1.0000
  H   H49       1.0  0.4985510354133779  0.5365209990771264  0.8457882570928207  1.0000
  H   H50       1.0  0.4985504692110964  0.3092672432644009  0.4634798588518977  1.0000
  H   H51       1.0  0.49855175148975656  0.15421284510364333  0.6907317494355639  1.0000
  H   H52       1.0  0.5014493967868175  0.46347963912840845  0.15421380018442227  1.0000
  H   H53       1.0  0.5014490484670873  0.6907327539842285  0.5365198063207828  1.0000
  H   H54       1.0  0.501448680717786  0.8457871521441904  0.3092679157359087  1.0000
  H   H55       1.0  0.656342976947137  0.5283303687869606  0.861702711597765  1.0000
  H   H56       1.0  0.6563424103383111  0.3333715976850017  0.47167026162952663  1.0000
  H   H57       1.0  0.6563419848706359  0.13829732556051524  0.6666266376143356  1.0000
  H   H58       1.0  0.3436583697854089  0.47166896653641305  0.13829862651454053  1.0000
  H   H59       1.0  0.34365710733987226  0.6666283995636352  0.528329403543154  1.0000
  H   H60       1.0  0.34365844733690654  0.8617026716873185  0.33337302755713705  1.0000
  H   H61       1.0  0.5797454236776217  0.6168295359467992  0.9205420293143407  1.0000
  H   H62       1.0  0.5797453652496428  0.3037127949562547  0.3831711751150949  1.0000
  H   H63       1.0  0.5797455338680847  0.07945774597369151  0.6962861258981691  1.0000
  H   H64       1.0  0.4202559230587467  0.3831715505290206  0.07945755765106807  1.0000
  H   H65       1.0  0.42025506695726716  0.6962869104328393  0.616828781914194  1.0000
  H   H66       1.0  0.42025489833945767  0.9205422512741425  0.30371353927329653  1.0000
  H   H67       1.0  0.8469872237582691  0.3095294949576515  0.7273803182085602  1.0000
  H   H68       1.0  0.8469835960268239  0.4178506836265116  0.6904698710828613  1.0000
  H   H69       1.0  0.8469858397046436  0.27262020760190364  0.5821490942145362  1.0000
  H   H70       1.0  0.1530132084456497  0.690471513312801  0.27262035798445805  1.0000
  H   H71       1.0  0.15301592165135247  0.5821493136221251  0.3095297940898193  1.0000
  H   H72       1.0  0.15301276344226267  0.7273789140713093  0.41785144653279377  1.0000
  H   H73       1.0  0.6984986300787597  0.35131782207211176  0.7585082573169404  1.0000
  H   H74       1.0  0.6984970786646015  0.4071920275485469  0.6486811209038239  1.0000
  H   H75       1.0  0.6984982708601348  0.24149057736185853  0.5928078090947295  1.0000
  H   H76       1.0  0.30150088760187527  0.6486819615239555  0.24149061048714784  1.0000
  H   H77       1.0  0.30150335354294094  0.5928079696992868  0.3513185442676488  1.0000
  H   H78       1.0  0.30150033229338646  0.7585062304073846  0.4071910014673323  1.0000
  H   H79       1.0  0.92199690174791  0.21218988329425073  0.7581326371952032  1.0000
  H   H80       1.0  0.9219947525281069  0.5459410518311004  0.7878069801822252  1.0000
  H   H81       1.0  0.9219968437865234  0.24186629923780614  0.45405524691548765  1.0000
  H   H82       1.0  0.07800353046090439  0.7878106976710628  0.2418664442606301  1.0000
  H   H83       1.0  0.07800659420762199  0.4540597427859795  0.21219289864099283  1.0000
  H   H84       1.0  0.07800175936102248  0.7581331142941466  0.5459450019740262  1.0000
  H   H85       1.0  0.5824546425854819  0.3317633214232104  0.8572561848767395  1.0000
  H   H86       1.0  0.582452308274135  0.5254944965053812  0.6682379897658708  1.0000
  H   H87       1.0  0.582454965316792  0.14274485759885652  0.4745065832910031  1.0000
  H   H88       1.0  0.41754396056152393  0.6682371813375313  0.14274398580791825  1.0000
  H   H89       1.0  0.4175462948727712  0.4745046251678319  0.3317625509814662  1.0000
  H   H90       1.0  0.4175418087769244  0.8572541286295633  0.5254920708637485  1.0000
  H   H91       1.0  0.6857691002102299  0.13354567110657486  0.8793542242348241  1.0000
  H   H92       1.0  0.6857677926472832  0.7458067641038542  0.8664563189272771  1.0000
  H   H93       1.0  0.6857690841373197  0.12064742051306618  0.2541913433046332  1.0000
  H   H94       1.0  0.3142313319955007  0.8664548316525613  0.12064594644742511  1.0000
  H   H95       1.0  0.3142298959702642  0.2541923575701618  0.13354422182126777  1.0000
  H   H96       1.0  0.3142304335415033  0.8793528685943104  0.7458080300102312  1.0000
  H   H97       1.0  0.5392778056908439  0.24088088236396754  0.9059445022013082  1.0000
  H   H98       1.0  0.5392761022055693  0.6650642708939289  0.7591227822466566  1.0000
  H   H99       1.0  0.5392777274641175  0.09405740102364045  0.33493691207574733  1.0000
  H   H100      1.0  0.46072262651488677  0.7591196203951754  0.09405566848094098  1.0000
  H   H101      1.0  0.46072341546942397  0.3349342670610014  0.24087834221510468  1.0000
  H   H102      1.0  0.46072179021832926  0.9059418770611248  0.6650614502175645  1.0000
  H   H103      1.0  0.8764203516765575  0.11843807597465895  0.8034058156600495  1.0000
  H   H104      1.0  0.8764206425816138  0.6849638949919526  0.8815589994216497  1.0000
  H   H105      1.0  0.8764207914381572  0.1965944292854972  0.31503219441739827  1.0000
  H   H106      1.0  0.12358008053343639  0.8815617076206126  0.19659305214283054  1.0000
  H   H107      1.0  0.12357887509593012  0.3150358103979444  0.11844095760884708  1.0000
  H   H108      1.0  0.12357872623820745  0.8034060734744416  0.6849679762660517  1.0000
  C   C1        1.0  0.9927726280317156  0.5088548624605879  0.8992322216000164  1.0000
  C   C2        1.0  0.9927766324187813  0.3903780776783989  0.4911459120320885  1.0000
  C   C3        1.0  0.9927755795423181  0.10076727688901596  0.6096213701497463  1.0000
  C   C4        1.0  0.007225060585923899  0.4911456403009567  0.10076794908584942  1.0000
  C   C5        1.0  0.0072237997893083  0.6096208303406458  0.5088538313442401  1.0000
  C   C6        1.0  0.0072248526762094985  0.8992310683785124  0.3903748918944104  1.0000
  C   C7        1.0  0.9229608857231638  0.5594148157923801  0.9662401090683732  1.0000
  C   C8        1.0  0.9229615952122784  0.40682677338048745  0.4405845796490271  1.0000
  C   C9        1.0  0.9229595880206813  0.0337564972679304  0.5931733612319122  1.0000
  C   C10       1.0  0.07703954647830359  0.4405864061306347  0.033761364493237626  1.0000
  C   C11       1.0  0.07703792246526579  0.5931729320094093  0.5594153773814627  1.0000
  C   C12       1.0  0.07704084419103199  0.9662413997285029  0.40682537112287054  1.0000
  C   C13       1.0  0.11275760320058481  0.5308917874276775  0.8939842818494274  1.0000
  C   C14       1.0  0.11275528898665499  0.36309316322746105  0.4691090263715339  1.0000
  C   C15       1.0  0.1127577290431674  0.1060144658312297  0.6369077351859859  1.0000
  C   C16       1.0  0.8872428290069646  0.46910820982015644  0.10601538332204541  1.0000
  C   C17       1.0  0.887243314159079  0.6369067558157939  0.5308917280287562  1.0000
  C   C18       1.0  0.8872454467567291  0.8939848122503309  0.3630906271025013  1.0000
  C   C19       1.0  0.9720692100960304  0.6306467900583074  0.02349848914752079  1.0000
  C   C20       1.0  0.9720738664025744  0.3928526833953826  0.3693537556702681  1.0000
  C   C21       1.0  0.9720700265083264  0.976502025534302  0.607148269125169  1.0000
  C   C22       1.0  0.0279330511659737  0.36935392635179926  0.9765024789009049  1.0000
  C   C23       1.0  0.0279265658018844  0.6071472356462736  0.6306469987276061  1.0000
  C   C24       1.0  0.027931320229853892  0.023498555430215663  0.3928508123294635  1.0000
  C   C25       1.0  0.16243370952047087  0.6010008110790254  0.9511183646517695  1.0000
  C   C26       1.0  0.16243639350469857  0.35011595302055554  0.3989994124274433  1.0000
  C   C27       1.0  0.16243222313829617  0.04888273559794253  0.6498838670539585  1.0000
  C   C28       1.0  0.8375658081534425  0.39899990533348273  0.04888260340027278  1.0000
  C   C29       1.0  0.8375631241716659  0.6498845497393833  0.6010007582560065  1.0000
  C   C30       1.0  0.8375682090717048  0.951117047997322  0.3501150007489216  1.0000
  C   C31       1.0  0.09086256307149648  0.6511936055320362  0.015298232800134322  1.0000
  C   C32       1.0  0.09086546058767198  0.3641043999070135  0.34880652355066394  1.0000
  C   C33       1.0  0.09086328154405979  0.9847011013897672  0.6358968746186381  1.0000
  C   C34       1.0  0.9091369546054078  0.34880580799911376  0.9847020160881786  1.0000
  C   C35       1.0  0.9091322280293354  0.6358958109957841  0.6511939389930178  1.0000
  C   C36       1.0  0.9091371506646622  0.015298098488017399  0.36410257689987463  1.0000
  C   C37       1.0  0.9456764415598398  0.4360993285495739  0.8314739802013947  1.0000
  C   C38       1.0  0.9456735841488991  0.3953760870299947  0.5639005518553193  1.0000
  C   C39       1.0  0.9456736260576618  0.16852399230719328  0.6046230579193762  1.0000
  C   C40       1.0  0.05432216158471448  0.5639013878637372  0.16852698785184833  1.0000
  C   C41       1.0  0.05432593352801259  0.6046233265011625  0.4360996970329937  1.0000
  C   C42       1.0  0.05432680615777488  0.8314742747541574  0.395374293351182  1.0000
  C   C43       1.0  0.6054619111274204  0.5451581949391128  0.014295440039973033  1.0000
  C   C44       1.0  0.6054625223948235  0.4691380535129569  0.45484382967569564  1.0000
  C   C45       1.0  0.6054610255093279  0.9857062913766301  0.5308616061867043  1.0000
  C   C46       1.0  0.3945385210668846  0.4548464301166606  0.9857076855020497  1.0000
  C   C47       1.0  0.39453790981208664  0.530861651876137  0.5451561273535931  1.0000
  C   C48       1.0  0.39453757763767766  0.01429421138411177  0.4691385644979535  1.0000
  C   C49       1.0  0.5695829658779344  0.51928261742588  0.06540507449982166  1.0000
  C   C50       1.0  0.569583577679495  0.5461218563822501  0.48071853985810287  1.0000
  C   C51       1.0  0.5695842966652619  0.9345969927938215  0.45387857099599677  1.0000
  C   C52       1.0  0.43041563725574145  0.4807211320552727  0.9345989266180654  1.0000
  C   C53       1.0  0.430416854529227  0.45387734349554193  0.5192809116604098  1.0000
  C   C54       1.0  0.43041522100865137  0.06540372361868672  0.5461223970560455  1.0000
  C   C55       1.0  0.72307762809708  0.5892342169098512  0.029657193500490675  1.0000
  C   C56       1.0  0.7230784620314238  0.44042336404672994  0.4107657065763492  1.0000
  C   C57       1.0  0.723078574777105  0.9703428416448576  0.5595762855782953  1.0000
  C   C58       1.0  0.2769228041007565  0.4107680160357746  0.9703452910826658  1.0000
  C   C59       1.0  0.27692288470431237  0.5595774305703572  0.5892341722468688  1.0000
  C   C60       1.0  0.27692277195980347  0.029657155602173295  0.44042337959196953  1.0000
  C   C61       1.0  0.5352389242461014  0.526076406728407  0.9473115267535875  1.0000
  C   C62       1.0  0.5352394493575473  0.421235254335187  0.4739254704676768  1.0000
  C   C63       1.0  0.5352403203597119  0.0526892518395884  0.5787638121577531  1.0000
  C   C64       1.0  0.4647605934187453  0.47392683724063295  0.05269196885232227  1.0000
  C   C65       1.0  0.4647600683188173  0.5787652484247519  0.5260747002157731  1.0000
  C   C66       1.0  0.46476011184901006  0.9473099480381963  0.42123563936076647  1.0000
  C   C67       1.0  0.5687391931713037  0.553023518955385  0.8908992454875603  1.0000
  C   C68       1.0  0.5687387962489864  0.3378756014369771  0.44697739645330625  1.0000
  C   C69       1.0  0.5687383362052073  0.10910119903800831  0.6621235293241129  1.0000
  C   C70       1.0  0.4312621535595297  0.44697770296682654  0.10910222807284241  1.0000
  C   C71       1.0  0.43126163595856337  0.6621243958108567  0.5530222687181665  1.0000
  C   C72       1.0  0.4312620960005233  0.8908993037211347  0.33787664135812906  1.0000
  C   C73       1.0  0.7551024303838574  0.2777855485290249  0.8041633060881994  1.0000
  C   C74       1.0  0.7551006631015936  0.5263789718621086  0.7222131315483937  1.0000
  C   C75       1.0  0.755103441763232  0.19583554430877834  0.4736197282483091  1.0000
  C   C76       1.0  0.24489617276559977  0.7222147405791546  0.1958360672278659  1.0000
  C   C77       1.0  0.24489885457477092  0.4736215308978304  0.27778703913505615  1.0000
  C   C78       1.0  0.2448942468592107  0.8041631500601057  0.5263792177630509  1.0000
  C   C79       1.0  0.7835132383151732  0.3349711981449844  0.776806923439466  1.0000
  C   C80       1.0  0.7835107421727872  0.441835222624839  0.6650276558132762  1.0000
  C   C81       1.0  0.7835130332343423  0.22319312106022  0.5581639444840222  1.0000
  C   C82       1.0  0.21648719389236953  0.6650287991028563  0.22319274173200665  1.0000
  C   C83       1.0  0.21648877550412488  0.558164190906318  0.33497259307502963  1.0000
  C   C84       1.0  0.21648556991864604  0.7768047759378123  0.44183478787317676  1.0000
  C   C85       1.0  0.8373479694069133  0.2176525724687155  0.7895643104356298  1.0000
  C   C86       1.0  0.8373486558304747  0.5719081073336414  0.7823426769893305  1.0000
  C   C87       1.0  0.8373499320507848  0.21043502567342645  0.42808996308276204  1.0000
  C   C88       1.0  0.16265154827425476  0.7823461218985629  0.21043463557332137  1.0000
  C   C89       1.0  0.16265177638133818  0.42809117075032094  0.21765568530277335  1.0000
  C   C90       1.0  0.16264867109676118  0.7895643878585262  0.5719102858067516  1.0000
  C   C91       1.0  0.6478024026758148  0.2855914673960742  0.8461534391072407  1.0000
  C   C92       1.0  0.6477998460207246  0.5605598166822505  0.7144061106942561  1.0000
  C   C93       1.0  0.6478036688376817  0.15384752486826161  0.4394395893360113  1.0000
  C   C94       1.0  0.35219802953471907  0.7144072269704013  0.15384550690050255  1.0000
  C   C95       1.0  0.35220150071789647  0.43943829396594236  0.2855934190279116  1.0000
  C   C96       1.0  0.3521949343135872  0.8461522587286083  0.5605592784692774  1.0000
  C   C97       1.0  0.7052925054038894  0.17395291207031274  0.858299011381398  1.0000
  C   C98       1.0  0.7052904107415471  0.684344374809527  0.8260480472294064  1.0000
  C   C99       1.0  0.7052922648238108  0.14170121469904737  0.31565403141208054  1.0000
  C   C100      1.0  0.29470884133237957  0.8260467933179783  0.14170094564668292  1.0000
  C   C101      1.0  0.29470910693354563  0.3156555442329322  0.17395270716967565  1.0000
  C   C102      1.0  0.29470725285618465  0.85829827703828  0.6843451282498237  1.0000
  C   C103      1.0  0.6233963145895557  0.23421922299788636  0.8735613559599997  1.0000
  C   C104      1.0  0.6233926827767603  0.6393448155470339  0.7657832244747454  1.0000
  C   C105      1.0  0.6233960412735796  0.12643831582786905  0.360655218069276  1.0000
  C   C106      1.0  0.3766032030880879  0.765781863479532  0.12643823100781765  1.0000
  C   C107      1.0  0.3766050058402469  0.3606553953557708  0.2342172380689363  1.0000
  C   C108      1.0  0.376602561878869  0.8735606703989522  0.6393434360830671  1.0000
  C   C109      1.0  0.8121325265452481  0.16546358158515068  0.815885221400869  1.0000
  C   C110      1.0  0.8121321319372041  0.6504210472968099  0.8345357796041173  1.0000
  C   C111      1.0  0.8121338589883892  0.18411310761050714  0.34957509553948546  1.0000
  C   C112      1.0  0.1878679056635733  0.8345369993801699  0.18411386005496438  1.0000
  C   C113      1.0  0.18786830026734685  0.34958025283237504  0.16546460473108482  1.0000
  C   C114      1.0  0.18786474416288712  0.8158866759863629  0.6504237722658034  1.0000
  N   N1        1.0  0.8407799241219889  0.40534838667886697  0.838804765502758  1.0000
  N   N2        1.0  0.8407824379392962  0.43345596695979094  0.5946512969627592  1.0000
  N   N3        1.0  0.8407836248999414  0.16119525146651645  0.5665430319436455  1.0000
  N   N4        1.0  0.15921959355501508  0.5946524079398118  0.16119511332287578  1.0000
  N   N5        1.0  0.1592179942669745  0.5665434465705561  0.40534895192434567  1.0000
  N   N6        1.0  0.15921863637294817  0.838802431875749  0.43345490304013634  1.0000
  N   N7        1.0  0.282604579638388  0.27364832466904704  0.7545162753643312  1.0000
  N   N8        1.0  0.28260360076280466  0.4808669199106746  0.7263510742723726  1.0000
  N   N9        1.0  0.2826016205229607  0.24548526342754698  0.5191304729348192  1.0000
  N   N10       1.0  0.7173949380397955  0.7263516725795898  0.24548338980834228  1.0000
  N   N11       1.0  0.7173968314422865  0.5191332909897214  0.2736493882676856  1.0000
  N   N12       1.0  0.7174015552769362  0.7545140146540136  0.4808678893536682  1.0000
  O   O1        1.0  0.18561680240510006  0.31585213339112544  0.7821055788899188  1.0000
  O   O2        1.0  0.18561697937404625  0.4662529837661326  0.6841478480942416  1.0000
  O   O3        1.0  0.18561484430050262  0.2178952754516105  0.5337461605851318  1.0000
  O   O4        1.0  0.8143836298018101  0.6841475719979685  0.21789437813936988  1.0000
  O   O5        1.0  0.8143843673628623  0.5337470134809054  0.31585181707602333  1.0000
  O   O6        1.0  0.8143865024357664  0.7821044299366804  0.46625379644294906  1.0000
  O   O7        1.0  0.0028151665368909987  0.405435140156918  0.7671123039051511  1.0000
  O   O8        1.0  0.0028147806458704997  0.36167596852328665  0.5945655274338366  1.0000
  O   O9        1.0  0.0028156594164556992  0.23288787732474966  0.6383223443816776  1.0000
  O   O10       1.0  0.997184351138834  0.5945650707442811  0.23288815863611495  1.0000
  O   O11       1.0  0.9971838225023147  0.6383237368674062  0.40543442959786113  1.0000
  O   O12       1.0  0.9971847727983413  0.7671100978778542  0.36167529874670395  1.0000
  O   O13       1.0  0.808628256642926  0.5352030274699756  0.9711739331435397  1.0000
  O   O14       1.0  0.8086307020662672  0.4359722364006446  0.4647970766732002  1.0000
  O   O15       1.0  0.8086307018495872  0.02882508758253266  0.5640265389212828  1.0000
  O   O16       1.0  0.19137126102545204  0.46479782438892425  0.028828921503496606  1.0000
  O   O17       1.0  0.19136881560945798  0.5640279745005544  0.5352033858680728  1.0000
  O   O18       1.0  0.19136973036040666  0.9711746960127389  0.43597232888159726  1.0000
  O   O19       1.0  0.3111015316198261  0.2546959480201069  0.6839143574265877  1.0000
  O   O20       1.0  0.311102146370821  0.42921754721649574  0.745302807531367  1.0000
  O   O21       1.0  0.31109907133792797  0.31608685973598244  0.5707816340348941  1.0000
  O   O22       1.0  0.6888989005877234  0.7453040492277271  0.316085307744885  1.0000
  O   O23       1.0  0.6888982858367283  0.5707824500313452  0.2546968576401058  1.0000
  O   O24       1.0  0.6889022753971688  0.6839136430223579  0.42921853664613974  1.0000
  O   O25       1.0  0.34361730979978933  0.25247338359444904  0.7930350717999063  1.0000
  O   O26       1.0  0.3436172386723014  0.5405609577248855  0.7475255866767727  1.0000
  O   O27       1.0  0.34361098814937907  0.20696876865924466  0.45943618245996043  1.0000
  O   O28       1.0  0.6563831224064811  0.7475260299359051  0.20696517708719855  1.0000
  O   O29       1.0  0.6563822790027911  0.4594389613175736  0.25247516772231654  1.0000
  O   O30       1.0  0.6563894440545395  0.7930322396112078  0.5405644937330581  1.0000
