data_image0
_chemical_formula_structural       Ag4H16C24N16O12
_chemical_formula_sum              "Ag4 H16 C24 N16 O12"
_cell_length_a       7.235097387554459
_cell_length_b       7.235084763965021
_cell_length_c       14.775497328107793
_cell_angle_alpha    87.8101777993525
_cell_angle_beta     87.80995213623999
_cell_angle_gamma    86.32749407638624

_space_group_name_H-M_alt    "P 1"
_space_group_IT_number       1

loop_
  _space_group_symop_operation_xyz
  'x, y, z'

loop_
  _atom_site_type_symbol
  _atom_site_label
  _atom_site_symmetry_multiplicity
  _atom_site_fract_x
  _atom_site_fract_y
  _atom_site_fract_z
  _atom_site_occupancy
  Ag  Ag1       1.0  0.6575731835800908  0.541602764911822  0.6123490616530136  1.0000
  Ag  Ag2       1.0  0.45839842364408406  0.34242594027166723  0.8876502090782239  1.0000
  Ag  Ag3       1.0  0.3424300688747977  0.45839869509570264  0.3876503526042399  1.0000
  Ag  Ag4       1.0  0.541602270935492  0.6575727158795815  0.1123493253246224  1.0000
  H   H1        1.0  0.8335256105507227  0.8759059749883492  0.4884758488078661  1.0000
  H   H2        1.0  0.12409850546907818  0.16647403151327475  0.0115237490310491  1.0000
  H   H3        1.0  0.16647339278673456  0.12409682227568912  0.511523630701106  1.0000
  H   H4        1.0  0.8759046734032196  0.8335288437570156  0.9884776656601134  1.0000
  H   H5        1.0  0.8361667906899511  0.22607584351270302  0.4959650823759887  1.0000
  H   H6        1.0  0.7739286475435134  0.16382743519540102  0.004034677188059312  1.0000
  H   H7        1.0  0.1638281401887767  0.7739254899848477  0.5040324906924667  1.0000
  H   H8        1.0  0.22607485038831499  0.8361712926283787  0.9959675001199528  1.0000
  H   H9        1.0  0.42243085774703804  0.22154792626015052  0.6989138713823451  1.0000
  H   H10       1.0  0.7784542965694  0.5775627311496052  0.8010867710627565  1.0000
  H   H11       1.0  0.5775682486665303  0.7784534852436595  0.3010856368682938  1.0000
  H   H12       1.0  0.22154671706969958  0.4224317775551328  0.19891352595694664  1.0000
  H   H13       1.0  0.15250249148036227  0.0567859869709793  0.7040899067942306  1.0000
  H   H14       1.0  0.943208720309144  0.8474995069086333  0.7959094645112259  1.0000
  H   H15       1.0  0.847496914330378  0.9432112574179572  0.29590901128955244  1.0000
  H   H16       1.0  0.05678642655298919  0.152499064902635  0.2040888424324123  1.0000
  C   C1        1.0  0.74408298402777  0.9535851705260683  0.5365489439606321  1.0000
  C   C2        1.0  0.0464189618579951  0.2559141539598357  0.9634499458420578  1.0000
  C   C3        1.0  0.2559133485270806  0.046416198807740706  0.4634499505604097  1.0000
  C   C4        1.0  0.9535844035041875  0.7440859301216353  0.0365501735487186  1.0000
  C   C5        1.0  0.7465914310792242  0.1453446190985233  0.5411675955581572  1.0000
  C   C6        1.0  0.8546593553052303  0.2534044087502211  0.9588318899666036  1.0000
  C   C7        1.0  0.2534061607509272  0.8546581324950682  0.458829886106372  1.0000
  C   C8        1.0  0.14534146201281573  0.7465928813091551  0.04116902596162222  1.0000
  C   C9        1.0  0.5145968045476863  0.14379317326092436  0.6520904378737526  1.0000
  C   C10       1.0  0.8562086364009287  0.4853992025605365  0.847908640286839  1.0000
  C   C11       1.0  0.48540389003188966  0.8562054828903243  0.3479090965290936  1.0000
  C   C12       1.0  0.1437907792409945  0.5145980516625741  0.1520909541888003  1.0000
  C   C13       1.0  0.5099609034347805  0.9511480398539762  0.6464157633322074  1.0000
  C   C14       1.0  0.04885250408780452  0.490036709178213  0.8535847758308392  1.0000
  C   C15       1.0  0.49003981080714704  0.0488506359656355  0.3535851238543515  1.0000
  C   C16       1.0  0.9511496657504849  0.5099605675465355  0.1464140795906843  1.0000
  C   C17       1.0  0.37803844152504235  0.8438456525309588  0.7015106573441158  1.0000
  C   C18       1.0  0.15614602841601768  0.6219705873036006  0.7984898486235822  1.0000
  C   C19       1.0  0.6219652330654952  0.15615027426981953  0.298489548271661  1.0000
  C   C20       1.0  0.8438502207250662  0.3780321874587998  0.20151036993950566  1.0000
  C   C21       1.0  0.19923897291604928  0.9159778307606956  0.7254696027740906  1.0000
  C   C22       1.0  0.08402971829619331  0.800759428969691  0.7745330609207599  1.0000
  C   C23       1.0  0.8007615548359935  0.0840236362477356  0.2745325797128544  1.0000
  C   C24       1.0  0.9159735734833987  0.19924207037455233  0.2254690589039257  1.0000
  N   N1        1.0  0.6259798484408204  0.8563029787852587  0.5884997737949575  1.0000
  N   N2        1.0  0.1436993913193234  0.37402075999954576  0.9114990980362947  1.0000
  N   N3        1.0  0.37402063998652574  0.14369844888645386  0.4114997031245551  1.0000
  N   N4        1.0  0.8563012001841341  0.6259792819119383  0.08850040762487771  1.0000
  N   N5        1.0  0.632143653672088  0.23984004334586476  0.5995063057160123  1.0000
  N   N6        1.0  0.7601629798263828  0.36784933659447466  0.9004948223842251  1.0000
  N   N7        1.0  0.3678526788827625  0.7601613259879513  0.4004925888050224  1.0000
  N   N8        1.0  0.2398406015192051  0.6321479858007207  0.0995060308817415  1.0000
  N   N9        1.0  0.43995335808717323  0.6694700971695439  0.7257920798755748  1.0000
  N   N10       1.0  0.3305273725503852  0.560046114505468  0.774208280096154  1.0000
  N   N11       1.0  0.5600460772171016  0.3305271767219224  0.2742088673837841  1.0000
  N   N12       1.0  0.669473135539306  0.4399553328346002  0.2257925496070712  1.0000
  N   N13       1.0  0.09872975871815727  0.454890690110581  0.6055170139874804  1.0000
  N   N14       1.0  0.5451074753594656  0.9012690887724019  0.894482791060355  1.0000
  N   N15       1.0  0.901273493736731  0.5451107698969508  0.3944824002697729  1.0000
  N   N16       1.0  0.45489024904033215  0.09873230656349818  0.10551674852141699  1.0000
  O   O1        1.0  0.26052384420344765  0.45114491305301396  0.5701595197305593  1.0000
  O   O2        1.0  0.5488512013144626  0.7394725005949142  0.9298381954409436  1.0000
  O   O3        1.0  0.7394793150064983  0.5488579425489278  0.4298405421768834  1.0000
  O   O4        1.0  0.4511453275614413  0.26052608738425687  0.0701600801715685  1.0000
  O   O5        1.0  0.040442803058453984  0.315421345545886  0.6495971475847497  1.0000
  O   O6        1.0  0.684577569653669  0.9595562074297066  0.8504025578484331  1.0000
  O   O7        1.0  0.9595606358863192  0.6845773232728192  0.3504009713721176  1.0000
  O   O8        1.0  0.3154215564222511  0.04044522374245929  0.1495983031859254  1.0000
  O   O9        1.0  0.9922969325076706  0.6025790965914339  0.5969614742164282  1.0000
  O   O10       1.0  0.39741975418551323  0.007702736963651099  0.9030396002379248  1.0000
  O   O11       1.0  0.007703668826962893  0.39742095515422454  0.4030387078366076  1.0000
  O   O12       1.0  0.6025793718904068  0.9922986942085146  0.09696126079642653  1.0000
