data_image0
_chemical_formula_structural       Tm2H14C16N2O16
_chemical_formula_sum              "Tm2 H14 C16 N2 O16"
_cell_length_a       7.442112928292462
_cell_length_b       8.378408388672682
_cell_length_c       9.290651631045334
_cell_angle_alpha    78.01627940299551
_cell_angle_beta     76.46448823434372
_cell_angle_gamma    69.9636136816677

_space_group_name_H-M_alt    "P 1"
_space_group_IT_number       1

loop_
  _space_group_symop_operation_xyz
  'x, y, z'

loop_
  _atom_site_type_symbol
  _atom_site_label
  _atom_site_symmetry_multiplicity
  _atom_site_fract_x
  _atom_site_fract_y
  _atom_site_fract_z
  _atom_site_occupancy
  Tm  Tm1       1.0  0.17273849771242314  0.8685653704015336  0.2049650205849076  1.0000
  Tm  Tm2       1.0  0.827261946143942  0.13143324004107623  0.7950326704949973  1.0000
  H   H1        1.0  0.5385293102444493  0.5207712308990154  0.09802906270477504  1.0000
  H   H2        1.0  0.46146559786827623  0.4792273317496053  0.9019653888112772  1.0000
  H   H3        1.0  0.6058260538121516  0.09915332418995598  0.4579121706040894  1.0000
  H   H4        1.0  0.3941766990729364  0.9008465865249065  0.5420859054548471  1.0000
  H   H5        1.0  0.32704837155751687  0.2888336456251891  0.6170156929764518  1.0000
  H   H6        1.0  0.6729543963194188  0.7111662914265435  0.3829866806453951  1.0000
  H   H7        1.0  0.10423540338150872  0.09863042074655935  0.42566281051364996  1.0000
  H   H8        1.0  0.895759090774341  0.9013733251937592  0.5743382555890691  1.0000
  H   H9        1.0  0.1893540930725521  0.1786640903923669  0.2739411355734163  1.0000
  H   H10       1.0  0.8106431428087078  0.8213358054495926  0.7260590728753087  1.0000
  H   H11       1.0  0.955275694430142  0.6040450217549631  0.2494252314650184  1.0000
  H   H12       1.0  0.04471877348996862  0.39595867809581614  0.7505683139026047  1.0000
  H   H13       1.0  0.8889730265236224  0.7608957409267062  0.11717777697643325  1.0000
  H   H14       1.0  0.11101408536161023  0.23910921506215735  0.8828169304778513  1.0000
  C   C1        1.0  0.12556772486903628  0.6308035759700981  0.5260537363261548  1.0000
  C   C2        1.0  0.8744295260040714  0.36919634620873854  0.4739507696854802  1.0000
  C   C3        1.0  0.28967682193953703  0.5035176253352915  0.4397714186511124  1.0000
  C   C4        1.0  0.7103208727848268  0.49648099413141716  0.5602300246005002  1.0000
  C   C5        1.0  0.4939356346580012  0.464524513503072  0.2116583635192484  1.0000
  C   C6        1.0  0.5060634327583814  0.5354740981594759  0.7883406664511483  1.0000
  C   C7        1.0  0.5896042834132303  0.2942441369465029  0.2640289750806346  1.0000
  C   C8        1.0  0.4103970781293427  0.7057519207455981  0.7359711856050595  1.0000
  C   C9        1.0  0.5311756507797369  0.22987848897755464  0.41244504084026806  1.0000
  C   C10       1.0  0.4688289411363942  0.7701201507263276  0.5875540055217955  1.0000
  C   C11       1.0  0.37698029213558465  0.33544813416643376  0.5013543290630267  1.0000
  C   C12       1.0  0.623023837278815  0.6645479474226618  0.49864745140459377  1.0000
  C   C13       1.0  0.7488933785405791  0.18721571783256508  0.15929790341845526  1.0000
  C   C14       1.0  0.2511162604710436  0.8127765375551731  0.8407046391770905  1.0000
  C   C15       1.0  0.574569438080431  0.9214984256489271  0.03661994798684998  1.0000
  C   C16       1.0  0.42544025313468836  0.0785054056353403  0.9633825061813539  1.0000
  N   N1        1.0  0.34890702782640654  0.5670270924913153  0.2972917348158717  1.0000
  N   N2        1.0  0.6510897305612602  0.43297021889897974  0.7027069101755004  1.0000
  O   O1        1.0  0.0451908109839821  0.5862999386183032  0.6555683938879895  1.0000
  O   O2        1.0  0.9548179476424039  0.41370259117376657  0.34443233641069065  1.0000
  O   O3        1.0  0.07716212363501995  0.7856031809105843  0.45652592885750926  1.0000
  O   O4        1.0  0.9228282299569913  0.21440054893690064  0.5434759307444993  1.0000
  O   O5        1.0  0.7382168063290421  0.22612983164113837  0.02144986471797954  1.0000
  O   O6        1.0  0.2617822798271519  0.7738688129425029  0.9785545372060582  1.0000
  O   O7        1.0  0.8803162536573979  0.0652694257701825  0.21507409835856342  1.0000
  O   O8        1.0  0.11969383286410813  0.9347253613954648  0.7849214125685222  1.0000
  O   O9        1.0  0.5086792066490702  0.8298797904404507  0.14783376956220454  1.0000
  O   O10       1.0  0.4913272839975349  0.17012916731743388  0.8521683074570987  1.0000
  O   O11       1.0  0.7527637340376072  0.8979729618009742  0.9781927617417453  1.0000
  O   O12       1.0  0.24724774766370666  0.1020218570658287  0.021806782248482585  1.0000
  O   O13       1.0  0.2066454769160018  0.06617788066465378  0.33552845592074476  1.0000
  O   O14       1.0  0.7933536203947611  0.9338246115774638  0.6644741258762962  1.0000
  O   O15       1.0  0.9633400985746478  0.7197389395326466  0.20029032289773605  1.0000
  O   O16       1.0  0.03664885608959882  0.28026475202945983  0.7997064292504064  1.0000
