data_image0
_chemical_formula_structural       MnH24C36S4N12Cl2
_chemical_formula_sum              "Mn1 H24 C36 S4 N12 Cl2"
_cell_length_a       8.09611530528186
_cell_length_b       10.08922705189508
_cell_length_c       11.756573225675094
_cell_angle_alpha    99.74764453443822
_cell_angle_beta     107.38457231292918
_cell_angle_gamma    96.00259474485696

_space_group_name_H-M_alt    "P 1"
_space_group_IT_number       1

loop_
  _space_group_symop_operation_xyz
  'x, y, z'

loop_
  _atom_site_type_symbol
  _atom_site_label
  _atom_site_symmetry_multiplicity
  _atom_site_fract_x
  _atom_site_fract_y
  _atom_site_fract_z
  _atom_site_occupancy
  Mn  Mn1       1.0  0.49999869384522805  2.3831950809922183e-07  0.4999986515986663  1.0000
  H   H1        1.0  0.32245088604529554  0.7459143439498347  0.553980358461871  1.0000
  H   H2        1.0  0.6775492155849604  0.2540869543764472  0.4460148376247944  1.0000
  H   H3        1.0  0.34151292286399837  0.39555899094634134  0.2948173473199134  1.0000
  H   H4        1.0  0.6584984482903521  0.6044403020479479  0.7051849427628198  1.0000
  H   H5        1.0  0.10873234826258478  0.8992383319417456  0.3743948911062063  1.0000
  H   H6        1.0  0.8912707161328439  0.1007641186320711  0.6256129693361745  1.0000
  H   H7        1.0  0.4796194015312734  0.5567294461111062  0.19542023867758473  1.0000
  H   H8        1.0  0.520385479176518  0.4432698412462058  0.8045790435749326  1.0000
  H   H9        1.0  0.5339518626909765  0.8052337493703804  0.28216151200076217  1.0000
  H   H10       1.0  0.46604953258562887  0.19476754613181413  0.7178339439526625  1.0000
  H   H11       1.0  0.18372040414556778  0.282305855398441  0.3634237460698699  1.0000
  H   H12       1.0  0.8162814754981722  0.7176975188060623  0.6365754971705402  1.0000
  H   H13       1.0  0.8660520105252585  0.9502680790303799  0.21146427462542047  1.0000
  H   H14       1.0  0.13395228802814776  0.04972821869673541  0.7885404319235649  1.0000
  H   H15       1.0  0.937071524985235  0.10344289894083401  0.07494495729132201  1.0000
  H   H16       1.0  0.0629301156797055  0.8965472445331456  0.9250549615157767  1.0000
  H   H17       1.0  0.053612007573079296  0.1519716261638848  0.4874002129807878  1.0000
  H   H18       1.0  0.9463808054388066  0.8480317579305497  0.5125963569441156  1.0000
  H   H19       1.0  0.4820415202687228  0.13770144880913898  0.2868919074252645  1.0000
  H   H20       1.0  0.5179595350370717  0.862297896414013  0.7131108664681279  1.0000
  H   H21       1.0  0.540866410246359  0.18304127050539878  0.1305764076535354  1.0000
  H   H22       1.0  0.4591327327317173  0.8169672496548799  0.8694263987147011  1.0000
  H   H23       1.0  0.5931380216093202  0.32483065859560156  0.9855655916190146  1.0000
  H   H24       1.0  0.4068537510472012  0.6751737775527857  0.01443346633085704  1.0000
  C   C1        1.0  0.358205793230546  0.7008932707589397  0.47577732312235815  1.0000
  C   C2        1.0  0.6417930369681811  0.2991080501488668  0.5242193215940105  1.0000
  C   C3        1.0  0.23367352012429876  0.4740232474442649  0.49543174131306233  1.0000
  C   C4        1.0  0.7663305290894584  0.5259781016820284  0.5045693598632256  1.0000
  C   C5        1.0  0.3632185305135351  0.5050198983768368  0.32958175322811917  1.0000
  C   C6        1.0  0.6367889485943649  0.49497939321101103  0.6704189030061302  1.0000
  C   C7        1.0  0.13546092981129482  0.966346034731771  0.31660768734241873  1.0000
  C   C8        1.0  0.8645429549707655  0.0336543441943533  0.6833974999279633  1.0000
  C   C9        1.0  0.4391654062737799  0.5938219959660811  0.27389946317006064  1.0000
  C   C10       1.0  0.5608433553730591  0.4061772829189537  0.7261005986827131  1.0000
  C   C11       1.0  0.4716562686032261  0.7331298711144073  0.32194106184908833  1.0000
  C   C12       1.0  0.5283477250734875  0.2668714286183159  0.6780557680860683  1.0000
  C   C13       1.0  0.319023031650694  0.5596917184740775  0.4322847562814189  1.0000
  C   C14       1.0  0.6809820579184347  0.4403085785982555  0.5677138568699007  1.0000
  C   C15       1.0  0.17413640350240198  0.3340017283382366  0.4494313155912408  1.0000
  C   C16       1.0  0.8258639514188315  0.6660006192179182  0.5505666283871449  1.0000
  C   C17       1.0  0.00030953045362033387  0.9940904498806448  0.22299577572211154  1.0000
  C   C18       1.0  0.9996939143909456  0.0059078898580225015  0.7770090412541963  1.0000
  C   C19       1.0  0.038602204491788  0.077436849100657  0.14819996942170383  1.0000
  C   C20       1.0  0.9613992534779566  0.9225584050447753  0.851801469502057  1.0000
  C   C21       1.0  0.0999056313393965  0.2614926174395081  0.5175267986523765  1.0000
  C   C22       1.0  0.9000906337814527  0.7385087288739028  0.4824710348269363  1.0000
  C   C23       1.0  0.1364421638193392  0.45549588311429556  0.6561922010099438  1.0000
  C   C24       1.0  0.8635605917480759  0.5445054688360855  0.3438086402995921  1.0000
  C   C25       1.0  0.34347266338811266  0.0987173388296583  0.2661141069593072  1.0000
  C   C26       1.0  0.656528380810272  0.9012819965147829  0.7338878126858505  1.0000
  C   C27       1.0  0.21565177279409642  0.12712350152339272  0.16727001523484833  1.0000
  C   C28       1.0  0.784347988865349  0.872875846523847  0.8327324987917849  1.0000
  C   C29       1.0  0.18166167266525687  0.3401752662691493  0.9441639282140174  1.0000
  C   C30       1.0  0.8183298538563689  0.6598220298990469  0.055834093573345525  1.0000
  C   C31       1.0  0.2651546576267591  0.20912524707441094  0.0860403801891536  1.0000
  C   C32       1.0  0.7348396872637223  0.7908730729180391  0.9139592007269786  1.0000
  C   C33       1.0  0.4350668337598051  0.22774116105432543  0.07724965679273768  1.0000
  C   C34       1.0  0.564929926835589  0.7722622738401129  0.922752818221781  1.0000
  C   C35       1.0  0.4639221257377102  0.30634855110452014  0.9963642963879735  1.0000
  C   C36       1.0  0.5360728457367898  0.6936527980329855  0.0036332772245941977  1.0000
  S   S1        1.0  0.00047553031377841346  0.40621612273552904  0.8593135387202295  1.0000
  S   S2        1.0  0.9995159256120728  0.5937750135313423  0.14068021505875813  1.0000
  S   S3        1.0  0.11014424888558237  0.5495248299888047  0.7906221053619903  1.0000
  S   S4        1.0  0.8898524744362601  0.45047247464044904  0.2093786643888366  1.0000
  N   N1        1.0  0.4351632005260908  0.7877486804979269  0.42386575273494037  1.0000
  N   N2        1.0  0.5648382169653344  0.21225263476168985  0.5761314117149398  1.0000
  N   N3        1.0  0.21305057527938223  0.535484166461771  0.6005683257720024  1.0000
  N   N4        1.0  0.7869534628269717  0.4645171727858041  0.3994319211560581  1.0000
  N   N5        1.0  0.0804722150478057  0.32141176693244233  0.6226998505125111  1.0000
  N   N6        1.0  0.9195255636881396  0.6785905961506059  0.37729842798059826  1.0000
  N   N7        1.0  0.3061194908324438  0.022758318059487703  0.34254529384478627  1.0000
  N   N8        1.0  0.6938835180259416  0.9772440831207659  0.6574582953564703  1.0000
  N   N9        1.0  0.13780866708446377  0.26652633939654885  0.018492903623886985  1.0000
  N   N10       1.0  0.8621847757162086  0.7334678824635574  0.9815042282076405  1.0000
  N   N11       1.0  0.33801861951159395  0.36331069576758784  0.9281506308959352  1.0000
  N   N12       1.0  0.6619741673341504  0.636686567940373  0.07184508801349658  1.0000
  Cl  Cl1       1.0  0.28745042455363284  0.9849682401288432  0.5989584435403756  1.0000
  Cl  Cl2       1.0  0.7125508285060888  0.015032104930611495  0.4010428070035915  1.0000
