data_image0
_chemical_formula_structural       Cu3H12C14N14O10
_chemical_formula_sum              "Cu3 H12 C14 N14 O10"
_cell_length_a       6.566725027357797
_cell_length_b       8.443086993969262
_cell_length_c       11.832242677096895
_cell_angle_alpha    73.22960189349104
_cell_angle_beta     89.1326590924582
_cell_angle_gamma    72.42386599183801

_space_group_name_H-M_alt    "P 1"
_space_group_IT_number       1

loop_
  _space_group_symop_operation_xyz
  'x, y, z'

loop_
  _atom_site_type_symbol
  _atom_site_label
  _atom_site_symmetry_multiplicity
  _atom_site_fract_x
  _atom_site_fract_y
  _atom_site_fract_z
  _atom_site_occupancy
  Cu  Cu1       1.0  6.131458698626884e-05  0.49950786442880013  0.4999685230121998  1.0000
  Cu  Cu2       1.0  0.6346816870328381  0.8031840435302301  0.537397959739856  1.0000
  Cu  Cu3       1.0  0.36495190037614844  0.1970495126189817  0.4625937321317864  1.0000
  H   H1        1.0  0.6447393941199451  0.6175242203138965  0.9042068003210203  1.0000
  H   H2        1.0  0.35525125397097673  0.38254532959032156  0.09574469921651745  1.0000
  H   H3        1.0  0.6765338022864783  0.4621398584381211  0.1221826308460408  1.0000
  H   H4        1.0  0.3235404998124097  0.5380048999812744  0.8777779840998504  1.0000
  H   H5        1.0  0.1844207463465466  0.0324606137843091  0.0698802504598461  1.0000
  H   H6        1.0  0.8157503499691642  0.9676996555239298  0.9301256314506646  1.0000
  H   H7        1.0  0.1514797550788388  0.18794487251700076  0.8526137841001147  1.0000
  H   H8        1.0  0.848617734083355  0.8121415017426941  0.14737665141835526  1.0000
  H   H9        1.0  0.026430111270876508  0.8692678326177585  0.41774379056659683  1.0000
  H   H10       1.0  0.9734598965858936  0.1306741426993412  0.5823341766260057  1.0000
  H   H11       1.0  0.07180102837936878  0.814679826054679  0.5576842280718353  1.0000
  H   H12       1.0  0.9281202475754781  0.1851772463181547  0.4423817444355223  1.0000
  C   C1        1.0  0.8679926892746297  0.5012919305627932  0.7351799404413555  1.0000
  C   C2        1.0  0.1318293370025856  0.49854717067821513  0.2647280630481106  1.0000
  C   C3        1.0  0.8912778534345022  0.4093920980460624  0.8656398552638862  1.0000
  C   C4        1.0  0.10865589641382914  0.5906468331151089  0.1342969340222737  1.0000
  C   C5        1.0  0.7594481732305951  0.4885829272210529  0.9411586924991013  1.0000
  C   C6        1.0  0.24055364122526154  0.5114775641600531  0.0587945775392598  1.0000
  C   C7        1.0  0.7764666686451064  0.403546459168915  0.061610398984029785  1.0000
  C   C8        1.0  0.22357340966682665  0.5965655302927573  0.9383660823395773  1.0000
  C   C9        1.0  0.9266820802279766  0.23818191981942502  0.1045878699413549  1.0000
  C   C10       1.0  0.0733649892383427  0.7619055876769352  0.8954199114394115  1.0000
  C   C11       1.0  0.06488311442628002  0.1587288319803406  0.0319455523966496  1.0000
  C   C12       1.0  0.9351981121655583  0.8413992393255187  0.9680413291735307  1.0000
  C   C13       1.0  0.04599884079463117  0.24598665856091634  0.911571053898669  1.0000
  C   C14       1.0  0.9540215587511087  0.7541134791237454  0.08841074341606973  1.0000
  N   N1        1.0  0.6774506692840632  0.6061621090532014  0.4715010429241033  1.0000
  N   N2        1.0  0.3239290526190787  0.39468174364231606  0.5280307520116452  1.0000
  N   N3        1.0  0.5948664714772461  0.6226614281084224  0.3752967080280527  1.0000
  N   N4        1.0  0.4056223257115975  0.37718556523423535  0.6246766678468704  1.0000
  N   N5        1.0  0.516524645559862  0.6325465494047791  0.2855210926851727  1.0000
  N   N6        1.0  0.48340065735879273  0.366658941783257  0.7147658752819694  1.0000
  N   N7        1.0  0.5232017050933635  0.0080087049479403  0.6048264778948464  1.0000
  N   N8        1.0  0.4762696982468383  0.9921916099898169  0.395351952443967  1.0000
  N   N9        1.0  0.4852505552217465  0.989120242630932  0.7079612505059103  1.0000
  N   N10       1.0  0.5144663457026653  0.010927742472986801  0.2922444815003331  1.0000
  N   N11       1.0  0.4540187696172495  0.967438954890291  0.8071606492213022  1.0000
  N   N12       1.0  0.5459521151276618  0.03230664539695031  0.19309902961364142  1.0000
  N   N13       1.0  0.9380794302403004  0.14599585189030506  0.2296064929604142  1.0000
  N   N14       1.0  0.06193326098721014  0.8540374381192849  0.7703650781852501  1.0000
  O   O1        1.0  0.9823165510796059  0.41727198759113554  0.6710571920495101  1.0000
  O   O2        1.0  0.01750499932224865  0.5824602800168108  0.3288903845786066  1.0000
  O   O3        1.0  0.738901317532452  0.6558257642079397  0.7008566204603853  1.0000
  O   O4        1.0  0.2609135336037341  0.3439945101879331  0.29900476169013507  1.0000
  O   O5        1.0  0.06127362195444155  0.9940020245542983  0.2667975381847967  1.0000
  O   O6        1.0  0.9387757498625007  0.006045680727631003  0.7331518842802894  1.0000
  O   O7        1.0  0.8214472321824502  0.22296977948643357  0.2941200398511512  1.0000
  O   O8        1.0  0.17849550098906525  0.7769626540639931  0.7058831697940279  1.0000
  O   O9        1.0  0.989340393449133  0.8023360212888663  0.4937992542544194  1.0000
  O   O10       1.0  0.010274315576062091  0.1978353079637927  0.506259141030398  1.0000
