data_image0
_chemical_formula_structural       Cd4H24C36S8N24
_chemical_formula_sum              "Cd4 H24 C36 S8 N24"
_cell_length_a       8.188392224528696
_cell_length_b       10.847610045397467
_cell_length_c       15.26268221500884
_cell_angle_alpha    90.00002333867407
_cell_angle_beta     89.99987702727923
_cell_angle_gamma    106.88281776246288

_space_group_name_H-M_alt    "P 1"
_space_group_IT_number       1

loop_
  _space_group_symop_operation_xyz
  'x, y, z'

loop_
  _atom_site_type_symbol
  _atom_site_label
  _atom_site_symmetry_multiplicity
  _atom_site_fract_x
  _atom_site_fract_y
  _atom_site_fract_z
  _atom_site_occupancy
  Cd  Cd1       1.0  0.42220343879823485  0.16123723791987743  0.13590380808856387  1.0000
  Cd  Cd2       1.0  0.5777992294514503  0.33876553080165916  0.6359030160360603  1.0000
  Cd  Cd3       1.0  0.5777985508981802  0.838764890799041  0.864096923695463  1.0000
  Cd  Cd4       1.0  0.4222003120711406  0.6612365829201822  0.36409575017088247  1.0000
  H   H1        1.0  0.818366606119895  0.43879665647310157  0.46487921675365834  1.0000
  H   H2        1.0  0.1816336246868176  0.06120311536633241  0.9648768366450752  1.0000
  H   H3        1.0  0.18162940384368645  0.561202552188746  0.5351234806119007  1.0000
  H   H4        1.0  0.8183632482480833  0.9387951374407637  0.035122584755683285  1.0000
  H   H5        1.0  0.9789484618649953  0.36177412413170634  0.34816961367434357  1.0000
  H   H6        1.0  0.0210489381738626  0.13822662646150974  0.8481700618041542  1.0000
  H   H7        1.0  0.02104913331321254  0.6382260553829369  0.651832428497613  1.0000
  H   H8        1.0  0.9789539144898286  0.8617745464023375  0.1518293595935774  1.0000
  H   H9        1.0  0.8503261726044755  0.9946409811070397  0.4835057551894478  1.0000
  H   H10       1.0  0.14967428592218107  0.5053595054823462  0.9835073270846377  1.0000
  H   H11       1.0  0.14967545596758214  0.0053601842578956  0.5164949765946574  1.0000
  H   H12       1.0  0.8503257574352433  0.4946406890298007  0.0164940598930698  1.0000
  H   H13       1.0  0.6924158875843035  0.08676908720591572  0.5921543778534826  1.0000
  H   H14       1.0  0.3075851551166693  0.41322887895133686  0.0921540641922931  1.0000
  H   H15       1.0  0.307583072401414  0.9132282172443811  0.4078463539316103  1.0000
  H   H16       1.0  0.6924146678363245  0.5867674696438884  0.9078453572064973  1.0000
  H   H17       1.0  0.19693025158936453  0.2960682919672877  0.28914438840133266  1.0000
  H   H18       1.0  0.8030703414177509  0.20393057357996008  0.7891446079991835  1.0000
  H   H19       1.0  0.8030690695207029  0.703929975836992  0.710856343383689  1.0000
  H   H20       1.0  0.19692934082071625  0.7960686575786295  0.21085415820726885  1.0000
  H   H21       1.0  0.9076491389263521  0.9151981687426627  0.35558979313655203  1.0000
  H   H22       1.0  0.09235148498461135  0.5848013960280625  0.8555901436261946  1.0000
  H   H23       1.0  0.09235507853944823  0.08480012905641841  0.6444109386456487  1.0000
  H   H24       1.0  0.9076485583782059  0.41519879848451074  0.14440862258018677  1.0000
  C   C1        1.0  0.8299084884234703  0.3411451951967805  0.4665977668693984  1.0000
  C   C2        1.0  0.17009295939578103  0.15885458358311413  0.9665967385163439  1.0000
  C   C3        1.0  0.17009119381094712  0.6588540359614897  0.5334029649155452  1.0000
  C   C4        1.0  0.8299083080546198  0.841145618428051  0.0334026828821621  1.0000
  C   C5        1.0  0.918638246143992  0.2979125958629467  0.4014446789462126  1.0000
  C   C6        1.0  0.08136383097019723  0.20208816742643176  0.9014444206145453  1.0000
  C   C7        1.0  0.08136424539129906  0.7020876136465972  0.5985567080300881  1.0000
  C   C8        1.0  0.9186362123899272  0.7979120270859282  0.09855565597749918  1.0000
  C   C9        1.0  0.9282260125091497  0.17186472478433504  0.4072542501608253  1.0000
  C   C10       1.0  0.07177567956686204  0.3281350732645337  0.9072546942937123  1.0000
  C   C11       1.0  0.07177525493720778  0.8281354772265104  0.5927471368161858  1.0000
  C   C12       1.0  0.9282255878808385  0.6718651287464182  0.09274603749046408  1.0000
  C   C13       1.0  0.8467204998106724  0.09361289272975172  0.47625002243324827  1.0000
  C   C14       1.0  0.1532796841864226  0.40638687541696344  0.9762510501639595  1.0000
  C   C15       1.0  0.15327954354809506  0.9063873017825023  0.5237507093516314  1.0000
  C   C16       1.0  0.8467215832599353  0.5936133265938822  0.023750336813044698  1.0000
  C   C17       1.0  0.7592650531177085  0.14475388424537533  0.5375466457416493  1.0000
  C   C18       1.0  0.24073499026000889  0.3552440921445452  0.037547047775  1.0000
  C   C19       1.0  0.2407342679923661  0.8552443835589122  0.4624540860433725  1.0000
  C   C20       1.0  0.7592631067611253  0.6447541681610433  0.9624536840107253  1.0000
  C   C21       1.0  0.1502197046130505  0.19152325449753252  0.2912646043507933  1.0000
  C   C22       1.0  0.8497800166999598  0.30847656621634917  0.7912661104513601  1.0000
  C   C23       1.0  0.8497799776227168  0.8084759766608441  0.7087354722413223  1.0000
  C   C24       1.0  0.15021880257257442  0.691523620797419  0.20873331094855269  1.0000
  C   C25       1.0  0.0026335664593089337  0.9953994782601184  0.32553204533317626  1.0000
  C   C26       1.0  0.9973659570808593  0.5046000887718094  0.8255326386145327  1.0000
  C   C27       1.0  0.9973685639516249  0.004599767895442101  0.6744693416431955  1.0000
  C   C28       1.0  0.002632862191674697  0.4954000982419587  0.1744667827853874  1.0000
  C   C29       1.0  0.6722773431151056  0.1335234312998281  0.9613470400926187  1.0000
  C   C30       1.0  0.3277215374265624  0.3664792167511806  0.46134406898880076  1.0000
  C   C31       1.0  0.32772478729718557  0.8664758148558319  0.03865369169091789  1.0000
  C   C32       1.0  0.6722746929562788  0.6335238378287613  0.5386533868345182  1.0000
  C   C33       1.0  0.5792833236471963  0.9584544872324585  0.26122715145613984  1.0000
  C   C34       1.0  0.42071293302838353  0.5415421956207426  0.7612251449488099  1.0000
  C   C35       1.0  0.4207183049248614  0.04154667813247671  0.7387735803279651  1.0000
  C   C36       1.0  0.5792871103371341  0.458457998892037  0.23877231087190146  1.0000
  S   S1        1.0  0.6648528289899217  0.26707679632728804  0.007339779983006199  1.0000
  S   S2        1.0  0.3351514518139923  0.2329289042023604  0.5073353064349391  1.0000
  S   S3        1.0  0.33515492002410235  0.7329244065309269  0.9926622621832378  1.0000
  S   S4        1.0  0.6648479489954158  0.7670760920829524  0.492662149386831  1.0000
  S   S5        1.0  0.6816759181225223  0.08516072026547761  0.20471592990385548  1.0000
  S   S6        1.0  0.3183218519709926  0.41483623099107103  0.7047148039924095  1.0000
  S   S7        1.0  0.3183232622730189  0.9148404301021671  0.7952841466888216  1.0000
  S   S8        1.0  0.6816786932334011  0.585162044312334  0.2952833070205756  1.0000
  N   N1        1.0  0.7522176318611216  0.2667882107820105  0.5337550664103146  1.0000
  N   N2        1.0  0.24778401233892572  0.23321073769196227  0.033754114870454495  1.0000
  N   N3        1.0  0.24778168924895272  0.7332100570222764  0.4662456653746999  1.0000
  N   N4        1.0  0.7522156698981916  0.7667884934665212  0.9662453065288261  1.0000
  N   N5        1.0  0.020993719091883592  0.1228327172142727  0.344566571606144  1.0000
  N   N6        1.0  0.9790033346509476  0.37716707119474074  0.8445679482876398  1.0000
  N   N7        1.0  0.9790047390549507  0.8771665064454055  0.6554335049866751  1.0000
  N   N8        1.0  0.020994260531310288  0.6228331083202151  0.1554321283058115  1.0000
  N   N9        1.0  0.2065860213065136  0.1105290537007733  0.2441876447514062  1.0000
  N   N10       1.0  0.7934138937792665  0.38947078229948306  0.7441879287880082  1.0000
  N   N11       1.0  0.7934136609292608  0.8894701774575963  0.7558124318407093  1.0000
  N   N12       1.0  0.2065849254946173  0.6105294047143843  0.2558108374190766  1.0000
  N   N13       1.0  0.1130474918459896  0.9860309841435325  0.2652883096575421  1.0000
  N   N14       1.0  0.886953503749318  0.5139686099486982  0.76528837787459  1.0000
  N   N15       1.0  0.8869549996893014  0.013969225366011504  0.7347130773187586  1.0000
  N   N16       1.0  0.11304617848914933  0.48603062120988477  0.23471038833185526  1.0000
  N   N17       1.0  0.6818519634276542  0.03874911634328981  0.9261343373377713  1.0000
  N   N18       1.0  0.31814533612136847  0.4612554548520791  0.42613140450869474  1.0000
  N   N19       1.0  0.3181512503603869  0.9612530198745475  0.0738650840598893  1.0000
  N   N20       1.0  0.6818524794787991  0.5387485705808644  0.5738640857353516  1.0000
  N   N21       1.0  0.5078839694325694  0.8666105891960925  0.3029721356331336  1.0000
  N   N22       1.0  0.4921100283632356  0.6333870284586355  0.8029713834855767  1.0000
  N   N23       1.0  0.49211240166209796  0.13338958282027852  0.6970272857681933  1.0000
  N   N24       1.0  0.5078877075389414  0.36661026849338896  0.19702672752888614  1.0000
