data_image0
_chemical_formula_structural       Ni2H40C28O10
_chemical_formula_sum              "Ni2 H40 C28 O10"
_cell_length_a       6.313099373413069
_cell_length_b       10.064814485170896
_cell_length_c       11.208432675615656
_cell_angle_alpha    112.73518927746042
_cell_angle_beta     90.00079445326023
_cell_angle_gamma    90.00195390984096

_space_group_name_H-M_alt    "P 1"
_space_group_IT_number       1

loop_
  _space_group_symop_operation_xyz
  'x, y, z'

loop_
  _atom_site_type_symbol
  _atom_site_label
  _atom_site_symmetry_multiplicity
  _atom_site_fract_x
  _atom_site_fract_y
  _atom_site_fract_z
  _atom_site_occupancy
  Ni  Ni1       1.0  0.6306653795583514  0.9952364884516031  0.009847784656578526  1.0000
  Ni  Ni2       1.0  0.1306655693524377  0.004738164982661902  0.9901416075343903  1.0000
  H   H1        1.0  0.5036612444371613  0.043486521460870606  0.4021822517874796  1.0000
  H   H2        1.0  0.003616996205678899  0.9565132681485697  0.5978081246359255  1.0000
  H   H3        1.0  0.6501595607889427  0.9685300029853681  0.25613801787555  1.0000
  H   H4        1.0  0.15013798620166338  0.0314686611083701  0.7438473586570993  1.0000
  H   H5        1.0  0.777424352279695  0.8750450522589407  0.4465850132715661  1.0000
  H   H6        1.0  0.2773868515768783  0.12498021780318425  0.5534058312830723  1.0000
  H   H7        1.0  0.8460642086487125  0.7897382323591561  0.2811137874370574  1.0000
  H   H8        1.0  0.346044057589971  0.2102804678819156  0.7188786835554026  1.0000
  H   H9        1.0  0.9141796475272199  0.6274718830573749  0.39863429380756804  1.0000
  H   H10       1.0  0.41412954887077547  0.3725671640301799  0.601371866895775  1.0000
  H   H11       1.0  0.8099134317505939  0.5190264061516106  0.16503253934160972  1.0000
  H   H12       1.0  0.3098832847749761  0.4809895811945284  0.8349748606079929  1.0000
  H   H13       1.0  0.7124955153747121  0.41399285809978914  0.2481190254696416  1.0000
  H   H14       1.0  0.21245079156670235  0.5860249463743942  0.7518974342601369  1.0000
  H   H15       1.0  0.5497052125404877  0.6908976159449907  0.11122747057932264  1.0000
  H   H16       1.0  0.0496941819812875  0.3090952695934491  0.8887687616297485  1.0000
  H   H17       1.0  0.2848492483325272  0.7003175976819378  0.1638258118916269  1.0000
  H   H18       1.0  0.7848357888885218  0.2996614073442316  0.836167667553802  1.0000
  H   H19       1.0  0.3312979609328083  0.43177452536700406  0.3177197831936525  1.0000
  H   H20       1.0  0.8312479632626334  0.5682245006923523  0.6822934073015432  1.0000
  H   H21       1.0  0.1542194262445591  0.5447685715142614  0.2779781638368988  1.0000
  H   H22       1.0  0.6541787374195279  0.4552139191032299  0.7220292492380268  1.0000
  H   H23       1.0  0.2593332859821942  0.6580155881048598  0.511538301259435  1.0000
  H   H24       1.0  0.7592706619977247  0.34198673789251194  0.4884685364812285  1.0000
  H   H25       1.0  0.19156501572934562  0.8248669836815595  0.39882285432177167  1.0000
  H   H26       1.0  0.691531797725858  0.17511823687550537  0.6011696418179397  1.0000
  H   H27       1.0  0.3956533733344187  0.8925173689224056  0.5161438788062966  1.0000
  H   H28       1.0  0.8956137941945881  0.1074912527270797  0.4838506819364667  1.0000
  H   H29       1.0  0.6388305228635501  0.7255943507373744  0.5686201612283385  1.0000
  H   H30       1.0  0.13877135913633507  0.2744407617933859  0.43138411737131577  1.0000
  H   H31       1.0  0.6110615314932699  0.5359886497685835  0.48773808826368276  1.0000
  H   H32       1.0  0.11099235759738237  0.4640438719002234  0.5122803123452472  1.0000
  H   H33       1.0  0.24857589341389286  0.4545387431102128  0.0437685563366017  1.0000
  H   H34       1.0  0.7485536567427925  0.5454353950950409  0.9562382078907917  1.0000
  H   H35       1.0  0.5178719143131757  0.4285631988230351  0.9947535340492096  1.0000
  H   H36       1.0  0.017855110133844197  0.5714270471868589  0.0052532137626145215  1.0000
  H   H37       1.0  0.891784683686289  0.1805214992306716  0.1700496449062783  1.0000
  H   H38       1.0  0.3917651951215077  0.8194515153960185  0.8299333673715238  1.0000
  H   H39       1.0  0.9899310389261655  0.043378183746760605  0.20662637590074703  1.0000
  H   H40       1.0  0.48990911356315076  0.9566048341820449  0.7933668708401173  1.0000
  C   C1        1.0  0.3205577446849759  0.9825014567967544  0.23030985993052167  1.0000
  C   C2        1.0  0.8205407105095472  0.0174931514645564  0.7696847833229014  1.0000
  C   C3        1.0  0.5043963263139515  0.957676391624503  0.30470061874682847  1.0000
  C   C4        1.0  0.004370881877271399  0.04232340628063012  0.6952906565479395  1.0000
  C   C5        1.0  0.5073144647499034  0.8100818363957674  0.31790507385057515  1.0000
  C   C6        1.0  0.0072898131067873  0.18992015303604157  0.6820887651601737  1.0000
  C   C7        1.0  0.734617652409362  0.7860942198103873  0.3555176848915736  1.0000
  C   C8        1.0  0.23458583805707892  0.21392287947756472  0.6444772289966636  1.0000
  C   C9        1.0  0.7515243148168833  0.6414402573890216  0.3703225287683196  1.0000
  C   C10       1.0  0.2514787391552744  0.35858460303496303  0.6296832082042627  1.0000
  C   C11       1.0  0.6977891057309902  0.5194133414768631  0.24049016044664748  1.0000
  C   C12       1.0  0.19775009217786274  0.480601035257152  0.7595196755860415  1.0000
  C   C13       1.0  0.4698108922480769  0.5385600053274332  0.20067851820426344  1.0000
  C   C14       1.0  0.9697780334451875  0.46143778347645564  0.799328700567571  1.0000
  C   C15       1.0  0.4496714765657329  0.6865457304837719  0.18998458432316312  1.0000
  C   C16       1.0  0.9496503810370454  0.31344748512036363  0.8100120147810729  1.0000
  C   C17       1.0  0.31830535197524756  0.5360207024986752  0.3072527479544506  1.0000
  C   C18       1.0  0.8182612565240246  0.4639738360279466  0.6927561344375732  1.0000
  C   C19       1.0  0.3710521928501648  0.6595783174169014  0.43641551563126774  1.0000
  C   C20       1.0  0.8710014297248491  0.34042668834843687  0.5635901491174877  1.0000
  C   C21       1.0  0.35446083837780407  0.8057298686023987  0.423292929069767  1.0000
  C   C22       1.0  0.8544236559836448  0.19426953504858352  0.5767026673436888  1.0000
  C   C23       1.0  0.5977298668421085  0.6390608925362785  0.4755196916817326  1.0000
  C   C24       1.0  0.09767308692737937  0.3609639167039163  0.5244888132174452  1.0000
  C   C25       1.0  0.4049467458484131  0.42481854190824464  0.06826370693840292  1.0000
  C   C26       1.0  0.9049214270732191  0.5751675340324314  0.9317444488983  1.0000
  C   C27       1.0  0.39260374386247315  0.2689058162627376  0.05367352311247233  1.0000
  C   C28       1.0  0.8925744959892297  0.7310779358719728  0.9463310826887081  1.0000
  O   O1        1.0  0.3599265566522759  0.9858943802647461  0.11862556986444875  1.0000
  O   O2        1.0  0.8599192721467472  0.014083556451765799  0.8813625660121218  1.0000
  O   O3        1.0  0.1347910157182142  0.00012010614483419991  0.2779283118588793  1.0000
  O   O4        1.0  0.6347656881940865  0.9998836920463038  0.7220712680082928  1.0000
  O   O5        1.0  0.8948955750382621  0.07572190212599143  0.1410985788496788  1.0000
  O   O6        1.0  0.3948810394140521  0.9242522202056452  0.858890188809994  1.0000
  O   O7        1.0  0.5665094436584184  0.20650647702245106  0.0575268906445459  1.0000
  O   O8        1.0  0.06648042467521979  0.7934801591058973  0.9424770611098126  1.0000
  O   O9        1.0  0.2082636700319042  0.21164353885559006  0.03339278615486311  1.0000
  O   O10       1.0  0.7082351200911176  0.7883332904412372  0.9666013287710554  1.0000
