data_image0
_chemical_formula_structural       Dy4H52C40O40
_chemical_formula_sum              "Dy4 H52 C40 O40"
_cell_length_a       6.340394363238599
_cell_length_b       13.177146821980209
_cell_length_c       17.546
_cell_angle_alpha    71.51929761973426
_cell_angle_beta     82.54052650672739
_cell_angle_gamma    88.71489783280433

_space_group_name_H-M_alt    "P 1"
_space_group_IT_number       1

loop_
  _space_group_symop_operation_xyz
  'x, y, z'

loop_
  _atom_site_type_symbol
  _atom_site_label
  _atom_site_symmetry_multiplicity
  _atom_site_fract_x
  _atom_site_fract_y
  _atom_site_fract_z
  _atom_site_occupancy
  Dy  Dy1       1.0  0.4547159549795907  0.397342011027483  0.41198521431544316  1.0000
  Dy  Dy2       1.0  0.5452801654679007  0.6026588058507869  0.5880146592369329  1.0000
  Dy  Dy3       1.0  0.5373852337706637  0.1204685365367908  0.05917894690798419  1.0000
  Dy  Dy4       1.0  0.46261394126192107  0.879529079094219  0.9408209754948872  1.0000
  H   H1        1.0  0.5525461267802214  0.0114172483490265  0.28671476277070707  1.0000
  H   H2        1.0  0.4474498986299835  0.9885811675938001  0.7132856868014412  1.0000
  H   H3        1.0  0.77493551602214  0.4798637628685539  0.7755212915531047  1.0000
  H   H4        1.0  0.22507027504616425  0.5201402552569689  0.22447508651486453  1.0000
  H   H5        1.0  0.8973149104989349  0.3258229460153927  0.4517943445141698  1.0000
  H   H6        1.0  0.10268120994855683  0.6741778708628771  0.548204389177279  1.0000
  H   H7        1.0  0.7760361279669611  0.3742954316985205  0.518204458275747  1.0000
  H   H8        1.0  0.2239599291223442  0.6257037845561157  0.4817946594288713  1.0000
  H   H9        1.0  0.5284060954864103  0.38669466264423136  0.23916726053699475  1.0000
  H   H10       1.0  0.4716010327998674  0.6133029529867784  0.7608339985437951  1.0000
  H   H11       1.0  0.5964883236031397  0.2778138408730015  0.29941231199328655  1.0000
  H   H12       1.0  0.4035060794772321  0.7221837747580082  0.7005901139995458  1.0000
  H   H13       1.0  0.22221778793057473  0.1157899136678466  0.9540073791314896  1.0000
  H   H14       1.0  0.7777846317616764  0.8842093025867968  0.0459903002214048  1.0000
  H   H15       1.0  0.1052849930574951  0.1797820460623356  0.011393081649785586  1.0000
  H   H16       1.0  0.8947157726258297  0.8202155695686741  0.9886067661303954  1.0000
  H   H17       1.0  0.3396100625751545  0.17724905916869457  0.2022769079019398  1.0000
  H   H18       1.0  0.6603971607484098  0.8227509573977585  0.797723205228614  1.0000
  H   H19       1.0  0.41459175029101664  0.2914943710341049  0.13709517340389252  1.0000
  H   H20       1.0  0.5854138190236213  0.7085040449087217  0.86290368857113  1.0000
  H   H21       1.0  0.9746177475982237  0.6263344302661267  0.25135117317026356  1.0000
  H   H22       1.0  0.025375159868694704  0.3736655863003264  0.7486490416341027  1.0000
  H   H23       1.0  0.9585206675279707  0.7364885481346022  0.38137857042661943  1.0000
  H   H24       1.0  0.041481815522473715  0.2635122687436677  0.6186198647740326  1.0000
  H   H25       1.0  0.6732926727010593  0.7578552729644272  0.2489874203398728  1.0000
  H   H26       1.0  0.3267003298031456  0.2421471445374692  0.751012788375192  1.0000
  H   H27       1.0  0.6462382325541114  0.8263939767784336  0.32200384152392303  1.0000
  H   H28       1.0  0.3537595102232204  0.173607640411646  0.6779974751905795  1.0000
  H   H29       1.0  0.9900132074028037  0.9231276658255965  0.2614801823931784  1.0000
  H   H30       1.0  0.0099891806103543  0.076870750117223  0.7385205386186513  1.0000
  H   H31       1.0  0.00929781271271681  0.8006927631600008  0.13816392023505839  1.0000
  H   H32       1.0  0.990696780442228  0.1993096543419028  0.8618362138573161  1.0000
  H   H33       1.0  0.32696003768791837  0.7171418103251739  0.19650247432007004  1.0000
  H   H34       1.0  0.673032838099907  0.2828574059294695  0.8034950828385446  1.0000
  H   H35       1.0  0.29355642832510404  0.7858189680831273  0.26962022599387575  1.0000
  H   H36       1.0  0.7064395654060078  0.2141786475478824  0.7303787057934484  1.0000
  H   H37       1.0  0.8659905506104906  0.1474510493706234  0.5527835626096972  1.0000
  H   H38       1.0  0.13401355476978694  0.8525505678194634  0.44721802554447976  1.0000
  H   H39       1.0  0.0752519787267687  0.0583051166389765  0.5871212135345588  1.0000
  H   H40       1.0  0.9247505360027689  0.9416965005511103  0.4128798793118447  1.0000
  H   H41       1.0  0.9524077104411505  0.1352823082275592  0.41479398377768467  1.0000
  H   H42       1.0  0.04758688271379441  0.8647201092743373  0.5852072901756173  1.0000
  H   H43       1.0  0.31705591599433103  0.9909020718565316  0.48203459291511297  1.0000
  H   H44       1.0  0.6829483161023262  0.0091027465808082  0.5179650873517758  1.0000
  H   H45       1.0  0.10330514726344833  0.3217677660501295  0.08658234856536495  1.0000
  H   H46       1.0  0.8966986730049699  0.6782266483336271  0.9134192578567024  1.0000
  H   H47       1.0  0.8959668928103071  0.4030394308365857  0.11127282182939519  1.0000
  H   H48       1.0  0.10403858146703733  0.5969565841707976  0.8887277560263344  1.0000
  H   H49       1.0  0.062160961172232  0.3955365075734321  0.9412944373674534  1.0000
  H   H50       1.0  0.9378460720767593  0.6044587071221343  0.05870568794170331  1.0000
  H   H51       1.0  0.6838630492165266  0.5158753935962395  0.9981758170462598  1.0000
  H   H52       1.0  0.31614080273098477  0.4841198210993269  0.0018238875778137556  1.0000
  C   C1        1.0  0.05633279278386991  0.6605141472498843  0.2895160341732605  1.0000
  C   C2        1.0  0.9436600513248552  0.3394842686929422  0.7104828548528701  1.0000
  C   C3        1.0  0.8860626779304399  0.7041631536255935  0.3400406617402538  1.0000
  C   C4        1.0  0.1139333791588584  0.2958360626290428  0.6599590258948282  1.0000
  C   C5        1.0  0.7624116795450036  0.7934091253340867  0.28444310464625017  1.0000
  C   C6        1.0  0.23758444090248793  0.2065916915441832  0.7155573388366037  1.0000
  C   C7        1.0  0.9115133245689221  0.8829912280047623  0.22609803304359838  1.0000
  C   C8        1.0  0.08848594550094903  0.1170087885616908  0.7739024532004422  1.0000
  C   C9        1.0  0.08316276358179663  0.8370173158072447  0.1769113550194347  1.0000
  C   C10       1.0  0.9168349791955279  0.162984301382842  0.8230871120427279  1.0000
  C   C11       1.0  0.2081797559784775  0.7500122171800143  0.23327521525131795  1.0000
  C   C12       1.0  0.7918146471018873  0.24998539845099538  0.7667237911587035  1.0000
  C   C13       1.0  0.18425324635570925  0.5709504517509387  0.3388997964576248  1.0000
  C   C14       1.0  0.8157412834410424  0.4290503651273241  0.6610984419260503  1.0000
  C   C15       1.0  0.7267270013950268  0.6167162828766308  0.39060420310634925  1.0000
  C   C16       1.0  0.2732692457688515  0.38328773524889936  0.6093971821415494  1.0000
  C   C17       1.0  0.7818414408573207  0.9679707374288995  0.17217532401399163  1.0000
  C   C18       1.0  0.21815464791107084  0.0320292791375536  0.827826451336378  1.0000
  C   C19       1.0  0.2425087391437373  0.922232917216725  0.12342016333192866  1.0000
  C   C20       1.0  0.7574905309261342  0.0777670993497281  0.8765797529816481  1.0000
  C   C21       1.0  0.9575054796385275  0.0794589585260823  0.5438185917656924  1.0000
  C   C22       1.0  0.042498689099943504  0.9205442592876308  0.4561820424448442  1.0000
  C   C23       1.0  0.0736500232664241  0.1112241347647753  0.45645199891868765  1.0000
  C   C24       1.0  0.9263509641705667  0.8887790830489379  0.5435493544677144  1.0000
  C   C25       1.0  0.1954389068326989  0.0164864233835686  0.4407399450181373  1.0000
  C   C26       1.0  0.8045636078968459  0.9835151938065181  0.559259438036868  1.0000
  C   C27       1.0  0.21733860330614627  0.2090822619116466  0.43865218459701794  1.0000
  C   C28       1.0  0.7826607618010116  0.790920155590257  0.5613477256272645  1.0000
  C   C29       1.0  0.3105473899296669  0.0486605589595897  0.3548359998799455  1.0000
  C   C30       1.0  0.6894580209894913  0.9513338554241599  0.6451695214327131  1.0000
  C   C31       1.0  0.024789072053856404  0.3983608079676415  0.06390217369379056  1.0000
  C   C32       1.0  0.9752164022234882  0.6016352070397417  0.9360978342314752  1.0000
  C   C33       1.0  0.929925614283114  0.4021935012484121  0.9869567725273782  1.0000
  C   C34       1.0  0.07007671037185052  0.5978033140707879  0.01304376256715753  1.0000
  C   C35       1.0  0.8164912313298205  0.5078314595463311  0.9534828673346565  1.0000
  C   C36       1.0  0.1835111566833376  0.49216695639649544  0.046515004024826064  1.0000
  C   C37       1.0  0.7880485302008965  0.3045298498725231  0.0053696363016370804  1.0000
  C   C38       1.0  0.21195532174661486  0.6954653648230433  0.9946317781138488  1.0000
  C   C39       1.0  0.727917066665178  0.5185916518954556  0.87569215279467  1.0000
  C   C40       1.0  0.2720869753569133  0.4814083646709975  0.1243052599289385  1.0000
  O   O1        1.0  0.28405345199607274  0.5098594496848676  0.3018278194833783  1.0000
  O   O2        1.0  0.7159474720827319  0.49014216750521195  0.6981710682638536  1.0000
  O   O3        1.0  0.20308740289137014  0.5536925277779687  0.4127794561482148  1.0000
  O   O4        1.0  0.7968943383412892  0.4463066884766675  0.587219763230209  1.0000
  O   O5        1.0  0.675856224478963  0.5472324108094213  0.35976100499483016  1.0000
  O   O6        1.0  0.3241398959685285  0.45276840606884855  0.640241718209893  1.0000
  O   O7        1.0  0.6462420526020696  0.6201016018529657  0.4598154259433329  1.0000
  O   O8        1.0  0.353754226240909  0.3799032165843812  0.5401846274370428  1.0000
  O   O9        1.0  0.7776393985612203  0.9728446363806427  0.0983756424602617  1.0000
  O   O10       1.0  0.22235506787733783  0.0271545798740007  0.9016246897279884  1.0000
  O   O11       1.0  0.6747113043583115  0.0346847137388551  0.19984331275708908  1.0000
  O   O12       1.0  0.3252943916727063  0.9653169034512316  0.800157630843927  1.0000
  O   O13       1.0  0.34062292740839695  0.910329879596155  0.058666185951345394  1.0000
  O   O14       1.0  0.6593747203316483  0.0896693366584884  0.9413345669219807  1.0000
  O   O15       1.0  0.2809121583446413  4.16162143679e-05  0.1477434090826222  1.0000
  O   O16       1.0  0.7190871750834233  0.9999600009757188  0.8522572630787124  1.0000
  O   O17       1.0  0.1322390803707236  0.30239861950988  0.4214157842812014  1.0000
  O   O18       1.0  0.8677603480946275  0.697605398615643  0.5785814622080281  1.0000
  O   O19       1.0  0.4165540127126519  0.2015457255522719  0.44058581318095946  1.0000
  O   O20       1.0  0.5834436667064865  0.7984542910141813  0.559413607824844  1.0000
  O   O21       1.0  0.2498765461494941  0.1238802658030167  0.2997573994640987  1.0000
  O   O22       1.0  0.750132616294863  0.8761285541934001  0.7002399570408215  1.0000
  O   O23       1.0  0.47702045231473283  0.9891125746387815  0.3455237808609011  1.0000
  O   O24       1.0  0.5229722967567129  0.0108834403685947  0.6544751142545238  1.0000
  O   O25       1.0  0.8649065359886948  0.21200820190632189  0.04013735199001898  1.0000
  O   O26       1.0  0.13509572530808361  0.7879870127892444  0.9598635671176937  1.0000
  O   O27       1.0  0.5977339940988459  0.3116542256473096  0.9899471729368229  1.0000
  O   O28       1.0  0.40227310250833176  0.6883425896718904  0.010053138289620685  1.0000
  O   O29       1.0  0.5758074852517581  0.5785366074428282  0.8532175085159821  1.0000
  O   O30       1.0  0.42419970639271304  0.4214626088118152  0.14678279662116714  1.0000
  O   O31       1.0  0.8330173448715996  0.4661008005905387  0.831619423434951  1.0000
  O   O32       1.0  0.1669931231116379  0.533900816599548  0.16837844664563315  1.0000
  O   O33       1.0  0.7523605067380288  0.3398476102568324  0.4772689505378552  1.0000
  O   O34       1.0  0.24763876333184245  0.6601524063096206  0.522729825914787  1.0000
  O   O35       1.0  0.588745693682668  0.3543020419427805  0.2913480832976773  1.0000
  O   O36       1.0  0.41125189069917684  0.6456955736882293  0.7086541934497673  1.0000
  O   O37       1.0  0.24767928510977555  0.16228242792131198  0.9869473186574069  1.0000
  O   O38       1.0  0.7523231345824755  0.8377167883333243  0.013052070486899886  1.0000
  O   O39       1.0  0.3922761900889356  0.2148941263102557  0.1439768038234917  1.0000
  O   O40       1.0  0.6077230166227494  0.7851042896325708  0.8560229265727912  1.0000
