data_image0
_chemical_formula_structural       Zn8H38C100S4Br2O32F12
_chemical_formula_sum              "Zn8 H38 C100 S4 Br2 O32 F12"
_cell_length_a       7.2911181530004825
_cell_length_b       27.735752887750177
_cell_length_c       30.29861918750082
_cell_angle_alpha    89.86131841476288
_cell_angle_beta     90.08257803901341
_cell_angle_gamma    90.04610286563337

_space_group_name_H-M_alt    "P 1"
_space_group_IT_number       1

loop_
  _space_group_symop_operation_xyz
  'x, y, z'

loop_
  _atom_site_type_symbol
  _atom_site_label
  _atom_site_symmetry_multiplicity
  _atom_site_fract_x
  _atom_site_fract_y
  _atom_site_fract_z
  _atom_site_occupancy
  Zn  Zn1       1.0  0.7055436448910443  0.4956186291250687  0.500201956059726  1.0000
  Zn  Zn2       1.0  0.3343226142691123  0.4987835877084236  0.5000677248746184  1.0000
  Zn  Zn3       1.0  0.29715929882235065  0.4974579436047364  5.591443841979958e-05  1.0000
  Zn  Zn4       1.0  0.6685210373793498  0.5006589115968153  0.00021287267443170012  1.0000
  Zn  Zn5       1.0  0.2866362484600345  0.046729689306765486  0.5002828733907732  1.0000
  Zn  Zn6       1.0  0.6579494668431779  0.0457010067234336  0.5002511364957768  1.0000
  Zn  Zn7       1.0  0.7107770585991136  0.048725700664675686  0.00042154142798269995  1.0000
  Zn  Zn8       1.0  0.340213723629617  0.0473943057688047  8.497285932659992e-05  1.0000
  H   H1        1.0  0.8145456732328072  0.5048948853837131  0.2718517714424137  1.0000
  H   H2        1.0  0.1874605145678245  0.5046506839763722  0.228393816999862  1.0000
  H   H3        1.0  0.7212772792797894  0.4940427785365102  0.12851813763177225  1.0000
  H   H4        1.0  0.7747302149936531  0.493623751679891  0.20809871936117463  1.0000
  H   H5        1.0  0.2809614181176984  0.4928488726695547  0.37174988096665357  1.0000
  H   H6        1.0  0.22737955184941686  0.4932069543203994  0.2921747980923043  1.0000
  H   H7        1.0  0.815209729929727  0.5039343166813168  0.7286204262094171  1.0000
  H   H8        1.0  0.18700368357080074  0.5033832655108837  0.7715870659971029  1.0000
  H   H9        1.0  0.7215006251762476  0.49681508747695347  0.8719293151547799  1.0000
  H   H10       1.0  0.7752386447097025  0.49690618203023706  0.7924709586348795  1.0000
  H   H11       1.0  0.28117808957845375  0.4947092153891075  0.6283335838236963  1.0000
  H   H12       1.0  0.22727854816550067  0.495613554722915  0.7077866020562877  1.0000
  H   H13       1.0  0.8106879685602948  0.2160849971269414  0.5007373502580561  1.0000
  H   H14       1.0  0.7902446374660244  0.7325758054453855  0.500072599973933  1.0000
  H   H15       1.0  0.21214260835224516  0.8110185647208608  0.500146191358432  1.0000
  H   H16       1.0  0.8183906495734234  0.8915509154725568  0.5000018393383526  1.0000
  H   H17       1.0  0.8058279647767393  0.8030575391337885  0.4999747321318536  1.0000
  H   H18       1.0  0.18307881371882936  0.6525145550168572  0.500064378880168  1.0000
  H   H19       1.0  0.19665095217581555  0.7409468493858425  0.5001018352221462  1.0000
  H   H20       1.0  0.18987625616451007  0.21829335961985658  0.0004286017054936997  1.0000
  H   H21       1.0  0.21401414933686175  0.7342266066202396  0.9932940253256459  1.0000
  H   H22       1.0  0.7883534020316675  0.8130712616913057  0.9922519477593208  1.0000
  H   H23       1.0  0.18391859574467162  0.8928494497711127  0.006392324138140298  1.0000
  H   H24       1.0  0.19835836129241366  0.804232374689519  0.007357660947768398  1.0000
  H   H25       1.0  0.8200920031603333  0.654646321319852  0.004904632709141797  1.0000
  H   H26       1.0  0.805028134149133  0.743203715898268  0.006101558538567497  1.0000
  H   H27       1.0  0.17925080136865296  0.04479207128431988  0.27147594146949666  1.0000
  H   H28       1.0  0.8096700909316399  0.0449598334376589  0.22948558550679365  1.0000
  H   H29       1.0  0.27870646067361093  0.04840789096153489  0.12802084215297063  1.0000
  H   H30       1.0  0.22173497456984856  0.0472205054197445  0.20732121361010764  1.0000
  H   H31       1.0  0.712349008141061  0.046830456215431596  0.3724009707702932  1.0000
  H   H32       1.0  0.7676453032106211  0.046672234655289885  0.2930607632685138  1.0000
  H   H33       1.0  0.18410925297521175  0.03822898976724791  0.7290854026545046  1.0000
  H   H34       1.0  0.8137399473900616  0.037971021776108706  0.7715101869707792  1.0000
  H   H35       1.0  0.2829757152463658  0.04860410700268858  0.8722728906130114  1.0000
  H   H36       1.0  0.22667127042643642  0.0471892872872957  0.7928984270693034  1.0000
  H   H37       1.0  0.7154781394657878  0.047690813684837983  0.6283050724234228  1.0000
  H   H38       1.0  0.771389690831775  0.046893319333186384  0.7077206595198006  1.0000
  C   C1        1.0  0.4610285729452955  0.5885514574074832  0.5000126907957989  1.0000
  C   C2        1.0  0.5888102787754548  0.49715043454262536  0.4169469164292748  1.0000
  C   C3        1.0  0.4420535649076599  0.4066759400502064  0.5002245140903767  1.0000
  C   C4        1.0  0.5892434767507952  0.4972446101073443  0.5833647895699129  1.0000
  C   C5        1.0  0.5431342893911761  0.5904053082473907  0.999963108983138  1.0000
  C   C6        1.0  0.41365209989855606  0.49851155661617946  0.08329560324175837  1.0000
  C   C7        1.0  0.5612871388261099  0.40854556740775644  0.00019804336869809995  1.0000
  C   C8        1.0  0.4134889133264609  0.49890267228242635  0.9169033738840892  1.0000
  C   C9        1.0  0.5388498617913201  0.9552801022319669  0.5000643753577163  1.0000
  C   C10       1.0  0.40315336161396703  0.046423551045904794  0.41704152822674684  1.0000
  C   C11       1.0  0.5409526237085772  0.13714312791437067  0.5002545611438762  1.0000
  C   C12       1.0  0.4062239206633437  0.04539498676495408  0.583570042927448  1.0000
  C   C13       1.0  0.4608458927013218  0.9569710259521002  0.0005316332816889  1.0000
  C   C14       1.0  0.5892482229589932  0.04835061546177139  0.08369662046076337  1.0000
  C   C15       1.0  0.4583728327297153  0.1390589374261211  0.999610842625948  1.0000
  C   C16       1.0  0.5926673288732689  0.0465636538561114  0.9169890646793133  1.0000
  C   C17       1.0  0.5737794854277142  0.49774550616153584  0.367827287410975  1.0000
  C   C18       1.0  0.4284376402770819  0.49859285036913537  0.13242534673160114  1.0000
  C   C19       1.0  0.7197102344037632  0.5008984168284911  0.33789936421537436  1.0000
  C   C20       1.0  0.6931488009950257  0.5017217089600193  0.29249285013860765  1.0000
  C   C21       1.0  0.2824279111201946  0.5012642280976747  0.16235138747956768  1.0000
  C   C22       1.0  0.3089404202734586  0.5017717183616738  0.20776048459541124  1.0000
  C   C23       1.0  0.6053510593498005  0.4961407898859989  0.15102643054557768  1.0000
  C   C24       1.0  0.634223219192464  0.49618779097861676  0.1961962505065386  1.0000
  C   C25       1.0  0.396843897281535  0.4952948531389295  0.34924252850223775  1.0000
  C   C26       1.0  0.3679101878204635  0.4957374708832987  0.304075026417891  1.0000
  C   C27       1.0  0.5157780335729286  0.49894739146630235  0.27433506244851447  1.0000
  C   C28       1.0  0.4863244833168211  0.4990714948642604  0.22593293326757186  1.0000
  C   C29       1.0  0.5742656024177892  0.4981632310634792  0.6324683594216365  1.0000
  C   C30       1.0  0.4283218270436749  0.4993793111212597  0.8677823066647502  1.0000
  C   C31       1.0  0.7202704819685908  0.5006393933121274  0.6625143360077244  1.0000
  C   C32       1.0  0.6935922749775828  0.5015904069188153  0.7078885116680309  1.0000
  C   C33       1.0  0.28219350921673236  0.5011193536289866  0.8377217344254148  1.0000
  C   C34       1.0  0.30874185420633893  0.5016281326120264  0.7923261755180985  1.0000
  C   C35       1.0  0.6054261677814099  0.49814727224720906  0.8493295834876091  1.0000
  C   C36       1.0  0.6344163841482527  0.49838050601292133  0.8041861261393561  1.0000
  C   C37       1.0  0.3971603470368947  0.4966377968893027  0.6509235417256743  1.0000
  C   C38       1.0  0.36806069214293313  0.4973332945491434  0.6960566575547205  1.0000
  C   C39       1.0  0.5159907402338321  0.4998043793311168  0.7259195347308205  1.0000
  C   C40       1.0  0.4863642357121949  0.5000783792392268  0.7743015816771359  1.0000
  C   C41       1.0  0.31755262017488667  0.3180107436442725  0.4999706118358771  1.0000
  C   C42       1.0  0.665177521551776  0.22474175813880487  0.5005034368892323  1.0000
  C   C43       1.0  0.450023831987032  0.353747887050339  0.5002786215431242  1.0000
  C   C44       1.0  0.5288239371122218  0.19005928453579196  0.5002287089094322  1.0000
  C   C45       1.0  0.5874326174920556  0.27147911397958774  0.5004633775770556  1.0000
  C   C46       1.0  0.3940907536603434  0.2712138385936953  0.5000892183641239  1.0000
  C   C47       1.0  0.4742364777066968  0.6421336514806195  0.500005772159632  1.0000
  C   C48       1.0  0.5271135733536951  0.9016934659103836  0.500056755686124  1.0000
  C   C49       1.0  0.6426662168225549  0.6669277319310325  0.5000067287459371  1.0000
  C   C50       1.0  0.6536154281727705  0.7168135863244771  0.5000329681062252  1.0000
  C   C51       1.0  0.35893491955088314  0.8767423579122775  0.5001142368671123  1.0000
  C   C52       1.0  0.34860708889444686  0.8268757883781104  0.5001157694123248  1.0000
  C   C53       1.0  0.6862428482150593  0.8731096900171805  0.5000154217076724  1.0000
  C   C54       1.0  0.6775690202659349  0.8230919872556511  0.500010961144497  1.0000
  C   C55       1.0  0.31544188783697547  0.6708281736129603  0.5000447497724279  1.0000
  C   C56       1.0  0.32471099784526564  0.7208305199824707  0.500065894032147  1.0000
  C   C57       1.0  0.49461634182316777  0.7452437455581701  0.5000521699787441  1.0000
  C   C58       1.0  0.5078543709634218  0.7985656607786139  0.5000601615747086  1.0000
  C   C59       1.0  0.684817056998128  0.3197873030337632  0.9996410754836513  1.0000
  C   C60       1.0  0.3355559443631152  0.22678883867403238  0.00023775111318969982  1.0000
  C   C61       1.0  0.5529276645661911  0.35562251154203034  0.0001425694673712996  1.0000
  C   C62       1.0  0.4712765297529133  0.19199574453431714  0.9997975450472933  1.0000
  C   C63       1.0  0.41415368294867255  0.2734594905971974  0.0003148986875486998  1.0000
  C   C64       1.0  0.6074583539466474  0.27304813596330746  0.9997878945309108  1.0000
  C   C65       1.0  0.5298036134840203  0.6439854579787081  0.9996402829323754  1.0000
  C   C66       1.0  0.473659676455597  0.9033859543731424  0.999998037026202  1.0000
  C   C67       1.0  0.3614830471242812  0.6686156225202068  0.9966819223332448  1.0000
  C   C68       1.0  0.3500415245262191  0.7185015725661115  0.9965237795841444  1.0000
  C   C69       1.0  0.6416261821408612  0.8787322474093384  0.9963481848851213  1.0000
  C   C70       1.0  0.6527319373595047  0.8288456524460485  0.9960646574510006  1.0000
  C   C71       1.0  0.3156973004697933  0.8745778340719709  0.003563473747355797  1.0000
  C   C72       1.0  0.3252215175217615  0.8245679734254523  0.0037765149342021977  1.0000
  C   C73       1.0  0.6878793571898854  0.6728417122694735  0.0026331278397790994  1.0000
  C   C74       1.0  0.6780259883348237  0.722849441643852  0.0029708802965728994  1.0000
  C   C75       1.0  0.5082643768907148  0.7470350654081912  0.9998616655754018  1.0000
  C   C76       1.0  0.49463565625201533  0.8003337328331525  0.9999527975429099  1.0000
  C   C77       1.0  0.4190146735515088  0.04600986590931909  0.3679387548184606  1.0000
  C   C78       1.0  0.571975164806048  0.0475233660914895  0.13278955621883876  1.0000
  C   C79       1.0  0.27343920673632033  0.045423351499749694  0.3376912300630579  1.0000
  C   C80       1.0  0.3008487114767036  0.04523829369114198  0.292323046069164  1.0000
  C   C81       1.0  0.7168743709513877  0.0465020795923934  0.16321236729233135  1.0000
  C   C82       1.0  0.6884837564125377  0.0457465149668934  0.20852108070691594  1.0000
  C   C83       1.0  0.3940438233409154  0.04765331218927569  0.15085739818188415  1.0000
  C   C84       1.0  0.36318387855452994  0.04693464783107971  0.19593443289243595  1.0000
  C   C85       1.0  0.5965644274194163  0.04634420924882929  0.34968976065762536  1.0000
  C   C86       1.0  0.6264214439097346  0.046218593102793186  0.3045904907924068  1.0000
  C   C87       1.0  0.4789578369567665  0.04572294696797739  0.27451351759847836  1.0000
  C   C88       1.0  0.5100892070712747  0.04603700689872878  0.22617034496609276  1.0000
  C   C89       1.0  0.42245598605300233  0.044256064539013096  0.6326861502825023  1.0000
  C   C90       1.0  0.576000979174616  0.044978212238433485  0.867884768102442  1.0000
  C   C91       1.0  0.2773202171476684  0.041659481931823394  0.6628826459275671  1.0000
  C   C92       1.0  0.3052119014071907  0.0407000752717934  0.7082533372358099  1.0000
  C   C93       1.0  0.7208975873108658  0.041976132865485696  0.83768192644073  1.0000
  C   C94       1.0  0.6927802789744889  0.04070951107352269  0.7923313241325541  1.0000
  C   C95       1.0  0.39831860222641075  0.046445786792659795  0.8496013476742872  1.0000
  C   C96       1.0  0.36775932550470014  0.045439568866029796  0.804506319365238  1.0000
  C   C97       1.0  0.6000447735778351  0.045785754036124594  0.6509875856433919  1.0000
  C   C98       1.0  0.630347072319104  0.045118304406358306  0.6961054357907982  1.0000
  C   C99       1.0  0.48332502376774766  0.0426435627325077  0.7261182170689294  1.0000
  C   C100      1.0  0.5146671135246522  0.0427216121322829  0.7744694193857523  1.0000
  S   S1        1.0  0.6693416548521469  0.32959841645945426  0.5008224307345016  1.0000
  S   S2        1.0  0.30694034734526815  0.21369242772986036  0.4999003223589326  1.0000
  S   S3        1.0  0.3332129624693536  0.3316298214973158  0.0008789462056810999  1.0000
  S   S4        1.0  0.6935745839638089  0.21546582942100656  0.9994304646866322  1.0000
  Br  Br1       1.0  0.06560465212773182  0.3295587481411032  0.4994584801347982  1.0000
  Br  Br2       1.0  0.9369679929657694  0.33112974637968046  0.9987453631730855  1.0000
  O   O1        1.0  0.6103861919781368  0.5652007757820667  0.5000259994906384  1.0000
  O   O2        1.0  0.29971619253902293  0.5692718701292349  0.500014190338696  1.0000
  O   O3        1.0  0.4363117339461768  0.49769424856187766  0.4373222887817646  1.0000
  O   O4        1.0  0.7470170911072601  0.4960283693392426  0.4358072408342648  1.0000
  O   O5        1.0  0.28674138753033424  0.42867176501925985  0.5000989247721178  1.0000
  O   O6        1.0  0.5992916956342641  0.42703695063462277  0.5003073081041263  1.0000
  O   O7        1.0  0.7474267881454396  0.49608445483422503  0.5646099375343423  1.0000
  O   O8        1.0  0.43674473309406653  0.49759341532161727  0.5628752985162677  1.0000
  O   O9        1.0  0.3937897235388946  0.5670076719091027  0.0002777697010572002  1.0000
  O   O10       1.0  0.7043740630477088  0.5711442909015503  4.2497328855998636e-05  1.0000
  O   O11       1.0  0.5662430883033239  0.49931161220364106  0.0629607455773922  1.0000
  O   O12       1.0  0.25548565277713214  0.4975463408091939  0.06440205803070137  1.0000
  O   O13       1.0  0.716671292947659  0.43057970941140417  0.0001922433030400996  1.0000
  O   O14       1.0  0.40417960763822  0.4288970421076783  0.0002833068018758996  1.0000
  O   O15       1.0  0.25534197065543657  0.49778028348990927  0.9356977367425043  1.0000
  O   O16       1.0  0.5660208653788105  0.4995698597843514  0.9373739515183739  1.0000
  O   O17       1.0  0.38834438162189155  0.9781321649799535  0.5001614181469163  1.0000
  O   O18       1.0  0.6989635526353127  0.9751830634671349  0.49999214867957403  1.0000
  O   O19       1.0  0.5555496055606711  0.04680710362968907  0.43757889389262755  1.0000
  O   O20       1.0  0.24479806432486134  0.046429782936804984  0.4357333058322793  1.0000
  O   O21       1.0  0.6988307946407419  0.11636092673853678  0.5001622660278287  1.0000
  O   O22       1.0  0.38598591270605453  0.11566241071628267  0.5003843079745989  1.0000
  O   O23       1.0  0.24766482794425576  0.045715163581491  0.5648966954474232  1.0000
  O   O24       1.0  0.5584797664179534  0.046083908656726194  0.5630560162840224  1.0000
  O   O25       1.0  0.6110593689047833  0.9800337944344335  0.0014778156788110984  1.0000
  O   O26       1.0  0.3004550067452173  0.9766226182325681  0.0002028468695271986  1.0000
  O   O27       1.0  0.43723025350536915  0.04864779091457899  0.06296253670025458  1.0000
  O   O28       1.0  0.7480747935837544  0.04872112714609499  0.06528727115597377  1.0000
  O   O29       1.0  0.3004473387435809  0.11827516329633878  0.999494617836724  1.0000
  O   O30       1.0  0.6132637201836106  0.11759089416823798  0.9995754805644379  1.0000
  O   O31       1.0  0.7511075324585763  0.047214506059035  0.9357060273767741  1.0000
  O   O32       1.0  0.44038173812231224  0.04726281024091611  0.9374892764272571  1.0000
  F   F1        1.0  0.8958924560104011  0.503740564115226  0.3524663710463755  1.0000
  F   F2        1.0  0.10622284271619983  0.5039597401796455  0.14778101673235255  1.0000
  F   F3        1.0  0.8967112254323342  0.5025129469830103  0.6480924719514076  1.0000
  F   F4        1.0  0.10571133922778841  0.502640324189194  0.852126698407616  1.0000
  F   F5        1.0  0.8055168347865449  0.6432900231874541  0.5000031084733221  1.0000
  F   F6        1.0  0.19561802764496863  0.9002026792262399  0.5001600596999649  1.0000
  F   F7        1.0  0.19945982609056054  0.6447598639454526  0.9933271830077997  1.0000
  F   F8        1.0  0.803510080812018  0.9025134603450764  0.9923223148002402  1.0000
  F   F9        1.0  0.09658287883340931  0.045047729169226586  0.35191063397379435  1.0000
  F   F10       1.0  0.8940904470274591  0.04616514936081729  0.14924870606751026  1.0000
  F   F11       1.0  0.1004917272585004  0.03974412877711589  0.6486273248851473  1.0000
  F   F12       1.0  0.8977151465180101  0.03994923070436578  0.851931906463214  1.0000
