data_image0
_chemical_formula_structural       Zn2H94C78N2O14
_chemical_formula_sum              "Zn2 H94 C78 N2 O14"
_cell_length_a       13.813239966814372
_cell_length_b       15.20084237466772
_cell_length_c       14.9829976623552
_cell_angle_alpha    88.66673389755913
_cell_angle_beta     68.31889133138189
_cell_angle_gamma    88.14922043114863

_space_group_name_H-M_alt    "P 1"
_space_group_IT_number       1

loop_
  _space_group_symop_operation_xyz
  'x, y, z'

loop_
  _atom_site_type_symbol
  _atom_site_label
  _atom_site_symmetry_multiplicity
  _atom_site_fract_x
  _atom_site_fract_y
  _atom_site_fract_z
  _atom_site_occupancy
  Zn  Zn1       1.0  0.5937110145927775  0.5104653738568458  0.5062894065894595  1.0000
  Zn  Zn2       1.0  0.39897321145985387  0.5109045576382201  0.4960418438548048  1.0000
  H   H1        1.0  0.7903639703891161  0.3669717864972738  0.8883127193398366  1.0000
  H   H2        1.0  0.24469128751388777  0.30808191661712675  0.10059454876200392  1.0000
  H   H3        1.0  0.832672645372135  0.43981786035458725  0.017849851720605162  1.0000
  H   H4        1.0  0.1822288878417524  0.3670136712251518  0.9690184175276784  1.0000
  H   H5        1.0  0.5117582266351092  0.9630757075878973  0.3735266873880505  1.0000
  H   H6        1.0  0.3747954726330179  0.06700274485571357  0.627730764949071  1.0000
  H   H7        1.0  0.29715447524107225  0.4034981082588232  0.3923373263411848  1.0000
  H   H8        1.0  0.6957633421914551  0.46999787788350034  0.6497844950886602  1.0000
  H   H9        1.0  0.2072149552406586  0.613782668407687  0.5778641219235539  1.0000
  H   H10       1.0  0.7970200472625281  0.5321596385549013  0.359554916383658  1.0000
  H   H11       1.0  0.02297285986796991  0.6099871535643258  0.5835435480537186  1.0000
  H   H12       1.0  0.9841074095157154  0.5312600105131935  0.34559186947392107  1.0000
  H   H13       1.0  0.10048552328968438  0.2576780162997848  0.4666440880777928  1.0000
  H   H14       1.0  0.9793343264913191  0.3067746451839851  0.4738854870068254  1.0000
  H   H15       1.0  0.0515644811055225  0.24055767140605155  0.3740869652392291  1.0000
  H   H16       1.0  0.0713064476490217  0.3993668647077371  0.32773073689693893  1.0000
  H   H17       1.0  0.19215712108908892  0.34960896506238015  0.3163351071459388  1.0000
  H   H18       1.0  0.8923964965701644  0.3122302673438996  0.6578156271925053  1.0000
  H   H19       1.0  0.015472057758792297  0.36323145840056975  0.6190723289964737  1.0000
  H   H20       1.0  0.9420629185948075  0.3503227056478337  0.7432846840435658  1.0000
  H   H21       1.0  0.9254815663741739  0.5058313855918114  0.6924050667028467  1.0000
  H   H22       1.0  0.8041205536664081  0.45357797013787143  0.7337475348686127  1.0000
  H   H23       1.0  0.5112266125304643  0.5708244015538994  0.9106296170180102  1.0000
  H   H24       1.0  0.48524016017857013  0.6170229261252588  0.8103197713188379  1.0000
  H   H25       1.0  0.7047865111198419  0.5739398328874329  0.8063317815436265  1.0000
  H   H26       1.0  0.6715810419985078  0.6355035862870719  0.7193098550239228  1.0000
  H   H27       1.0  0.5834254542991532  0.752256330671642  0.8472113337750855  1.0000
  H   H28       1.0  0.7181907378322239  0.7382549513987016  0.8245796728108344  1.0000
  H   H29       1.0  0.6251456335174198  0.6902386157873579  0.9289812625085075  1.0000
  H   H30       1.0  0.4394926440115087  0.5526299435710486  0.1099084737049481  1.0000
  H   H31       1.0  0.4432431852764012  0.6045394065954922  0.2150331678227461  1.0000
  H   H32       1.0  0.2558335652872756  0.502777789036152  0.2151420139075597  1.0000
  H   H33       1.0  0.2595951060781659  0.5772187607989422  0.30311134133503975  1.0000
  H   H34       1.0  0.2927954511380051  0.7023139865380017  0.1792213167855508  1.0000
  H   H35       1.0  0.1725998237153874  0.6511923454969306  0.20087853135675005  1.0000
  H   H36       1.0  0.28197824480847095  0.6262261211898305  0.09528264934920119  1.0000
  H   H37       1.0  0.11047462531695372  0.5276595017828426  0.7684448133256084  1.0000
  H   H38       1.0  0.23357215995002184  0.5688643857361555  0.7558529268149528  1.0000
  H   H39       1.0  0.05164605063176001  0.5373264659576974  0.9475061315611698  1.0000
  H   H40       1.0  0.175809295610577  0.5735878299259198  0.9366846120431946  1.0000
  H   H41       1.0  0.15140394488975062  0.7102229645753865  0.8471351488249044  1.0000
  H   H42       1.0  0.05019920455223569  0.7025076502712436  0.9617738983268539  1.0000
  H   H43       1.0  0.026293240210534894  0.6749461274911112  0.8575349653091282  1.0000
  H   H44       1.0  0.8428375525051024  0.6220941266494292  0.2218244604429671  1.0000
  H   H45       1.0  0.7071224599727515  0.6241926726447815  0.2449898948699172  1.0000
  H   H46       1.0  0.8811823214628448  0.6314092645940477  0.04502594998984909  1.0000
  H   H47       1.0  0.7463775303656206  0.6345524580482829  0.06704885794701447  1.0000
  H   H48       1.0  0.7248585786988997  0.7773664467428816  0.1567129097300466  1.0000
  H   H49       1.0  0.8176086190583619  0.7872127365413916  0.037707715402923676  1.0000
  H   H50       1.0  0.8600579617211255  0.7746793806175275  0.13562657511044318  1.0000
  H   H51       1.0  0.6549195058898221  0.26874382979761435  0.6955916131500857  1.0000
  H   H52       1.0  0.5557067382155054  0.256185846371615  0.811147448409443  1.0000
  H   H53       1.0  0.7870280767107828  0.20590712962117408  0.7608280145403941  1.0000
  H   H54       1.0  0.6876920691395727  0.19246526099482952  0.8748953668066904  1.0000
  H   H55       1.0  0.5982654651187289  0.08557945209781079  0.8053981019152731  1.0000
  H   H56       1.0  0.728379321275135  0.05003799328228099  0.7846035924522783  1.0000
  H   H57       1.0  0.6968422171703497  0.09997554187796709  0.690316406154615  1.0000
  H   H58       1.0  0.49149234011979814  0.22554753196781255  0.17410155098657748  1.0000
  H   H59       1.0  0.3784394820345014  0.17921674633356585  0.1642287050487923  1.0000
  H   H60       1.0  0.3947283430443349  0.2486475611851588  0.34938585296013974  1.0000
  H   H61       1.0  0.2802928481010126  0.20786363626159235  0.34009904842741895  1.0000
  H   H62       1.0  0.3683534287235801  0.05893982064043261  0.29315251438188034  1.0000
  H   H63       1.0  0.37307049670929626  0.09187418895734821  0.4046313492513037  1.0000
  H   H64       1.0  0.4851600085742903  0.10003706772000237  0.29871331575871096  1.0000
  H   H65       1.0  0.3706556394004893  0.7596904688481274  0.2823966848523867  1.0000
  H   H66       1.0  0.3291358531385527  0.7466482137967745  0.4093029684798566  1.0000
  H   H67       1.0  0.3384903517126716  0.8540472122213386  0.3571065472512346  1.0000
  H   H68       1.0  0.5337659627776078  0.8302089026379775  0.27749559578997207  1.0000
  H   H69       1.0  0.5224753319411448  0.7238859602365579  0.3305198105229294  1.0000
  H   H70       1.0  0.17547588379252232  0.2830001845208372  0.6516600238512069  1.0000
  H   H71       1.0  0.2695585575997228  0.28282060211216714  0.5322597743812312  1.0000
  H   H72       1.0  0.220604296549908  0.18142331256633784  0.590785255372559  1.0000
  H   H73       1.0  0.3056892562759118  0.2081155480006771  0.7104087226434572  1.0000
  H   H74       1.0  0.3502312361323873  0.310056495065801  0.6538495217854392  1.0000
  H   H75       1.0  0.320049581943799  0.7267263968850415  0.699724368521416  1.0000
  H   H76       1.0  0.3495570784096884  0.7098601956412837  0.8051048331843518  1.0000
  H   H77       1.0  0.3293830648348717  0.818608486644557  0.7672771157719255  1.0000
  H   H78       1.0  0.50995924195891  0.6904272191055086  0.6586438898249583  1.0000
  H   H79       1.0  0.5208755198003557  0.781334515791002  0.7244152076459187  1.0000
  H   H80       1.0  0.6509389270365277  0.18297353824411292  0.24191398603731779  1.0000
  H   H81       1.0  0.5770807037983801  0.28211204211134344  0.2810718707870166  1.0000
  H   H82       1.0  0.7116597559457817  0.2867293088037072  0.2094129102774289  1.0000
  H   H83       1.0  0.6810963628066914  0.31574654200738195  0.3812762886312911  1.0000
  H   H84       1.0  0.7569998968346995  0.21895823890829288  0.3430781590739259  1.0000
  H   H85       1.0  0.6615930232511859  0.8403980762991167  0.6609412391273821  1.0000
  H   H86       1.0  0.7102655956684741  0.9423704226795168  0.6070928721894833  1.0000
  H   H87       1.0  0.6650143269283647  0.9297128169870064  0.734067536656994  1.0000
  H   H88       1.0  0.5361764379346212  0.0147199237479043  0.6748079280340135  1.0000
  H   H89       1.0  0.482776353684514  0.9213747110505892  0.7454459586944467  1.0000
  H   H90       1.0  0.8112365942487828  0.13331585290872283  0.4303468430389046  1.0000
  H   H91       1.0  0.7679463393644996  0.03566718460719189  0.4980023932612171  1.0000
  H   H92       1.0  0.864880967704849  0.029419825126097993  0.3804361561372573  1.0000
  H   H93       1.0  0.6915368361969882  0.9864059402287992  0.3801864759148899  1.0000
  H   H94       1.0  0.7343349396598313  0.08214696563962319  0.3100000155207567  1.0000
  C   C1        1.0  0.4880762287403401  0.6804340881555857  0.5047621213071453  1.0000
  C   C2        1.0  0.5035508626579245  0.34005274063225954  0.5006071158894726  1.0000
  C   C3        1.0  0.5755110622831056  0.5056241652816594  0.31696387382345387  1.0000
  C   C4        1.0  0.4145909988366512  0.4954769573165762  0.6848682096934907  1.0000
  C   C5        1.0  0.6112105755872437  0.4786848926885697  0.21414812643625675  1.0000
  C   C6        1.0  0.38413841295155043  0.4599855596337861  0.7855820101797661  1.0000
  C   C7        1.0  0.7507610013201074  0.4366600408946936  0.0645792173864024  1.0000
  C   C8        1.0  0.26244728330168243  0.38421430430408066  0.9268415517363238  1.0000
  C   C9        1.0  0.7188055811594863  0.4739051749658644  0.154453981907487  1.0000
  C   C10       1.0  0.28243292768947004  0.4279713105244197  0.8398886768197614  1.0000
  C   C11       1.0  0.5380133703690788  0.4478562805734825  0.1779570515737063  1.0000
  C   C12       1.0  0.4616185268211056  0.44654769524531457  0.8253383182536711  1.0000
  C   C13       1.0  0.5694608799555921  0.40290566847686893  0.08936607881861389  1.0000
  C   C14       1.0  0.44522566767027183  0.3936069036525254  0.9084849693400158  1.0000
  C   C15       1.0  0.6777180976686523  0.4030293187387741  0.029732266540243295  1.0000
  C   C16       1.0  0.34144943870035155  0.3682968995927496  0.9639139370801078  1.0000
  C   C17       1.0  0.4950621208732074  0.37542046485578595  0.04897377408445886  1.0000
  C   C18       1.0  0.5255134436891354  0.38050063032839176  0.9478985378876602  1.0000
  C   C19       1.0  0.6351064743638588  0.3704991725043527  0.8908737669385401  1.0000
  C   C20       1.0  0.39200339806905055  0.3429027977048946  0.10210450845367088  1.0000
  C   C21       1.0  0.7081609052169499  0.37736744404025313  0.9321932303424989  1.0000
  C   C22       1.0  0.3203803255448819  0.33552762192512375  0.05899999812539385  1.0000
  C   C23       1.0  0.5096760866477015  0.9207770347754687  0.43409740310319495  1.0000
  C   C24       1.0  0.4380059167685033  0.10419113034936336  0.5759352260839563  1.0000
  C   C25       1.0  0.49775861370659413  0.8305357377657216  0.42915750374782397  1.0000
  C   C26       1.0  0.4288668941830664  0.1958017969129031  0.5729990541607819  1.0000
  C   C27       1.0  0.49168411692358666  0.7787729190356032  0.5097508557993822  1.0000
  C   C28       1.0  0.5100009991101473  0.24118499813443608  0.5031303874086603  1.0000
  C   C29       1.0  0.49794947378853044  0.8156577039183334  0.5924561433569977  1.0000
  C   C30       1.0  0.5984163944186706  0.1966705030349303  0.4390539187849711  1.0000
  C   C31       1.0  0.5159235811645785  0.9064490828793623  0.5938036997927796  1.0000
  C   C32       1.0  0.6071217461975636  0.10406209277545739  0.4452711830275717  1.0000
  C   C33       1.0  0.5196000115262009  0.9596257148681956  0.5142857576496667  1.0000
  C   C34       1.0  0.524722490426818  0.0575790347743208  0.5131572855892728  1.0000
  C   C35       1.0  0.13340435184716173  0.43917952060006377  0.43198527964570144  1.0000
  C   C36       1.0  0.864126373420021  0.47824506654417587  0.5835821227333896  1.0000
  C   C37       1.0  0.23283135813053954  0.4465507730228565  0.4350417326097116  1.0000
  C   C38       1.0  0.7626820069290758  0.48254523675961986  0.5838232284089457  1.0000
  C   C39       1.0  0.18257531959064718  0.5648461332404436  0.5391191518271867  1.0000
  C   C40       1.0  0.8193710672538188  0.518732649341416  0.42116776444112963  1.0000
  C   C41       1.0  0.0815770607378496  0.5620967151457066  0.5415950738019788  1.0000
  C   C42       1.0  0.9223255704524648  0.5162214444901564  0.4140699845014594  1.0000
  C   C43       1.0  0.05534266337007671  0.4979730980579617  0.4892351523259535  1.0000
  C   C44       1.0  0.9458999723110183  0.496202122181792  0.4955527921773423  1.0000
  C   C45       1.0  0.11576951521075783  0.3701501078999456  0.3690869180426902  1.0000
  C   C46       1.0  0.058422645313491714  0.2892454170377547  0.4244138316921707  1.0000
  C   C47       1.0  0.8807934963268311  0.4544802804762966  0.6754232535473578  1.0000
  C   C48       1.0  0.936106456506579  0.36502743054192877  0.6732924539247235  1.0000
  C   C49       1.0  0.541963286794406  0.5777471565721655  0.8314070476639445  1.0000
  C   C50       1.0  0.6471037195078181  0.6210305073926322  0.7966979836930292  1.0000
  C   C51       1.0  0.643226037247729  0.7050172160589696  0.8523507956394027  1.0000
  C   C52       1.0  0.4070997282537618  0.5520018029353794  0.1893700755131604  1.0000
  C   C53       1.0  0.28953516541774604  0.5645526258925456  0.22556615598092122  1.0000
  C   C54       1.0  0.25754888235275797  0.6401915729083922  0.1723418331552224  1.0000
  C   C55       1.0  0.1671516613300739  0.5315196136534367  0.8039071264654754  1.0000
  C   C56       1.0  0.1185281396961244  0.5755973249286158  0.9013180308810862  1.0000
  C   C57       1.0  0.08480356007105883  0.6709552042517758  0.8913776360856644  1.0000
  C   C58       1.0  0.7842539115850401  0.6055244840334666  0.19172176104128613  1.0000
  C   C59       1.0  0.804750984945315  0.6537315707029164  0.096494829141534  1.0000
  C   C60       1.0  0.8016001290422425  0.753649199950516  0.10726608579599163  1.0000
  C   C61       1.0  0.6399342710431313  0.26535846372505034  0.7729160698246887  1.0000
  C   C62       1.0  0.7037609347727595  0.19190524216617888  0.7972196232792897  1.0000
  C   C63       1.0  0.6805092129616384  0.1020866668985505  0.7678682898947501  1.0000
  C   C64       1.0  0.40547631669828377  0.22588152611825757  0.20508246399746355  1.0000
  C   C65       1.0  0.3659638662222378  0.2013972689608394  0.3109653043649275  1.0000
  C   C66       1.0  0.39978311225463875  0.10782199924452837  0.3276277216876835  1.0000
  C   C67       1.0  0.48830875470552126  0.7910767988457792  0.34120114614469804  1.0000
  C   C68       1.0  0.3748417891831862  0.7877524601224266  0.3478373895692854  1.0000
  C   C69       1.0  0.332482921543729  0.2427936119141592  0.6405068178583733  1.0000
  C   C70       1.0  0.24397501315106504  0.24764613440940758  0.6015833976084367  1.0000
  C   C71       1.0  0.47946103088644076  0.7574315192927514  0.6802276041779366  1.0000
  C   C72       1.0  0.36270978561437783  0.7529838946986799  0.7418656017026919  1.0000
  C   C73       1.0  0.6785504147983944  0.24780916979455012  0.35920249940551946  1.0000
  C   C74       1.0  0.6533867095306434  0.24985947517710372  0.2674240943740074  1.0000
  C   C75       1.0  0.5407277075329091  0.942500929548885  0.675974631262676  1.0000
  C   C76       1.0  0.6504464580366333  0.9119897019859166  0.6696212885518805  1.0000
  C   C77       1.0  0.7066629037802842  0.0563595534881216  0.3841265543220871  1.0000
  C   C78       1.0  0.7928532503887099  0.06422978039178422  0.4252088330574679  1.0000
  N   N1        1.0  0.2562345238856239  0.5067647748057594  0.48752848712123154  1.0000
  N   N2        1.0  0.7411842428724995  0.5029313853930758  0.5052006653124436  1.0000
  O   O1        1.0  0.576807277256485  0.641015669949155  0.47904660389968273  1.0000
  O   O2        1.0  0.4409711474684387  0.37753600525474706  0.4661824346874043  1.0000
  O   O3        1.0  0.40037442851172506  0.6443248739919555  0.5259635906871837  1.0000
  O   O4        1.0  0.5617645448316466  0.3794298802424407  0.535027491382593  1.0000
  O   O5        1.0  0.6360488017902315  0.4833025077754201  0.3609320352353862  1.0000
  O   O6        1.0  0.35578212789380365  0.4772001307750172  0.6394673000490272  1.0000
  O   O7        1.0  0.4863896806093068  0.542996545016919  0.35539099571573735  1.0000
  O   O8        1.0  0.4998574874198027  0.5359147941818065  0.6478787089557443  1.0000
  O   O9        1.0  0.553734194820102  0.4909278883529637  0.7907990805389176  1.0000
  O   O10       1.0  0.43345954783530527  0.46768252712810465  0.2226538666048583  1.0000
  O   O11       1.0  0.1982593681747602  0.4410720295575317  0.8126331914426859  1.0000
  O   O12       1.0  0.7944580751053538  0.5109249357702551  0.18031863934425732  1.0000
  O   O13       1.0  0.6687299686947271  0.35060794167149806  0.7950045742949924  1.0000
  O   O14       1.0  0.3649543811686157  0.3131319605453554  0.19555859783795881  1.0000
