data_image0
_chemical_formula_structural       Zn2H18C20I6N2O8
_chemical_formula_sum              "Zn2 H18 C20 I6 N2 O8"
_cell_length_a       9.488881847996643
_cell_length_b       10.911660015113718
_cell_length_c       11.225692341389282
_cell_angle_alpha    83.82496498353906
_cell_angle_beta     100.30114775835094
_cell_angle_gamma    98.97088383316144

_space_group_name_H-M_alt    "P 1"
_space_group_IT_number       1

loop_
  _space_group_symop_operation_xyz
  'x, y, z'

loop_
  _atom_site_type_symbol
  _atom_site_label
  _atom_site_symmetry_multiplicity
  _atom_site_fract_x
  _atom_site_fract_y
  _atom_site_fract_z
  _atom_site_occupancy
  Zn  Zn1       1.0  0.3428233119156516  0.47991282992141754  0.4704055205002078  1.0000
  Zn  Zn2       1.0  0.6486449200897723  0.521609993903084  0.5264426067310097  1.0000
  H   H1        1.0  0.7031174849333793  0.5015421956941495  0.9196386436276921  1.0000
  H   H2        1.0  0.2813196282138009  0.9018585571620221  0.41277900761352976  1.0000
  H   H3        1.0  0.2577993551577435  0.08806032639763123  0.4728811092334126  1.0000
  H   H4        1.0  0.6989008986458458  0.8927624437475219  0.6256457256765342  1.0000
  H   H5        1.0  0.7131815057040852  0.09934392967159061  0.5700881587730037  1.0000
  H   H6        1.0  0.5534459641900539  0.06284333032138531  0.16189360624495916  1.0000
  H   H7        1.0  0.6944734712897257  0.9693502159023879  0.20409214113831095  1.0000
  H   H8        1.0  0.5428382520590062  0.921829020674437  0.09379443782540865  1.0000
  H   H9        1.0  0.5211900449786383  0.7965983293766004  0.28853423618819807  1.0000
  H   H10       1.0  0.38144593870183746  0.8899247404113809  0.25262404163093066  1.0000
  H   H11       1.0  0.37114239831042534  0.4345257787890733  0.883386379562381  1.0000
  H   H12       1.0  0.12890488601657066  0.342008451651914  0.6154599271231546  1.0000
  H   H13       1.0  0.061060068051183684  0.5174062134651577  0.4033200645652143  1.0000
  H   H14       1.0  0.854856193442394  0.3372835966350464  0.6111950246987659  1.0000
  H   H15       1.0  0.6669497160180383  0.9496941487031876  0.42403019995455776  1.0000
  H   H16       1.0  0.9316104011670134  0.5914886501066122  0.5043430376169907  1.0000
  H   H17       1.0  0.6049669967084484  0.1515051664496028  0.3672841650574838  1.0000
  H   H18       1.0  0.4187741519093535  0.0973979307201205  0.3275056505243369  1.0000
  C   C1        1.0  0.4994799642699449  0.5192716585672912  0.2666121055346267  1.0000
  C   C2        1.0  0.9195236789473566  0.4169188288712746  0.5689677389482242  1.0000
  C   C3        1.0  0.49786584603764783  0.7376885466750809  0.504241939198195  1.0000
  C   C4        1.0  0.490608922160547  0.4735495740895176  0.7304931651400819  1.0000
  C   C5        1.0  0.48885341254577236  0.25784985928059007  0.5091337500261303  1.0000
  C   C6        1.0  0.5489537738931887  0.9499807716973407  0.4017825127940853  1.0000
  C   C7        1.0  0.5157283138710511  0.08440927836456781  0.39537900630024575  1.0000
  C   C8        1.0  0.33422507824075603  0.9083523579714309  0.507364932204183  1.0000
  C   C9        1.0  0.5955320045597006  0.9252283366810657  0.6254685640658976  1.0000
  C   C10       1.0  0.4883565818104714  0.8749339770726652  0.5156557386169496  1.0000
  C   C11       1.0  0.4994964271926747  0.8934595526658882  0.2794954060746946  1.0000
  C   C12       1.0  0.4889928775969422  0.1161404254313183  0.5213516133293509  1.0000
  C   C13       1.0  0.576398938685422  0.9662749876792844  0.17956051313660734  1.0000
  C   C14       1.0  0.3398630672818612  0.0441709287283345  0.5368228253507752  1.0000
  C   C15       1.0  0.6159577204622267  0.06888719308830102  0.6114756541780793  1.0000
  C   C16       1.0  0.5966772195488942  0.48111195527387457  0.9474642431609932  1.0000
  C   C17       1.0  0.47979260058192347  0.4587722582575253  0.8613901448333721  1.0000
  C   C18       1.0  0.5914657653558351  0.47854449450021963  0.0763221327422059  1.0000
  C   C19       1.0  0.5053178072360821  0.5311081715372693  0.13273326970967494  1.0000
  C   C20       1.0  0.06635507650995008  0.4039795896495377  0.5507070958562322  1.0000
  I   I1        1.0  0.6898840327893581  0.1600274443935845  0.7800657733913566  1.0000
  I   I2        1.0  0.1698007356234754  0.7787198576591976  0.5904421466613101  1.0000
  I   I3        1.0  0.27378089057169325  0.08028910332745909  0.7070235311750395  1.0000
  I   I4        1.0  0.7480702994667964  0.3701930542583511  0.17974537347248537  1.0000
  I   I5        1.0  0.3557012312193635  0.6468116371052588  0.03587573949351248  1.0000
  I   I6        1.0  0.5409053335198452  0.8275584890075933  0.7957922208650599  1.0000
  N   N1        1.0  0.1252379706005797  0.462771764316834  0.4629721233318306  1.0000
  N   N2        1.0  0.8640460906915379  0.5178877714885175  0.538726134330652  1.0000
  O   O1        1.0  0.37601557639103333  0.4802591987924529  0.29520879760247704  1.0000
  O   O2        1.0  0.6165121107792543  0.5509004351573099  0.3373870538558278  1.0000
  O   O3        1.0  0.38323710959278395  0.6711569189941714  0.45851624426659027  1.0000
  O   O4        1.0  0.6224086247194265  0.7040481211159108  0.5346394588636868  1.0000
  O   O5        1.0  0.37086381440551713  0.47479761483393895  0.6577518308947317  1.0000
  O   O6        1.0  0.6154701788064187  0.4856935593422024  0.7002392361530808  1.0000
  O   O7        1.0  0.3662822685719717  0.2949804021931968  0.49212821943684293  1.0000
  O   O8        1.0  0.6101566682520172  0.3260035721848383  0.5096614090466502  1.0000
