data_image0
_chemical_formula_structural       Ca4H48C40O32
_chemical_formula_sum              "Ca4 H48 C40 O32"
_cell_length_a       7.746109339
_cell_length_b       9.8914999830342
_cell_length_c       15.795
_cell_angle_alpha    90.64589232411122
_cell_angle_beta     90.0
_cell_angle_gamma    90.0

_space_group_name_H-M_alt    "P 1"
_space_group_IT_number       1

loop_
  _space_group_symop_operation_xyz
  'x, y, z'

loop_
  _atom_site_type_symbol
  _atom_site_label
  _atom_site_symmetry_multiplicity
  _atom_site_fract_x
  _atom_site_fract_y
  _atom_site_fract_z
  _atom_site_occupancy
  Ca  Ca1       1.0  0.4553008285389524  0.3109119357219257  0.634054949318184  1.0000
  Ca  Ca2       1.0  0.9553079715442439  0.18908343945810205  0.3659470439907153  1.0000
  Ca  Ca3       1.0  0.544700547764883  0.6890848808376617  0.3659471807884104  1.0000
  Ca  Ca4       1.0  0.0446946957302714  0.8109113550349748  0.6340519062824798  1.0000
  H   H1        1.0  0.2758997977526506  0.47145896154135164  0.509775850588646  1.0000
  H   H2        1.0  0.7758940310511946  0.0285414688049528  0.49022427907171123  1.0000
  H   H3        1.0  0.7241028695218645  0.5285388660514913  0.49022565354354003  1.0000
  H   H4        1.0  0.2241047633112956  0.9714553477546347  0.5097734192526744  1.0000
  H   H5        1.0  0.2040495338791644  0.51231178229947  0.6013918843288053  1.0000
  H   H6        1.0  0.7040463491190607  0.9876874866729325  0.3986084903775833  1.0000
  H   H7        1.0  0.7959492604833187  0.4876840232268621  0.398609605528705  1.0000
  H   H8        1.0  0.2959459903900523  0.0123113519531657  0.601390488444963  1.0000
  H   H9        1.0  0.3620733812624054  0.24874552290297913  0.45073606336092104  1.0000
  H   H10       1.0  0.8620740694143194  0.25125591847658063  0.549264706548513  1.0000
  H   H11       1.0  0.6379331589241346  0.751259381922651  0.5492610589504212  1.0000
  H   H12       1.0  0.13792601591884332  0.7487429201495175  0.4507336391622871  1.0000
  H   H13       1.0  0.5337686080911652  0.161798684989833  0.4701716492922544  1.0000
  H   H14       1.0  0.0337705018805963  0.3382017453564785  0.5298284803681029  1.0000
  H   H15       1.0  0.46623793209536774  0.8382082419023149  0.5298248541820243  1.0000
  H   H16       1.0  0.9662308744232393  0.6617960822363713  0.4701704913171056  1.0000
  H   H17       1.0  0.9375558337958552  0.4267682585450601  0.6925929957518732  1.0000
  H   H18       1.0  0.4375628914679838  0.0732321718012443  0.30740523457325253  1.0000
  H   H19       1.0  0.0624416695959553  0.5732346242140595  0.3074060116200315  1.0000
  H   H20       1.0  0.5624436487185493  0.9267646447583431  0.6925924637511329  1.0000
  H   H21       1.0  0.8623309725785973  0.5542201217764173  0.7650919759707833  1.0000
  H   H22       1.0  0.3623406121920709  0.9457852133955243  0.23490337666568456  1.0000
  H   H23       1.0  0.1376652398425406  0.44578073891619857  0.234908283349931  1.0000
  H   H24       1.0  0.6376685099358144  0.0542166583303398  0.7650918248984127  1.0000
  H   H25       1.0  0.5020520405540836  0.33323656103833343  0.8739384114911033  1.0000
  H   H26       1.0  0.0020539343435146008  0.1667679134409923  0.1260636460538365  1.0000
  H   H27       1.0  0.4979467538083996  0.6667663217207861  0.126064394551257  1.0000
  H   H28       1.0  0.9979461509896483  0.8332359803513826  0.8739366346788915  1.0000
  H   H29       1.0  0.5687461675526464  0.16682250923679484  0.9887091723374442  1.0000
  H   H30       1.0  0.0687454794007252  0.33318499834229703  0.011292906619509302  1.0000
  H   H31       1.0  0.4312590816632138  0.8331834066220978  0.011294288228676001  1.0000
  H   H32       1.0  0.9312558969031102  0.6668199064833331  0.9887080143623027  1.0000
  H   H33       1.0  0.8562156444923374  0.0531682168443055  0.9927108875499187  1.0000
  H   H34       1.0  0.3562175382817685  0.4468362576350203  0.007291169995021101  1.0000
  H   H35       1.0  0.1437857318114979  0.9468356769480692  0.0072906594062943  1.0000
  H   H36       1.0  0.6437838380220668  0.5531686471906099  0.9927097509867906  1.0000
  H   H37       1.0  0.005875207540754  0.2664578145074401  0.7670174809844142  1.0000
  H   H38       1.0  0.5058758956926752  0.2335426158388643  0.23298391489942827  1.0000
  H   H39       1.0  0.9941261687630816  0.7335420351519133  0.23298340431070136  1.0000
  H   H40       1.0  0.49412677158183993  0.7664582448537445  0.7670157113095399  1.0000
  H   H41       1.0  0.3609205444498542  0.1006422943932037  0.8677563797653678  1.0000
  H   H42       1.0  0.8609238145431277  0.3993520697535686  0.1322456064061939  1.0000
  H   H43       1.0  0.6390769589419563  0.8993504780333624  0.13224318934489793  1.0000
  H   H44       1.0  0.1390749798193625  0.6006528350720615  0.8677584801343416  1.0000
  H   H45       1.0  0.24447240764671116  0.2405066129032818  0.8271888223719657  1.0000
  H   H46       1.0  0.7444743867693049  0.2594877512434905  0.17281189757611065  1.0000
  H   H47       1.0  0.7555276776864517  0.7594871705565396  0.17281075387563766  1.0000
  H   H48       1.0  0.2555282805052101  0.7405100763493522  0.8271858078856129  1.0000
  C   C1        1.0  0.7445092429775216  0.5531737023568937  0.6401399861036765  1.0000
  C   C2        1.0  0.24451500967897746  0.9468205114492322  0.3598559211338142  1.0000
  C   C3        1.0  0.2554792236195667  0.44681603696990635  0.3598614609298069  1.0000
  C   C4        1.0  0.755482493712833  0.053184393376398  0.6401386687305505  1.0000
  C   C5        1.0  0.822476125907933  0.4812053221251205  0.7159725430983388  1.0000
  C   C6        1.0  0.3224844745507411  0.018794097187928602  0.28402441386595717  1.0000
  C   C7        1.0  0.1775200865132049  0.5187935165009776  0.2840283350594461  1.0000
  C   C8        1.0  0.6775233566064713  0.9812047414381695  0.7159707662861267  1.0000
  C   C9        1.0  0.7483899008257995  0.3063774515706612  0.8144648503551721  1.0000
  C   C10       1.0  0.2483930855859029  0.1936250008421538  0.18553655980334582  1.0000
  C   C11       1.0  0.2516088935366909  0.6936234091219475  0.18553604207728824  1.0000
  C   C12       1.0  0.7516108726592847  0.8063778819169656  0.814463713792037  1.0000
  C   C13       1.0  0.6247988232792991  0.27990152370685456  0.8763020031338655  1.0000
  C   C14       1.0  0.12480071706873022  0.2201039618057266  0.12370006154841212  1.0000
  C   C15       1.0  0.3751999710831839  0.7200993369857542  0.12370015552208002  1.0000
  C   C16       1.0  0.8751993682644326  0.7799029650864142  0.8763008737080754  1.0000
  C   C17       1.0  0.6642715426302317  0.1875062275793979  0.9397510411142778  1.0000
  C   C18       1.0  0.1642734364196698  0.3125012799996938  0.06025167095442192  1.0000
  C   C19       1.0  0.335728542702924  0.8124986772462321  0.06025051297927322  1.0000
  C   C20       1.0  0.835726648913493  0.6875046358591916  0.939751156499959  1.0000
  C   C21       1.0  0.8244099999786982  0.1240608576921431  0.9428340159465736  1.0000
  C   C22       1.0  0.3244118937681293  0.37594664988694865  0.057170595457357413  1.0000
  C   C23       1.0  0.17558879438378486  0.8759430361002317  0.057168164121385714  1.0000
  C   C24       1.0  0.6755881915650335  0.6240582549386815  0.9428315917479396  1.0000
  C   C25       1.0  0.9485329574431918  0.1544939697182812  0.8812103004494745  1.0000
  C   C26       1.0  0.4485361422032953  0.3455084826945338  0.11879237593253582  1.0000
  C   C27       1.0  0.0514671278899712  0.8455058799410723  0.11879121795738713  1.0000
  C   C28       1.0  0.5514665250712127  0.6544933890313304  0.8812078905255163  1.0000
  C   C29       1.0  0.9116654169138911  0.24542528969166713  0.8161732131371835  1.0000
  C   C30       1.0  0.4116686016739948  0.2545751406546373  0.18382754963491982  1.0000
  C   C31       1.0  0.0883346684192716  0.7545755710009487  0.1838276792952769  1.0000
  C   C32       1.0  0.5883353565711928  0.7454247090047161  0.8161714363249646  1.0000
  C   C33       1.0  0.2414567001505148  0.1303140983778945  0.8353213386024407  1.0000
  C   C34       1.0  0.7414586792731015  0.3696802657688778  0.16468001445738173  1.0000
  C   C35       1.0  0.7585420942119756  0.8696806961151822  0.16467824478250043  1.0000
  C   C36       1.0  0.2585401150893816  0.6303185728572204  0.835320863700403  1.0000
  C   C37       1.0  0.2410487534172958  0.0580767833001374  0.7489949853526525  1.0000
  C   C38       1.0  0.7410533144812348  0.44191758084663496  0.2510063677071699  1.0000
  C   C39       1.0  0.7589448770624969  0.9419220553259607  0.2510039934699009  1.0000
  C   C40       1.0  0.2589377340572057  0.5580721584801652  0.7489969786615518  1.0000
  O   O1        1.0  0.635171772650857  0.489613074678502  0.594820121321874  1.0000
  O   O2        1.0  0.135180121293665  0.0103802784350151  0.4051774259301412  1.0000
  O   O3        1.0  0.3648244397702811  0.5103887970473622  0.40518331069490193  1.0000
  O   O4        1.0  0.8648315827755724  0.9896124939915509  0.5948164451744233  1.0000
  O   O5        1.0  0.7982265327535671  0.6709519993988806  0.6238077766217743  1.0000
  O   O6        1.0  0.2982374633377205  0.8290452475070184  0.37618751891599095  1.0000
  O   O7        1.0  0.2017748435502682  0.3290498723269907  0.37619185672453176  1.0000
  O   O8        1.0  0.7017768226728622  0.1709475249195478  0.623808251523812  1.0000
  O   O9        1.0  0.6966335955046861  0.3906956030193101  0.7497235911692999  1.0000
  O   O10       1.0  0.19663678026478953  0.1093048273269943  0.2502759053793113  1.0000
  O   O11       1.0  0.30336519885779734  0.609303235606788  0.25027602076499283  1.0000
  O   O12       1.0  0.803368468951071  0.8906950223323663  0.7497218143570878  1.0000
  O   O13       1.0  0.10453118650459463  0.0906836168257641  0.8900342884463799  1.0000
  O   O14       1.0  0.6045331656271885  0.4093168135205403  0.10996774054920883  1.0000
  O   O15       1.0  0.8954701897992408  0.9093152218003341  0.10996722282315123  1.0000
  O   O16       1.0  0.3954695016473195  0.5906840471720685  0.8900312525480134  1.0000
  O   O17       1.0  0.3113149962728699  0.12165257647735932  0.6875438270900603  1.0000
  O   O18       1.0  0.8113208483074814  0.37834178766941323  0.31245752596975523  1.0000
  O   O19       1.0  0.688664433529496  0.8783401959492068  0.3124538426849739  1.0000
  O   O20       1.0  0.1886624544069093  0.6216560399234297  0.6875458774976622  1.0000
  O   O21       1.0  0.18065843622350294  0.9402609276870493  0.7437735267160974  1.0000
  O   O22       1.0  0.680659124375417  0.5597322750858211  0.2562280713897565  1.0000
  O   O23       1.0  0.8193364852269625  0.0597247675067294  0.2562272586562884  1.0000
  O   O24       1.0  0.3193190144562692  0.4402675745735324  0.7437747132405974  1.0000
  O   O25       1.0  0.2266957414555009  0.4337231563101795  0.5624850817867186  1.0000
  O   O26       1.0  0.726689974754045  0.0662782850693802  0.43751442189923045  1.0000
  O   O27       1.0  0.7733120897017045  0.5662756823159186  0.4375170625945516  1.0000
  O   O28       1.0  0.2733114015497904  0.933720553556718  0.5624832906998307  1.0000
  O   O29       1.0  0.4362486833210966  0.2122512665096536  0.49590483477182096  1.0000
  O   O30       1.0  0.9362532443850429  0.2877491638366507  0.5040952948885363  1.0000
  O   O31       1.0  0.5637604388067887  0.7877566714157427  0.5040923089515346  1.0000
  O   O32       1.0  0.063750713860145  0.7122496747894475  0.49590305082227104  1.0000
