data_image0
_chemical_formula_structural       K4H52C72O4
_chemical_formula_sum              "K4 H52 C72 O4"
_cell_length_a       5.427711324237759
_cell_length_b       11.95900052248035
_cell_length_c       20.494415549519704
_cell_angle_alpha    89.99826424713156
_cell_angle_beta     90.00042429881731
_cell_angle_gamma    96.89322906874699

_space_group_name_H-M_alt    "P 1"
_space_group_IT_number       1

loop_
  _space_group_symop_operation_xyz
  'x, y, z'

loop_
  _atom_site_type_symbol
  _atom_site_label
  _atom_site_symmetry_multiplicity
  _atom_site_fract_x
  _atom_site_fract_y
  _atom_site_fract_z
  _atom_site_occupancy
  K   K1        1.0  0.7564710290379252  0.05822445996724209  0.4597849859815852  1.0000
  K   K2        1.0  0.2434881198509302  0.4417827915466361  0.9597783890151846  1.0000
  K   K3        1.0  0.24350101253922668  0.9418059271149344  0.540217805872615  1.0000
  K   K4        1.0  0.7564864101014805  0.558189658554454  0.04020098261514699  1.0000
  H   H1        1.0  0.09771435351322572  0.3898470959616133  0.3201186991826006  1.0000
  H   H2        1.0  0.9022867859447602  0.11016572135742558  0.8201183400056209  1.0000
  H   H3        1.0  0.9022794987745614  0.6101818514725251  0.6798860444855633  1.0000
  H   H4        1.0  0.09772653607592466  0.8898071562507679  0.17988250095897473  1.0000
  H   H5        1.0  0.3975680176920164  0.531360169597356  0.3752689845019646  1.0000
  H   H6        1.0  0.6024453068372112  0.9686476522414296  0.8752708896452931  1.0000
  H   H7        1.0  0.6024413911564679  0.4686639090513367  0.6247294160716876  1.0000
  H   H8        1.0  0.3975609824396854  0.031326827999180296  0.12472604778123748  1.0000
  H   H9        1.0  0.6545222686369526  0.4701071161651951  0.4657998639427348  1.0000
  H   H10       1.0  0.3454893388108573  0.029895525911015904  0.9658014246419101  1.0000
  H   H11       1.0  0.3454882750206849  0.5299136147542995  0.5341960969895608  1.0000
  H   H12       1.0  0.6545333314261298  0.9700866955807683  0.03419551271215229  1.0000
  H   H13       1.0  0.7335266070252544  0.29265453540040903  0.3269041011306157  1.0000
  H   H14       1.0  0.26646055086577297  0.20734452043262044  0.8268980969464153  1.0000
  H   H15       1.0  0.2664619477376177  0.707366792882887  0.6731104013863103  1.0000
  H   H16       1.0  0.7335405528740965  0.7926315826784888  0.1731056715770052  1.0000
  H   H17       1.0  0.46225799896805597  0.1704189299960319  0.252714766180091  1.0000
  H   H18       1.0  0.537745956427969  0.3295804490347933  0.7527089630337258  1.0000
  H   H19       1.0  0.537706653570048  0.8296113754020168  0.7473046155457084  1.0000
  H   H20       1.0  0.46228977675303895  0.6703851150092744  0.2472987092036405  1.0000
  H   H21       1.0  0.5592050291919363  0.9769154907039519  0.2264110076482524  1.0000
  H   H22       1.0  0.44083926793759076  0.5230980007641222  0.7264136188634467  1.0000
  H   H23       1.0  0.4407309580480643  0.0231186991627936  0.7735898323317016  1.0000
  H   H24       1.0  0.5592267336546755  0.4768712574919078  0.2735808790633029  1.0000
  H   H25       1.0  0.9301087920114737  0.9070839613884656  0.2767703104354311  1.0000
  H   H26       1.0  0.06993901897786256  0.5929291748349426  0.7767680932174841  1.0000
  H   H27       1.0  0.06982821807586248  0.0929376388177019  0.7232236985880647  1.0000
  H   H28       1.0  0.9301169678355947  0.4070450134786228  0.22321957349338817  1.0000
  H   H29       1.0  0.20978264389523815  0.0311200400216478  0.3482821874924582  1.0000
  H   H30       1.0  0.790233495278784  0.4688855320989588  0.8482716566255419  1.0000
  H   H31       1.0  0.7901831638201172  0.9688808760256503  0.6517127977441816  1.0000
  H   H32       1.0  0.20979226902802847  0.5311026041509807  0.1517121063339104  1.0000
  H   H33       1.0  0.9644432077687028  0.3808547737708707  0.49142281448468594  1.0000
  H   H34       1.0  0.035539017453778896  0.1191485965453936  0.9914217016071092  1.0000
  H   H35       1.0  0.03556012498882667  0.6191667175927761  0.5085819293033751  1.0000
  H   H36       1.0  0.9644648240867324  0.880831737097317  0.008582066864377699  1.0000
  H   H37       1.0  0.1924484963039106  0.37184739681269  0.5951911372431482  1.0000
  H   H38       1.0  0.8075462102353939  0.12815910073388173  0.0951926247700001  1.0000
  H   H39       1.0  0.8075496050988775  0.628158075573019  0.4048131188139195  1.0000
  H   H40       1.0  0.1924667352627054  0.8718381346651611  0.9048111434903915  1.0000
  H   H41       1.0  0.003898128016338403  0.26033725334826835  0.6883639977840161  1.0000
  H   H42       1.0  0.9961252925888926  0.23966643750896566  0.1883602818602057  1.0000
  H   H43       1.0  0.9960855516575008  0.7396697401716708  0.31163781853484807  1.0000
  H   H44       1.0  0.003910776541871946  0.7603268525511522  0.8116425106239332  1.0000
  H   H45       1.0  0.5789326027370976  0.1540244681708032  0.6760505415579913  1.0000
  H   H46       1.0  0.4210875673447987  0.3459811688170192  0.1760401983072626  1.0000
  H   H47       1.0  0.4210464257695961  0.8459866744425214  0.3239478591308043  1.0000
  H   H48       1.0  0.5789526186579435  0.6540054461847403  0.8239552752085685  1.0000
  H   H49       1.0  0.3414705686058497  0.171607441166671  0.5742338036445175  1.0000
  H   H50       1.0  0.6585304294808195  0.32839375902502604  0.0742224393223907  1.0000
  H   H51       1.0  0.6585215025914835  0.8284130860163472  0.42576508488070164  1.0000
  H   H52       1.0  0.34148765571227097  0.6715842115711081  0.9257740101424119  1.0000
  C   C1        1.0  0.30764923289812873  0.2146307397438889  0.43626093379038616  1.0000
  C   C2        1.0  0.6923228361839263  0.2853763906795095  0.9362530390345682  1.0000
  C   C3        1.0  0.692319714664805  0.7853937327720569  0.5637394184488754  1.0000
  C   C4        1.0  0.3076708786107503  0.7145996310713657  0.06374097071933699  1.0000
  C   C5        1.0  0.1731239708666266  0.25088300207257663  0.38057866571504917  1.0000
  C   C6        1.0  0.8268800761581759  0.24912668557210793  0.8805742393129634  1.0000
  C   C7        1.0  0.8268893105551527  0.7491419592525547  0.6194275418590891  1.0000
  C   C8        1.0  0.17311811170815616  0.7508443451070475  0.1194187946418879  1.0000
  C   C9        1.0  0.20649733908859957  0.3640405003401668  0.3609484359434774  1.0000
  C   C10       1.0  0.7934974334349717  0.13596872599233478  0.8609469455740423  1.0000
  C   C11       1.0  0.7934929968359865  0.6359892484401682  0.6390519162666664  1.0000
  C   C12       1.0  0.20651993932227694  0.8640058765045494  0.1390470642460215  1.0000
  C   C13       1.0  0.37779176352282917  0.4436605554701457  0.39084413297259596  1.0000
  C   C14       1.0  0.6222144799527456  0.0563421842147989  0.8908450982079543  1.0000
  C   C15       1.0  0.6222054931802533  0.5563583487344061  0.6091567073361048  1.0000
  C   C16       1.0  0.3777895397075852  0.9436389914902107  0.10915623056348518  1.0000
  C   C17       1.0  0.5198567368568447  0.4089254903854495  0.44175826726461037  1.0000
  C   C18       1.0  0.4801434240790526  0.09107509450065268  0.94175431161581  1.0000
  C   C19       1.0  0.4801575012612176  0.5910952811721728  0.5582459886170312  1.0000
  C   C20       1.0  0.5198567891225351  0.9088967985088915  0.0582445775849436  1.0000
  C   C21       1.0  0.4862144700347741  0.2986178397169965  0.4661956210529752  1.0000
  C   C22       1.0  0.5137771711439426  0.201386252702612  0.966190759389839  1.0000
  C   C23       1.0  0.513782832496446  0.7014187063719817  0.5338096104568066  1.0000
  C   C24       1.0  0.4862334130952135  0.7985823944399684  0.03380471431089659  1.0000
  C   C25       1.0  0.9989742726013373  0.1728492280291576  0.3415038869810729  1.0000
  C   C26       1.0  0.0010348820800630057  0.3271581132387098  0.8414999244408746  1.0000
  C   C27       1.0  0.0010055803082238378  0.8271745246327812  0.6584998808541656  1.0000
  C   C28       1.0  0.9989791524042673  0.672818132564707  0.15849554916368186  1.0000
  C   C29       1.0  0.7829127961239735  0.20954108956727416  0.3142731042706757  1.0000
  C   C30       1.0  0.21708290938458663  0.29046341042923973  0.8142705056837727  1.0000
  C   C31       1.0  0.21707188605690664  0.7904793560095911  0.6857360309347555  1.0000
  C   C32       1.0  0.7829218888556823  0.7095127334579556  0.1857303352196311  1.0000
  C   C33       1.0  0.6273621852343041  0.1400344709391348  0.2731088658299754  1.0000
  C   C34       1.0  0.3726467442380679  0.3599711836503656  0.7731074391203663  1.0000
  C   C35       1.0  0.3725917401048021  0.8599973964711862  0.7268968535950222  1.0000
  C   C36       1.0  0.6273904799882571  0.6399927167771009  0.22689388995113552  1.0000
  C   C37       1.0  0.6798612128431357  0.031045146432518295  0.2588675432995018  1.0000
  C   C38       1.0  0.32017272282021025  0.46896533323499767  0.7588673444116552  1.0000
  C   C39       1.0  0.320101414384041  0.968984296719121  0.7411391520512112  1.0000
  C   C40       1.0  0.6798568681865758  0.5310060436510113  0.24113252072995547  1.0000
  C   C41       1.0  0.888755660111066  0.9923828324801531  0.2867610621687717  1.0000
  C   C42       1.0  0.11127271669698756  0.5076256442535224  0.7867593702239191  1.0000
  C   C43       1.0  0.1112087024079713  0.007637389140143098  0.7132388021812373  1.0000
  C   C44       1.0  0.8887505540192323  0.4923507034241225  0.2132341516463825  1.0000
  C   C45       1.0  0.0464076188357723  0.0618814415598621  0.3274386954487838  1.0000
  C   C46       1.0  0.9536128976344638  0.4381272097779101  0.8274325742803441  1.0000
  C   C47       1.0  0.9535638425798395  0.9381287775409533  0.672559705237525  1.0000
  C   C48       1.0  0.04640423089883676  0.5618549507116908  0.172555580183186  1.0000
  C   C49       1.0  0.6333914474893233  0.27710712072822463  0.524849255541362  1.0000
  C   C50       1.0  0.36660269151944647  0.2228960540468989  0.024844473511052498  1.0000
  C   C51       1.0  0.3665952600754848  0.7229141873469728  0.4751520726516247  1.0000
  C   C52       1.0  0.6334070479939342  0.7770860248245484  0.9751549035082901  1.0000
  C   C53       1.0  0.8772003357856375  0.33220323250191797  0.5320777905142435  1.0000
  C   C54       1.0  0.12279595518737098  0.16780146897087886  0.0320749992981533  1.0000
  C   C55       1.0  0.12279948059304498  0.6678190601539384  0.4679269532559757  1.0000
  C   C56       1.0  0.8772099117179477  0.8321797271041759  0.9679263294766683  1.0000
  C   C57       1.0  0.007185609126544492  0.3263158619865578  0.5903598270966341  1.0000
  C   C58       1.0  0.9928208157818402  0.17368500274940152  0.0903573992944118  1.0000
  C   C59       1.0  0.9928105789045385  0.67369799000614  0.4096424770918361  1.0000
  C   C60       1.0  0.007193508778904288  0.8263013270296964  0.9096414897385897  1.0000
  C   C61       1.0  0.9017712698868077  0.2627337230910811  0.6426703710349031  1.0000
  C   C62       1.0  0.09823936741472748  0.23727010652192598  0.1426660865911629  1.0000
  C   C63       1.0  0.09820668993398125  0.737272367262406  0.3573333970360508  1.0000
  C   C64       1.0  0.901795388813127  0.7627256892950667  0.8573342661674062  1.0000
  C   C65       1.0  0.6646342640939692  0.2040501631758929  0.6357161189746066  1.0000
  C   C66       1.0  0.3353736849581209  0.29594960690682365  0.1357092320722231  1.0000
  C   C67       1.0  0.33535620408753175  0.7959627856623613  0.36428716109036685  1.0000
  C   C68       1.0  0.6646519011784733  0.7040376871068756  0.8642911207834344  1.0000
  C   C69       1.0  0.5321973366505901  0.2112036771131542  0.5777214244014388  1.0000
  C   C70       1.0  0.4678017893442288  0.28879741696192696  0.07771037732739929  1.0000
  C   C71       1.0  0.4677950907690017  0.7888185341344849  0.4222774641016541  1.0000
  C   C72       1.0  0.5322158734946638  0.7111872695286361  0.922285584107712  1.0000
  O   O1        1.0  0.27022817311580377  0.11069704756270937  0.45848441987534727  1.0000
  O   O2        1.0  0.7297294940418269  0.3893118997107336  0.9584704396258914  1.0000
  O   O3        1.0  0.729735767012535  0.889329889826058  0.5415252031387324  1.0000
  O   O4        1.0  0.27026784911262774  0.6106725627452859  0.0415225941451709  1.0000
