data_image0
_chemical_formula_structural       Zn2H32C16S4N12O4
_chemical_formula_sum              "Zn2 H32 C16 S4 N12 O4"
_cell_length_a       7.6936852451575675
_cell_length_b       7.693718916414026
_cell_length_c       12.41916881351297
_cell_angle_alpha    102.88299131167992
_cell_angle_beta     102.88264788559373
_cell_angle_gamma    101.26058828314834

_space_group_name_H-M_alt    "P 1"
_space_group_IT_number       1

loop_
  _space_group_symop_operation_xyz
  'x, y, z'

loop_
  _atom_site_type_symbol
  _atom_site_label
  _atom_site_symmetry_multiplicity
  _atom_site_fract_x
  _atom_site_fract_y
  _atom_site_fract_z
  _atom_site_occupancy
  Zn  Zn1       1.0  0.499999389771041  0.49999705502845876  0.4999984717332493  1.0000
  Zn  Zn2       1.0  0.4999990098726457  0.4999991365291125  0.9999990286626921  1.0000
  H   H1        1.0  0.5940949018025705  0.5999071153351992  0.28182986092145507  1.0000
  H   H2        1.0  0.4000886209902674  0.4058998731897248  0.21816644232646348  1.0000
  H   H3        1.0  0.4059045975566987  0.400089734866782  0.7181691823094452  1.0000
  H   H4        1.0  0.5999112480666539  0.5940983568701272  0.7818328483156376  1.0000
  H   H5        1.0  0.896083874453531  0.1153523305196416  0.17964455584915126  1.0000
  H   H6        1.0  0.8846539613994225  0.10392465812554261  0.3203567291187283  1.0000
  H   H7        1.0  0.1039240817062108  0.884651307252888  0.8203598640905124  1.0000
  H   H8        1.0  0.11535000627925025  0.896079023193451  0.6796471329596725  1.0000
  H   H9        1.0  0.271690106212347  0.6582831633623272  0.37968794286020097  1.0000
  H   H10       1.0  0.34171871044257784  0.7283148361237083  0.12031550438553748  1.0000
  H   H11       1.0  0.7283096233367131  0.3417095425358809  0.6203097416198415  1.0000
  H   H12       1.0  0.6582862170321347  0.27168745082192214  0.8796882962354143  1.0000
  H   H13       1.0  0.13901935943335533  0.45683286219295394  0.34588786823821477  1.0000
  H   H14       1.0  0.5431710543150672  0.8609833479796337  0.15411298941884155  1.0000
  H   H15       1.0  0.8609757719581453  0.5431626419122821  0.6541111721912073  1.0000
  H   H16       1.0  0.456834521992363  0.13901622344680228  0.8458856875074968  1.0000
  H   H17       1.0  0.8608372662997824  0.3651816340364036  0.4544167696409642  1.0000
  H   H18       1.0  0.634824019553065  0.1391638653465321  0.045581570719683356  1.0000
  H   H19       1.0  0.13915955449400033  0.6348152256258716  0.5455835066244104  1.0000
  H   H20       1.0  0.3651858953549692  0.8608370228206256  0.9544195164211116  1.0000
  H   H21       1.0  0.8591772703501448  0.578902459975346  0.4183618929285016  1.0000
  H   H22       1.0  0.4211013909927317  0.14082022914501374  0.08163452774128635  1.0000
  H   H23       1.0  0.14082025068271517  0.4210971202613224  0.58164208804326  1.0000
  H   H24       1.0  0.5789027163131523  0.8591738326352711  0.9183623570692416  1.0000
  H   H25       1.0  0.8921307966514223  0.3983286570424909  0.12694280212590306  1.0000
  H   H26       1.0  0.6016728322257165  0.10787217801713923  0.37305440869281614  1.0000
  H   H27       1.0  0.10787412103423578  0.6016736201178078  0.8730618009660417  1.0000
  H   H28       1.0  0.39832439742194475  0.8921261006443615  0.6269429050997954  1.0000
  H   H29       1.0  0.8784037232188028  0.5970578279734015  0.2285677342941668  1.0000
  H   H30       1.0  0.40294554399370247  0.12159449310736652  0.271428717724909  1.0000
  H   H31       1.0  0.12159553616162103  0.402943156747  0.7714334701585838  1.0000
  H   H32       1.0  0.5970536248241416  0.8784010163780921  0.7285668682108122  1.0000
  C   C1        1.0  0.7399041439591016  0.9062935407932075  0.5411427360413581  1.0000
  C   C2        1.0  0.09371368672292141  0.26010015190132674  0.9588623450748056  1.0000
  C   C3        1.0  0.2600907155059673  0.0937158250078838  0.45885661569687375  1.0000
  C   C4        1.0  0.9062957971727028  0.7399090542293791  0.04113905215471181  1.0000
  C   C5        1.0  0.5507409993272958  0.4492592332652593  0.24999954625569387  1.0000
  C   C6        1.0  0.4492601992233105  0.5507389822790929  0.7499999303401592  1.0000
  C   C7        1.0  0.815603305995843  0.42779285981992377  0.3855759752771915  1.0000
  C   C8        1.0  0.5722139872388468  0.18439791734542157  0.11442036110297941  1.0000
  C   C9        1.0  0.18439558368692843  0.5722067450426067  0.6144249817643511  1.0000
  C   C10       1.0  0.42779329804898236  0.8156030292087382  0.885577946717319  1.0000
  C   C11       1.0  0.8332291581330153  0.44587028632548  0.1974536721851051  1.0000
  C   C12       1.0  0.5541331865923597  0.1667724360529661  0.3025438509347324  1.0000
  C   C13       1.0  0.16677351920819924  0.5541334486503618  0.8025467940555726  1.0000
  C   C14       1.0  0.44586931208476704  0.833225735619884  0.6974582190278508  1.0000
  C   C15       1.0  0.83676423676733  0.16324493337821622  0.2499977844405875  1.0000
  C   C16       1.0  0.16323937100275285  0.8367573778682454  0.7500050277556195  1.0000
  S   S1        1.0  0.8737764344032329  0.11281912321850032  0.5915296566405457  1.0000
  S   S2        1.0  0.8871800329901094  0.1262199847746004  0.9084679705345307  1.0000
  S   S3        1.0  0.1262107493933087  0.8871764973356877  0.40846586065337914  1.0000
  S   S4        1.0  0.11281399651706893  0.8737811460757999  0.0915252678642631  1.0000
  N   N1        1.0  0.6438864267922  0.7532994180231541  0.5042228292393032  1.0000
  N   N2        1.0  0.2466891721839986  0.3561146771593117  0.9957806539211801  1.0000
  N   N3        1.0  0.35609214111790527  0.2466838712281714  0.49576731012577807  1.0000
  N   N4        1.0  0.7532994904031584  0.6438864628263589  0.004215853017569778  1.0000
  N   N5        1.0  0.8991383544844779  0.3669364991770082  0.2924303942862706  1.0000
  N   N6        1.0  0.6330693727969319  0.10086405996845121  0.20756727518333656  1.0000
  N   N7        1.0  0.10086465339816898  0.6330685765153491  0.7075735292495862  1.0000
  N   N8        1.0  0.3669358240237912  0.8991341218147684  0.7924319568027867  1.0000
  N   N9        1.0  0.6117769034324924  0.37061220923638427  0.3460436428623053  1.0000
  N   N10       1.0  0.6293897470768572  0.38822287710905107  0.15395372110103264  1.0000
  N   N11       1.0  0.38822200582838917  0.629387415196824  0.6539557092372518  1.0000
  N   N12       1.0  0.3706131506650864  0.6117767037776858  0.8460461888597803  1.0000
  O   O1        1.0  0.2733357634145649  0.5283002279910038  0.3724099533400319  1.0000
  O   O2        1.0  0.4717023336575538  0.7266652480628795  0.1275927545747777  1.0000
  O   O3        1.0  0.7266596177448363  0.471691151381144  0.6275861233965541  1.0000
  O   O4        1.0  0.5283032132827116  0.27333429400754033  0.8724083297645391  1.0000
