data_image0
_chemical_formula_structural       Cu12H36C96N36O48
_chemical_formula_sum              "Cu12 H36 C96 N36 O48"
_cell_length_a       10.183064347704724
_cell_length_b       19.330239925690492
_cell_length_c       19.33208529251614
_cell_angle_alpha    120.0028938995144
_cell_angle_beta     89.99868640651513
_cell_angle_gamma    89.9853174042283

_space_group_name_H-M_alt    "P 1"
_space_group_IT_number       1

loop_
  _space_group_symop_operation_xyz
  'x, y, z'

loop_
  _atom_site_type_symbol
  _atom_site_label
  _atom_site_symmetry_multiplicity
  _atom_site_fract_x
  _atom_site_fract_y
  _atom_site_fract_z
  _atom_site_occupancy
  Cu  Cu1       1.0  0.6407716176408088  0.4910620090240201  0.035104102829066626  1.0000
  Cu  Cu2       1.0  0.6407532630341777  0.5439780870592587  0.5089089975634239  1.0000
  Cu  Cu3       1.0  0.6398019111883002  0.9646242630620351  0.45578483803453224  1.0000
  Cu  Cu4       1.0  0.8592021336114543  0.5088800191916577  0.5440064808378794  1.0000
  Cu  Cu5       1.0  0.8592498983016269  0.45599928219624536  0.9649849273398491  1.0000
  Cu  Cu6       1.0  0.8602786148900208  0.03544125193248963  0.49118903757695875  1.0000
  Cu  Cu7       1.0  0.359167546579215  0.5088962393468536  0.9648817845397347  1.0000
  Cu  Cu8       1.0  0.359250709652926  0.45599851783297407  0.49110301270009427  1.0000
  Cu  Cu9       1.0  0.35916313830875174  0.03513908332786993  0.5439977575345978  1.0000
  Cu  Cu10      1.0  0.14081066357716313  0.491152176108713  0.4560151246931383  1.0000
  Cu  Cu11      1.0  0.14070496393884474  0.544012506343286  0.035062262312621335  1.0000
  Cu  Cu12      1.0  0.14085363192227623  0.9648211931973947  0.5088484190800315  1.0000
  H   H1        1.0  0.7388834371040005  0.7439316736283673  0.24092984521444563  1.0000
  H   H2        1.0  0.7390746537059413  0.49686907695315347  0.25617396460599917  1.0000
  H   H3        1.0  0.7385675749712703  0.7591986362117923  0.5030502306854318  1.0000
  H   H4        1.0  0.7610160972742648  0.256083263166822  0.4970005819333636  1.0000
  H   H5        1.0  0.7610976738759804  0.5031307073358776  0.7592914841804587  1.0000
  H   H6        1.0  0.7613335292358415  0.2408190970120005  0.7438509863114434  1.0000
  H   H7        1.0  0.2609290320552233  0.256067420003234  0.7592479960641612  1.0000
  H   H8        1.0  0.26087921867118524  0.5031729788789718  0.7438957254946957  1.0000
  H   H9        1.0  0.2612537503669614  0.24075994848125512  0.4967573959625611  1.0000
  H   H10       1.0  0.23915284129216732  0.7439332634554959  0.503204262653668  1.0000
  H   H11       1.0  0.2389946792871527  0.496851958679521  0.24072479855922793  1.0000
  H   H12       1.0  0.23878336661262275  0.7592132008439733  0.25597600681863514  1.0000
  H   H13       1.0  0.009960732022491902  0.6793118744257567  0.046377197348555006  1.0000
  H   H14       1.0  0.010326088636652702  0.36697046229239316  0.32077697297658153  1.0000
  H   H15       1.0  0.0097594594626642  0.9537575189437035  0.6326016232784469  1.0000
  H   H16       1.0  0.48992280435616203  0.32063389056941116  0.3670144316491887  1.0000
  H   H17       1.0  0.4898016874155148  0.6329721164526988  0.9537889303667058  1.0000
  H   H18       1.0  0.49019170995061506  0.046240779470558574  0.6788356612084031  1.0000
  H   H19       1.0  0.9897721748844432  0.32076488366287503  0.9537809405581613  1.0000
  H   H20       1.0  0.9896572505436938  0.6330516876983695  0.6792339893748434  1.0000
  H   H21       1.0  0.9899214109692807  0.04631033241128795  0.367167127336451  1.0000
  H   H22       1.0  0.5102648254193483  0.6792571124310812  0.6330852062141119  1.0000
  H   H23       1.0  0.5102543336262643  0.3670012252220616  0.04620667846534596  1.0000
  H   H24       1.0  0.510114748732768  0.9536688912936243  0.32086872042800985  1.0000
  H   H25       1.0  0.0250713094486343  0.9146331592563824  0.25375266794924317  1.0000
  H   H26       1.0  0.0255200844757226  0.33915669714262725  0.08551794726471239  1.0000
  H   H27       1.0  0.025191539785367905  0.7465133999288441  0.6607892670126746  1.0000
  H   H28       1.0  0.4749280823981367  0.08532987815505078  0.33907806137289503  1.0000
  H   H29       1.0  0.47458992375420195  0.6608225692734706  0.7463623988425426  1.0000
  H   H30       1.0  0.4747076779333099  0.2534761996959604  0.9142640676498033  1.0000
  H   H31       1.0  0.9744249207540606  0.08548937474217423  0.7463204249067061  1.0000
  H   H32       1.0  0.9744612676805104  0.6609567835466167  0.9145299857498089  1.0000
  H   H33       1.0  0.9745599965329675  0.25369721694449515  0.33921124037864564  1.0000
  H   H34       1.0  0.5256356783189275  0.9145107781394729  0.6608380509424877  1.0000
  H   H35       1.0  0.525420944569909  0.33907115352108974  0.25358764032072406  1.0000
  H   H36       1.0  0.5254406980874081  0.746334360642912  0.08548873603812279  1.0000
  C   C1        1.0  0.027127704104081805  0.7989287522427374  0.1446020984790978  1.0000
  C   C2        1.0  0.02755858363453  0.3455991851944589  0.20119102668822114  1.0000
  C   C3        1.0  0.026886678181043105  0.8556712084643011  0.6542106751603428  1.0000
  C   C4        1.0  0.47286216219157506  0.2010251350597798  0.34564604962191225  1.0000
  C   C5        1.0  0.47254648357451867  0.6543562375508928  0.8555757441894302  1.0000
  C   C6        1.0  0.47301424558074245  0.14432855887808688  0.7985285340822375  1.0000
  C   C7        1.0  0.9724785164227258  0.201170450650075  0.8555563775596298  1.0000
  C   C8        1.0  0.9724257309348234  0.6544481756781196  0.7988433530857862  1.0000
  C   C9        1.0  0.972594810714206  0.1445072045679083  0.3457444787757495  1.0000
  C   C10       1.0  0.5275503549262766  0.7988508868537211  0.6544302551779922  1.0000
  C   C11       1.0  0.5274859712706857  0.3456086317307978  0.14440661343391534  1.0000
  C   C12       1.0  0.5274444458202298  0.8554970980001357  0.2012298211699389  1.0000
  C   C13       1.0  0.9723577044174477  0.7224868434632867  0.10494253626291089  1.0000
  C   C14       1.0  0.97271436499274  0.3823622782440453  0.2776219735840116  1.0000
  C   C15       1.0  0.9721297059023399  0.895246570097548  0.6173114595706012  1.0000
  C   C16       1.0  0.527566011441678  0.2774816112078043  0.38241780199802383  1.0000
  C   C17       1.0  0.5274309415069566  0.6175972419060186  0.8952432665355516  1.0000
  C   C18       1.0  0.5278223970139635  0.10475639060432242  0.7220618436837896  1.0000
  C   C19       1.0  0.027341815167901004  0.2775833466526692  0.8952221732780431  1.0000
  C   C20       1.0  0.0272670063637648  0.617673898653088  0.7224060011913737  1.0000
  C   C21       1.0  0.0275089294539299  0.10485148806726842  0.38249227258119584  1.0000
  C   C22       1.0  0.4726795515060687  0.722432586535831  0.6177062261104282  1.0000
  C   C23       1.0  0.47264766659961316  0.38237394825148385  0.10475138644127921  1.0000
  C   C24       1.0  0.47253120445913777  0.8951294079914903  0.2776467422595632  1.0000
  C   C25       1.0  0.871868640769044  0.7017438055159388  0.14000106817861285  1.0000
  C   C26       1.0  0.8721628497793359  0.4381558476856142  0.29838228864437616  1.0000
  C   C27       1.0  0.8717011268082049  0.8601105064236307  0.5615314730924014  1.0000
  C   C28       1.0  0.6279902229571518  0.2982402822017178  0.43823053368743803  1.0000
  C   C29       1.0  0.6280053542398177  0.5618156185856906  0.8602128993037967  1.0000
  C   C30       1.0  0.6282556037229059  0.139889770163137  0.701426781189582  1.0000
  C   C31       1.0  0.1278731076937092  0.29831621947257525  0.8601893165130435  1.0000
  C   C32       1.0  0.1278096812577232  0.5618871296937514  0.7016668209749853  1.0000
  C   C33       1.0  0.12816144058977136  0.1398693315649242  0.4381731691577856  1.0000
  C   C34       1.0  0.3721757900199806  0.7016963443319926  0.5619248779868543  1.0000
  C   C35       1.0  0.3720879829694823  0.4381588070442817  0.13980231119438716  1.0000
  C   C36       1.0  0.3718868358338199  0.8601050384973306  0.2983083720403813  1.0000
  C   C37       1.0  0.8202930932085624  0.758601506612294  0.21409284951156596  1.0000
  C   C38       1.0  0.8205997934033038  0.4554109690620366  0.24155427637312968  1.0000
  C   C39       1.0  0.820193726223124  0.7860681683909904  0.5443658721448302  1.0000
  C   C40       1.0  0.6796059787587013  0.24141949729293097  0.45550495957812137  1.0000
  C   C41       1.0  0.6795604817042786  0.5445860909595696  0.7861339484201367  1.0000
  C   C42       1.0  0.6797228464140019  0.2139462689981288  0.7583047740268044  1.0000
  C   C43       1.0  0.17942213848594687  0.2414673585406606  0.7860980115162165  1.0000
  C   C44       1.0  0.1793580067961358  0.544633540264613  0.7585005455781515  1.0000
  C   C45       1.0  0.17970320964632694  0.21391920200026962  0.4553612358978897  1.0000
  C   C46       1.0  0.32064645004557957  0.758525718661808  0.5446542661372576  1.0000
  C   C47       1.0  0.3205279437333033  0.45539564224012713  0.21387602571748943  1.0000
  C   C48       1.0  0.3203292448128821  0.7860587035344154  0.24142023057338968  1.0000
  C   C49       1.0  0.876940312449797  0.8349599606472183  0.25435045541406975  1.0000
  C   C50       1.0  0.877351495022701  0.41934786632720744  0.16522774594354678  1.0000
  C   C51       1.0  0.8770814389501215  0.7458789742395241  0.5804846343105937  1.0000
  C   C52       1.0  0.6229979497777549  0.16505921711142696  0.419388389923661  1.0000
  C   C53       1.0  0.622785814464649  0.5806394942870199  0.745870703832459  1.0000
  C   C54       1.0  0.622790433629767  0.2541365332417059  0.8346027919261374  1.0000
  C   C55       1.0  0.1226344799068215  0.16515185852661335  0.7458254131966271  1.0000
  C   C56       1.0  0.12261317877801052  0.5806998907864697  0.8348165860108666  1.0000
  C   C57       1.0  0.12284199248787789  0.2541788044929022  0.4193313949271201  1.0000
  C   C58       1.0  0.3774292946938047  0.8348299241935708  0.5806789340029398  1.0000
  C   C59       1.0  0.3772711931082142  0.4193152758993222  0.25412485097950827  1.0000
  C   C60       1.0  0.3771870347142467  0.7458239592966294  0.16512014061873276  1.0000
  C   C61       1.0  0.9820027454159685  0.855200713335158  0.22075556677219788  1.0000
  C   C62       1.0  0.9825170381684035  0.36555444878094084  0.14497678873502204  1.0000
  C   C63       1.0  0.9820552287822153  0.7795009105253358  0.6343410300331627  1.0000
  C   C64       1.0  0.5179747706609349  0.14476342022543076  0.365533351329745  1.0000
  C   C65       1.0  0.517599360491836  0.6344165140099066  0.779411276533537  1.0000
  C   C66       1.0  0.5178248359183825  0.22050827562294037  0.8548313398257081  1.0000
  C   C67       1.0  0.0174895534035429  0.14493013966848192  0.7793754201525476  1.0000
  C   C68       1.0  0.017468252393719304  0.6345169340121831  0.8550666790144776  1.0000
  C   C69       1.0  0.017630524394967  0.22066269331471502  0.36561545110384236  1.0000
  C   C70       1.0  0.4825614940731739  0.8550674759934652  0.6344608032436484  1.0000
  C   C71       1.0  0.4824193524355493  0.36552214225205404  0.22056935840177525  1.0000
  C   C72       1.0  0.48237949889399806  0.7793685961789195  0.1449399895452503  1.0000
  C   C73       1.0  0.8230108380494984  0.6176955341494904  0.09472437779503202  1.0000
  C   C74       1.0  0.8232272200932229  0.47693473056384056  0.38241338269394737  1.0000
  C   C75       1.0  0.8222038801668817  0.9055522030703431  0.5228602867147673  1.0000
  C   C76       1.0  0.6768717334522166  0.38230513169337854  0.47699473493682387  1.0000
  C   C77       1.0  0.6769185006689399  0.5230332307250835  0.9054569356645602  1.0000
  C   C78       1.0  0.6778164273806199  0.09448321982261385  0.6173471101419423  1.0000
  C   C79       1.0  0.1767643016304206  0.38235887291205717  0.9054167879276989  1.0000
  C   C80       1.0  0.1767413910990996  0.5230750087823284  0.6176275773730711  1.0000
  C   C81       1.0  0.17721672906987612  0.09461779895661959  0.47692637831730883  1.0000
  C   C82       1.0  0.32329427567179897  0.6176523559355048  0.5231056796269018  1.0000
  C   C83       1.0  0.323161082141965  0.4769657570070933  0.09456372126305725  1.0000
  C   C84       1.0  0.32280822937337217  0.9053376243618985  0.3823043015451619  1.0000
  C   C85       1.0  0.8238826738063307  0.8962451515475183  0.334186426467902  1.0000
  C   C86       1.0  0.8241532108992544  0.4376637022519105  0.10396994796116132  1.0000
  C   C87       1.0  0.8239825683730899  0.6662863060281482  0.5622391711227268  1.0000
  C   C88       1.0  0.6761447495549788  0.10378353087013893  0.4379602431197398  1.0000
  C   C89       1.0  0.6759518443485533  0.5623214476649779  0.6662887380896976  1.0000
  C   C90       1.0  0.6759286224809458  0.33371424097374813  0.8959582309074251  1.0000
  C   C91       1.0  0.1757844139478948  0.10390734207167923  0.6662105018655781  1.0000
  C   C92       1.0  0.17574862473237124  0.5623385019563474  0.8960640720004919  1.0000
  C   C93       1.0  0.17599389232473334  0.3337639930502689  0.4376577812582881  1.0000
  C   C94       1.0  0.3242392885152086  0.8960756977972439  0.5623190740883288  1.0000
  C   C95       1.0  0.32415032502494506  0.4376768390741645  0.3337377890988336  1.0000
  C   C96       1.0  0.32406946863684993  0.6662349019108832  0.10387639699360562  1.0000
  N   N1        1.0  0.12592697023642072  0.8112617010326632  0.10106644850446875  1.0000
  N   N2        1.0  0.1264031791844999  0.2897183159817587  0.18886082029347762  1.0000
  N   N3        1.0  0.1257822327304652  0.8992572042820653  0.7100103227355065  1.0000
  N   N4        1.0  0.3740768731519921  0.18866972021999132  0.2897419282052099  1.0000
  N   N5        1.0  0.37369138589484413  0.7102166688358551  0.8991313796186803  1.0000
  N   N6        1.0  0.37417317552405654  0.10071988591681716  0.8107522216669949  1.0000
  N   N7        1.0  0.8736055842407566  0.18889498786442285  0.8991100851666333  1.0000
  N   N8        1.0  0.873569353577544  0.7103210730580188  0.8111494606179549  1.0000
  N   N9        1.0  0.8737100524253095  0.10094587003163014  0.2899450021280359  1.0000
  N   N10       1.0  0.6263906524318018  0.8111487918969688  0.7102780673164731  1.0000
  N   N11       1.0  0.6263656212168556  0.2897415313121456  0.10084729679610406  1.0000
  N   N12       1.0  0.6263189123318185  0.8990743586607267  0.18900339497282903  1.0000
  N   N13       1.0  0.2005764000064048  0.8691932016650198  0.13183280386144966  1.0000
  N   N14       1.0  0.20089160838180223  0.2624219448045935  0.13082929434256843  1.0000
  N   N15       1.0  0.20029319159617387  0.8685098389995433  0.7372823622225583  1.0000
  N   N16       1.0  0.29938218770266906  0.13075154819006235  0.2625852315095329  1.0000
  N   N17       1.0  0.2992127663680293  0.737510466170086  0.8683838932848715  1.0000
  N   N18       1.0  0.2996367679362493  0.1314834862158565  0.8687756728676633  1.0000
  N   N19       1.0  0.7990769605555742  0.13088955742043143  0.868373142267373  1.0000
  N   N20       1.0  0.7990112099784239  0.7375820102160874  0.8691533168161599  1.0000
  N   N21       1.0  0.7992599984732182  0.1316220670830432  0.2625713392326361  1.0000
  N   N22       1.0  0.7009115007322678  0.8691373696800255  0.7375278554709014  1.0000
  N   N23       1.0  0.7009021718828309  0.26248168724578147  0.1315928987234045  1.0000
  N   N24       1.0  0.7007737883731552  0.8684100398510921  0.13096035323880542  1.0000
  N   N25       1.0  0.2803576630328379  0.9170739684634768  0.14943615757599105  1.0000
  N   N26       1.0  0.2804880642217853  0.23204774010227416  0.08281192382185054  1.0000
  N   N27       1.0  0.2799064384412873  0.850864135159931  0.7676554717308762  1.0000
  N   N28       1.0  0.2195678116103181  0.08288333143888597  0.23230960273098591  1.0000
  N   N29       1.0  0.21963543241598418  0.7678797668769806  0.8507425317825509  1.0000
  N   N30       1.0  0.2200345618691841  0.1491348820178048  0.9167833426836651  1.0000
  N   N31       1.0  0.7194518603016036  0.08292361055407582  0.8507473366428683  1.0000
  N   N32       1.0  0.7193646815093474  0.7679161444581479  0.9171342011578715  1.0000
  N   N33       1.0  0.7196840843395408  0.1492071958836974  0.23214602225107936  1.0000
  N   N34       1.0  0.7805628334519453  0.9171136628720336  0.767866152441471  1.0000
  N   N35       1.0  0.7805570784726116  0.23214139889112317  0.14923938199058281  1.0000
  N   N36       1.0  0.7803622281599162  0.8508327122762933  0.08295208408847553  1.0000
  O   O1        1.0  0.7013236390267252  0.6047373789754928  0.09734734778751887  1.0000
  O   O2        1.0  0.7015210823133133  0.4925212384014089  0.3953484609441349  1.0000
  O   O3        1.0  0.7003426506992768  0.9031251319549513  0.508236905492332  1.0000
  O   O4        1.0  0.7985663959405755  0.39522968011961274  0.4925957762730279  1.0000
  O   O5        1.0  0.7986322577137771  0.5074845436812369  0.9028750169046161  1.0000
  O   O6        1.0  0.7997283252768029  0.09692962026786503  0.6051502246496625  1.0000
  O   O7        1.0  0.29845838023913274  0.39529821184172687  0.9027546950307795  1.0000
  O   O8        1.0  0.2984298652146364  0.5074365327390142  0.6046865254638477  1.0000
  O   O9        1.0  0.2989050018546777  0.09744251786187882  0.492649200354748  1.0000
  O   O10       1.0  0.20160648974153625  0.6047201326063244  0.5074802398079256  1.0000
  O   O11       1.0  0.20145614543881862  0.4925807368040934  0.09722626407749163  1.0000
  O   O12       1.0  0.2011566500504571  0.9024882619742414  0.3951937064362739  1.0000
  O   O13       1.0  0.9096264304019002  0.5638816376583264  0.05389675831411021  1.0000
  O   O14       1.0  0.9097616707875319  0.4899131925181948  0.4362366360284753  1.0000
  O   O15       1.0  0.908977654723465  0.9460332736007404  0.5096303030332409  1.0000
  O   O16       1.0  0.5902881790553138  0.4361199470939639  0.4899342246618447  1.0000
  O   O17       1.0  0.5903426999618092  0.5100048102644338  0.946248330468208  1.0000
  O   O18       1.0  0.5910853727259066  0.053994566600920314  0.5636081983743182  1.0000
  O   O19       1.0  0.090199766678964  0.4362039922226303  0.9462535303046168  1.0000
  O   O20       1.0  0.090206935161099  0.510118243711105  0.5638033222070007  1.0000
  O   O21       1.0  0.0908152691488269  0.0536422685956737  0.48979096536772465  1.0000
  O   O22       1.0  0.4098365966180282  0.5637954271310619  0.5101079504304239  1.0000
  O   O23       1.0  0.40972413247376244  0.4899333884942934  0.05371930570801457  1.0000
  O   O24       1.0  0.4092150930184246  0.9463262662153653  0.43614236966760006  1.0000
  O   O25       1.0  0.7148128320002841  0.8802312260158729  0.3555288470502234  1.0000
  O   O26       1.0  0.714270361043404  0.47435971363663043  0.11927164778354891  1.0000
  O   O27       1.0  0.7141228291794803  0.6448416235085406  0.5255327557894206  1.0000
  O   O28       1.0  0.7852555193186959  0.11982979130284832  0.47531559665523565  1.0000
  O   O29       1.0  0.7858436667985346  0.5256246644149345  0.6448860597850868  1.0000
  O   O30       1.0  0.785780668613114  0.3551507897335428  0.8806951486566277  1.0000
  O   O31       1.0  0.2856537844583684  0.11925276067950825  0.6448680265204985  1.0000
  O   O32       1.0  0.28559711177634023  0.5256117893058062  0.8807382417343349  1.0000
  O   O33       1.0  0.28583695193012915  0.3551462688898397  0.47438003926863814  1.0000
  O   O34       1.0  0.21436432126790084  0.8807255755940205  0.5256406695137275  1.0000
  O   O35       1.0  0.2142997340485664  0.4744273746457992  0.355160171998719  1.0000
  O   O36       1.0  0.21422624535703963  0.644856054131509  0.11920076070460081  1.0000
  O   O37       1.0  0.8917487788520191  0.9593971117726171  0.3744600371203719  1.0000
  O   O38       1.0  0.8920717904470127  0.41535700292634914  0.04089170097688583  1.0000
  O   O39       1.0  0.8919224029922717  0.6255384517972901  0.5845791636609692  1.0000
  O   O40       1.0  0.6083420935489486  0.04063005323254743  0.41508919419022317  1.0000
  O   O41       1.0  0.6080355496634482  0.5846254168322746  0.6255251488871211  1.0000
  O   O42       1.0  0.6079937853499331  0.37445068467766884  0.959059303017412  1.0000
  O   O43       1.0  0.10788981998485532  0.04084641183469988  0.6253989591782059  1.0000
  O   O44       1.0  0.10779469090691408  0.5846516156573501  0.9591379801299597  1.0000
  O   O45       1.0  0.1080992234008988  0.3745391604794437  0.4153504777210913  1.0000
  O   O46       1.0  0.39208714704640363  0.959162615605223  0.5845842089624755  1.0000
  O   O47       1.0  0.3920626977354615  0.4153488697195584  0.37448813084889576  1.0000
  O   O48       1.0  0.39204163494274985  0.6254436992397956  0.04081972244597414  1.0000
