data_image0
_chemical_formula_structural       Zr6H4C96O32F48
_chemical_formula_sum              "Zr6 H4 C96 O32 F48"
_cell_length_a       21.748296823987637
_cell_length_b       21.748464068662837
_cell_length_c       21.748282703523255
_cell_angle_alpha    119.99989868142544
_cell_angle_beta     89.99933666736958
_cell_angle_gamma    119.99973095158887

_space_group_name_H-M_alt    "P 1"
_space_group_IT_number       1

loop_
  _space_group_symop_operation_xyz
  'x, y, z'

loop_
  _atom_site_type_symbol
  _atom_site_label
  _atom_site_symmetry_multiplicity
  _atom_site_fract_x
  _atom_site_fract_y
  _atom_site_fract_z
  _atom_site_occupancy
  Zr  Zr1       1.0  0.08134552152854009  0.16273837598522084  0.08135894578418859  1.0000
  Zr  Zr2       1.0  0.9185524415600599  0.8371337406682857  0.918531804066717  1.0000
  Zr  Zr3       1.0  0.918543285051882  0.9999241481985379  0.08134414860703021  1.0000
  Zr  Zr4       1.0  0.08136393566287846  0.9999607481822681  0.9185645430109659  1.0000
  Zr  Zr5       1.0  0.08133712593718921  0.9999237533949245  0.0813495458155059  1.0000
  Zr  Zr6       1.0  0.9185520833289332  0.9999335557197147  0.9185521711568897  1.0000
  H   H1        1.0  0.063959109043175  0.12798759735741075  0.19205318156233636  1.0000
  H   H2        1.0  0.06400011934361097  0.8718886741348731  0.935920486415448  1.0000
  H   H3        1.0  0.8078478036707966  0.8718654921431939  0.935908374245827  1.0000
  H   H4        1.0  0.06399876337201275  0.1280218960347601  0.935932422975171  1.0000
  C   C1        1.0  0.20817249178575983  0.20632096838798467  0.20455451861968038  1.0000
  C   C2        1.0  0.9981153733914211  0.7934946980087786  0.0017504921154695135  1.0000
  C   C3        1.0  0.7953296828887205  0.7935084623944209  0.7917094896975314  1.0000
  C   C4        1.0  0.9981019818549156  0.2063275740665558  0.0017378612157940205  1.0000
  C   C5        1.0  0.9981146934229485  0.2063489221450965  0.20456086242246826  1.0000
  C   C6        1.0  0.2082227208702748  0.2063856033255719  0.001816984398011796  1.0000
  C   C7        1.0  0.9981568372532408  0.7935510066227282  0.7917085502162635  1.0000
  C   C8        1.0  0.7953733860343634  0.7935119243381054  0.0017832577797633005  1.0000
  C   C9        1.0  0.9981090948746854  0.9962816290015796  0.20455389307477373  1.0000
  C   C10       1.0  0.7953589522694527  0.0036003688868432985  0.0017793899120163651  1.0000
  C   C11       1.0  0.9981508948859458  0.9963165902663534  0.7917194704398935  1.0000
  C   C12       1.0  0.20821933663835782  0.0036273765586614156  0.0017967371966349907  1.0000
  C   C13       1.0  0.27640060859506127  0.2752645827346783  0.27421747184018846  1.0000
  C   C14       1.0  0.3101012029326073  0.36476842847081786  0.3089908890852158  1.0000
  C   C15       1.0  0.3735237207552515  0.4285742710198619  0.3735045631369829  1.0000
  C   C16       1.0  0.4071917425915501  0.4073036571896155  0.4075314152229552  1.0000
  C   C17       1.0  0.3735429382831584  0.31833596877573467  0.3734608505544159  1.0000
  C   C18       1.0  0.31011157546628  0.254216084329869  0.3089599584296465  1.0000
  C   C19       1.0  0.47148160608557543  0.47186997516141116  0.4723992500702536  1.0000
  C   C20       1.0  0.5274614445798493  0.5278587836851117  0.5284070973406685  1.0000
  C   C21       1.0  0.5923148640557727  0.5924613658535592  0.5927105750219539  1.0000
  C   C22       1.0  0.626339821260835  0.6814234946709307  0.6263636626376439  1.0000
  C   C23       1.0  0.6908596285486581  0.7455510803185704  0.6897831604929789  1.0000
  C   C24       1.0  0.7256389549850227  0.724542013460621  0.7235064721132575  1.0000
  C   C25       1.0  0.6908866172268375  0.6350470176265334  0.6898235608288914  1.0000
  C   C26       1.0  0.6263679828771203  0.5712293368008333  0.6264052202217698  1.0000
  C   C27       1.0  0.9988183815998182  0.27526476996265353  0.0010092696234237713  1.0000
  C   C28       1.0  0.054610104872992345  0.3647713378599066  0.05574579250567518  1.0000
  C   C29       1.0  0.054986096594419054  0.42858501020019446  0.055060992659235725  1.0000
  C   C30       1.0  5.225477347194777e-05  0.4073122585686451  0.999759573199839  1.0000
  C   C31       1.0  0.9447510246870008  0.3183449986142436  0.944848172775771  1.0000
  C   C32       1.0  0.9440659072718561  0.25421866525294234  0.9452192644673476  1.0000
  C   C33       1.0  0.00030379066683399424  0.4718671536562555  0.9994625072330764  1.0000
  C   C34       1.0  0.00028371602898882425  0.5278592342400759  0.9994759225876066  1.0000
  C   C35       1.0  3.2971883399714694e-05  0.5924647656614398  0.9997837939610577  1.0000
  C   C36       1.0  0.05495166450899807  0.6814278159684406  0.05511123849647946  1.0000
  C   C37       1.0  0.054579681864765854  0.7455528821737971  0.055794029618027464  1.0000
  C   C38       1.0  0.9988123961453753  0.7245412576145968  0.0010403122122681753  1.0000
  C   C39       1.0  0.9440673067761836  0.6350498647570577  0.9452404660363741  1.0000
  C   C40       1.0  0.9447444345617129  0.5712328615252674  0.9448655635111437  1.0000
  C   C41       1.0  0.27647138329604815  0.0022398652667945185  0.0011055844786938035  1.0000
  C   C42       1.0  0.3101841217821288  0.0011968337309440078  0.0558555827494658  1.0000
  C   C43       1.0  0.37363433483162123  0.0001599679039401275  0.055185053203871404  1.0000
  C   C44       1.0  0.4072983304267625  0.9997909258084694  0.9998848646230699  1.0000
  C   C45       1.0  0.37365158689011957  0.00019032121857550868  0.9449687419365421  1.0000
  C   C46       1.0  0.3102015599054726  0.0012267121655399774  0.9453290864409996  1.0000
  C   C47       1.0  0.47162650626476205  0.9992887764328915  0.9996338417080467  1.0000
  C   C48       1.0  0.5276229992554421  0.999299338161322  0.999658730591534  1.0000
  C   C49       1.0  0.5924523212012077  0.9997967879867392  0.9999042054082565  1.0000
  C   C50       1.0  0.6265091654267678  0.00018628914379792855  0.055207813814973944  1.0000
  C   C51       1.0  0.690995613165228  0.0012203650006696602  0.05587045144432771  1.0000
  C   C52       1.0  0.7257290857903341  0.00222587785388839  0.0011006785109372585  1.0000
  C   C53       1.0  0.6909774229406481  0.0012047244868256238  0.945326261623663  1.0000
  C   C54       1.0  0.626490194646266  0.00016974413940586778  0.9449736744229044  1.0000
  C   C55       1.0  0.9988684280954416  0.9977386120357891  0.7234839622251669  1.0000
  C   C56       1.0  0.9441293482462713  0.998793075888429  0.6897737020212205  1.0000
  C   C57       1.0  0.9448194092217364  0.9998520906323094  0.6263332175827826  1.0000
  C   C58       1.0  0.00011827067311301871  0.00022052310001200476  0.5926627279456441  1.0000
  C   C59       1.0  0.05502842389924465  0.9998179474312395  0.6263200500186769  1.0000
  C   C60       1.0  0.054651805747305215  0.9987635127093527  0.689763146312849  1.0000
  C   C61       1.0  0.00037000058874541407  0.0007194843201291093  0.528335166855129  1.0000
  C   C62       1.0  0.000360797228850658  0.000734237135077431  0.47234696589971753  1.0000
  C   C63       1.0  0.00010372217554535478  0.00022808185428150812  0.40751984658147933  1.0000
  C   C64       1.0  0.9447831820470755  0.9998250944632406  0.3734755662689865  1.0000
  C   C65       1.0  0.944091038719016  0.9987653817069744  0.308976689496326  1.0000
  C   C66       1.0  0.9988353444139833  0.9977227644753911  0.2742178663118293  1.0000
  C   C67       1.0  0.054635692297480894  0.9987776593824623  0.3089740736798348  1.0000
  C   C68       1.0  0.05502456433421793  0.9998452063184333  0.3734745319889469  1.0000
  C   C69       1.0  0.9988409298547581  0.27531298678611904  0.2742172655445857  1.0000
  C   C70       1.0  0.9441095191750579  0.2543063811015857  0.30899561782685236  1.0000
  C   C71       1.0  0.9448083406919993  0.3184459804948149  0.3734869436029059  1.0000
  C   C72       1.0  0.00012054114979082617  0.40739981007259046  0.4075031755676904  1.0000
  C   C73       1.0  0.055023925196188456  0.4286418577287849  0.37343660070504825  1.0000
  C   C74       1.0  0.05463355153327138  0.36481030626701033  0.3089474745380372  1.0000
  C   C75       1.0  0.0003866798460237311  0.4719840770544722  0.4723347347949201  1.0000
  C   C76       1.0  0.00035116412740171965  0.5279545083476905  0.528317684515443  1.0000
  C   C77       1.0  0.0001014776158713124  0.5925323435773395  0.5926481324165495  1.0000
  C   C78       1.0  0.9447939836067576  0.5712868121539716  0.6263156961915827  1.0000
  C   C79       1.0  0.9441139279817892  0.6351068795298078  0.6897569236027579  1.0000
  C   C80       1.0  0.9988693454324606  0.7246085386837536  0.7234766374634987  1.0000
  C   C81       1.0  0.054656605175843434  0.7456342556146469  0.6897545527103688  1.0000
  C   C82       1.0  0.0550277858395205  0.6815029219161347  0.6263148370272731  1.0000
  C   C83       1.0  0.27648683925837503  0.2753409717063279  0.001141698862141973  1.0000
  C   C84       1.0  0.3102130083298036  0.3648430285529188  0.055909279748320294  1.0000
  C   C85       1.0  0.3736749135925521  0.428660876196247  0.055256354972819034  1.0000
  C   C86       1.0  0.40733930105354005  0.4074055387605926  0.9999558280978179  1.0000
  C   C87       1.0  0.3736736149986371  0.318445573502139  0.9450137403802332  1.0000
  C   C88       1.0  0.3102174159257134  0.2543178059619963  0.9453633953377931  1.0000
  C   C89       1.0  0.47165654799668755  0.47198156573173855  0.9997025363705421  1.0000
  C   C90       1.0  0.5276590945886712  0.5279671919856386  0.9997002974093477  1.0000
  C   C91       1.0  0.5924903368837918  0.5925363166086017  0.9999476672535792  1.0000
  C   C92       1.0  0.626525739061144  0.6815079270161775  0.055222078379607326  1.0000
  C   C93       1.0  0.6910076300014226  0.7456241892133664  0.05587834474678734  1.0000
  C   C94       1.0  0.7257492783717368  0.7245800191038327  0.001117404143272319  1.0000
  C   C95       1.0  0.6910083418909351  0.6350796565535718  0.9453591130045353  1.0000
  C   C96       1.0  0.6265332343564581  0.571274693559488  0.9450190657982774  1.0000
  O   O1        1.0  0.18139932716571394  0.23164375030712148  0.1778062636421964  1.0000
  O   O2        1.0  0.9460646285504595  0.7681802977237453  0.9496404482221125  1.0000
  O   O3        1.0  0.8220943353350165  0.7681980969480195  0.8184864764027113  1.0000
  O   O4        1.0  0.05019186742942588  0.23164760190584843  0.053816341752259696  1.0000
  O   O5        1.0  0.9460526443449453  0.12751203521214205  0.1778221582138215  1.0000
  O   O6        1.0  0.18143777145203183  0.12754540909720197  0.9497089533202898  1.0000
  O   O7        1.0  0.05025715771508738  0.8723973590276659  0.8185001981840115  1.0000
  O   O8        1.0  0.8221088918898121  0.8723579403607578  0.053827738714936284  1.0000
  O   O9        1.0  0.050190782970297304  0.9962872460795611  0.17778705247119578  1.0000
  O   O10       1.0  0.8220888098550387  0.003533145591077843  0.9496645734028776  1.0000
  O   O11       1.0  0.9460788148635686  0.9963300937955922  0.8184917388121633  1.0000
  O   O12       1.0  0.1814188991664452  0.0035611033893303942  0.05384296759761038  1.0000
  O   O13       1.0  0.8221008440307854  0.0035424990817745027  0.05382827418942051  1.0000
  O   O14       1.0  0.05026402376366698  0.9963790641520878  0.8185159606699133  1.0000
  O   O15       1.0  0.18142875463873775  0.003570600738584191  0.9496859818191865  1.0000
  O   O16       1.0  0.9460554576386148  0.9963352931968362  0.17781776720206463  1.0000
  O   O17       1.0  0.050213538178120146  0.2316554636544837  0.17780529939804524  1.0000
  O   O18       1.0  0.8220957705912756  0.7681888366007503  0.9496613273382482  1.0000
  O   O19       1.0  0.9460882695894385  0.7682341582767339  0.8184883722945318  1.0000
  O   O20       1.0  0.18141126528708898  0.23169106445327972  0.05385642980368027  1.0000
  O   O21       1.0  0.9460472879641844  0.12748378148809578  0.9496353148673368  1.0000
  O   O22       1.0  0.18138336908015873  0.12747894383206676  0.1778185699259325  1.0000
  O   O23       1.0  0.05021269564724658  0.8723395194895078  0.05381208831938268  1.0000
  O   O24       1.0  0.8220848374387442  0.8723523299442277  0.8184832003370915  1.0000
  O   O25       1.0  0.045795277933109564  0.09162196794089564  0.9541260369213874  1.0000
  O   O26       1.0  0.8624418619208286  0.9082572702628585  0.9541048973208108  1.0000
  O   O27       1.0  0.045790323474314394  0.9082736208546653  0.9541128411586045  1.0000
  O   O28       1.0  0.04577519207497722  0.09160068473982365  0.13746111295460392  1.0000
  O   O29       1.0  0.9662562784965872  0.9325524770654284  0.03362674935439699  1.0000
  O   O30       1.0  0.1010015479903288  0.0673136615448584  0.03364950937370279  1.0000
  O   O31       1.0  0.9662734128904447  0.9325724431383976  0.8988905418574759  1.0000
  O   O32       1.0  0.9662621025326674  0.06731243622160588  0.03364097570834447  1.0000
  F   F1        1.0  0.2828293505085639  0.3929382937645585  0.2817557568668434  1.0000
  F   F2        1.0  0.2828631765478916  0.17153979290792176  0.2816945765668706  1.0000
  F   F3        1.0  0.4035010463866797  0.2945930581401727  0.40400183869763856  1.0000
  F   F4        1.0  0.40345184216121055  0.5128198640606885  0.4040799880219978  1.0000
  F   F5        1.0  0.5957679009991851  0.7051646312875663  0.5964347130397556  1.0000
  F   F6        1.0  0.5958020390424184  0.4869920887211949  0.5964831159731575  1.0000
  F   F7        1.0  0.718128672690888  0.6068881916349939  0.7171079826710596  1.0000
  F   F8        1.0  0.7180788508434619  0.8282223156658265  0.7170492535595373  1.0000
  F   F9        1.0  0.11006408992257377  0.39294090037285656  0.11113861210599646  1.0000
  F   F10       1.0  0.8886659319521044  0.17154447024523725  0.8897884935627401  1.0000
  F   F11       1.0  0.8910667239439222  0.2946009569176765  0.8905511942585136  1.0000
  F   F12       1.0  0.1092978120139492  0.5128293979019604  0.10873624048034707  1.0000
  F   F13       1.0  0.10924348462199866  0.7051671953534112  0.10880643912893348  1.0000
  F   F14       1.0  0.8910670216026872  0.4869971423903079  0.8905523263940508  1.0000
  F   F15       1.0  0.8886791502357527  0.6068940897718992  0.8897930043104268  1.0000
  F   F16       1.0  0.11001878149252065  0.8282289131615174  0.11120506920060787  1.0000
  F   F17       1.0  0.28290080922327837  0.0011454647414907589  0.1112509858825419  1.0000
  F   F18       1.0  0.2829381849779582  0.0012067415790826624  0.8898964110666443  1.0000
  F   F19       1.0  0.4036276342351643  0.9996276620057006  0.8906962666295258  1.0000
  F   F20       1.0  0.40358599480468627  0.9995653119600904  0.10888401095726848  1.0000
  F   F21       1.0  0.5959780159744312  0.999612138926736  0.108919623321789  1.0000
  F   F22       1.0  0.5959418169401828  0.9995737950121114  0.8906830135491717  1.0000
  F   F23       1.0  0.7182032256108358  0.001146661688132239  0.889872434487046  1.0000
  F   F24       1.0  0.7182375991665638  0.0011773426545786832  0.1112693262227893  1.0000
  F   F25       1.0  0.8887378081659209  0.9988592134058795  0.7170640721131748  1.0000
  F   F26       1.0  0.11008528045879028  0.998786465894405  0.7170351888039619  1.0000
  F   F27       1.0  0.10931008685317083  0.00038958101398387716  0.5963573901205522  1.0000
  F   F28       1.0  0.8911332783441709  0.0004639847170296691  0.5963879349955054  1.0000
  F   F29       1.0  0.8910887343696743  0.00041188047893567627  0.40402870501782223  1.0000
  F   F30       1.0  0.10932593997804226  0.00045104478918036515  0.4040194677594614  1.0000
  F   F31       1.0  0.11007926146193385  0.9988301496924666  0.2817366463176896  1.0000
  F   F32       1.0  0.888678669661566  0.9987861097906079  0.2817363260702095  1.0000
  F   F33       1.0  0.8887112315226915  0.17163815484344266  0.28178133915984915  1.0000
  F   F34       1.0  0.11005969673450981  0.3929528649087217  0.28168844213016797  1.0000
  F   F35       1.0  0.10931326664681511  0.5128796046545149  0.4039665957783853  1.0000
  F   F36       1.0  0.8911284485430925  0.29473594895766553  0.4040636332156851  1.0000
  F   F37       1.0  0.8910872957098448  0.4870485998455722  0.5963632971735819  1.0000
  F   F38       1.0  0.10932186031872275  0.7052414560186835  0.5963652033543951  1.0000
  F   F39       1.0  0.11010694654955712  0.828311678144573  0.7170365181756466  1.0000
  F   F40       1.0  0.8887107183836847  0.6069473080758173  0.7170384326809228  1.0000
  F   F41       1.0  0.2829274594262543  0.3929985171303586  0.11130469687807924  1.0000
  F   F42       1.0  0.2829349676178269  0.17164658413325665  0.8899080144978772  1.0000
  F   F43       1.0  0.4036282261395385  0.29471831282707966  0.8907187542377816  1.0000
  F   F44       1.0  0.40362821335825316  0.5129034530148786  0.10895546760588096  1.0000
  F   F45       1.0  0.5959822821021844  0.7052696775754583  0.10891856058506004  1.0000
  F   F46       1.0  0.5959883351455205  0.4870335015809887  0.8907288130751853  1.0000
  F   F47       1.0  0.7182340859914262  0.6069057767244886  0.8899075704367334  1.0000
  F   F48       1.0  0.7182315031284078  0.8283041468077529  0.11125537813498447  1.0000
