data_image0
_chemical_formula_structural       Mg2Cd4P4H8C8O24
_chemical_formula_sum              "Mg2 Cd4 P4 H8 C8 O24"
_cell_length_a       5.082049038582454
_cell_length_b       8.942306282031996
_cell_length_c       12.532687893142683
_cell_angle_alpha    90.00008425703788
_cell_angle_beta     89.9994519572053
_cell_angle_gamma    104.3604420543789

_space_group_name_H-M_alt    "P 1"
_space_group_IT_number       1

loop_
  _space_group_symop_operation_xyz
  'x, y, z'

loop_
  _atom_site_type_symbol
  _atom_site_label
  _atom_site_symmetry_multiplicity
  _atom_site_fract_x
  _atom_site_fract_y
  _atom_site_fract_z
  _atom_site_occupancy
  Mg  Mg1       1.0  0.5000002101210087  0.5000006733789493  0.4999998098971261  1.0000
  Mg  Mg2       1.0  0.9999996658337051  0.9999997860725857  2.495878419000005e-07  1.0000
  Cd  Cd1       1.0  0.35642046897756796  0.1352013518182957  0.5720434715501028  1.0000
  Cd  Cd2       1.0  0.1435824316360481  0.3648003852718276  0.0720427478514623  1.0000
  Cd  Cd3       1.0  0.6435779770987723  0.86479997978023  0.4279569461614372  1.0000
  Cd  Cd4       1.0  0.8564170328236073  0.6351986529896081  0.9279568719432447  1.0000
  P   P1        1.0  0.5998005366547687  0.24328211629235605  0.9341904343537877  1.0000
  P   P2        1.0  0.9002037263040493  0.2567152549393654  0.4341957546499273  1.0000
  P   P3        1.0  0.4002013798425211  0.7567180913753548  0.0658099833502703  1.0000
  P   P4        1.0  0.09979471976267722  0.7432860766584852  0.5658054609750424  1.0000
  H   H1        1.0  0.7943280007043612  0.10672838103973702  0.7270947304666963  1.0000
  H   H2        1.0  0.7056713810020269  0.39326926181048805  0.2270961921905581  1.0000
  H   H3        1.0  0.20567098586411  0.8932695029734675  0.2729048893282382  1.0000
  H   H4        1.0  0.2943265871927424  0.6067309155404674  0.7729034276077797  1.0000
  H   H5        1.0  0.9003305988147332  0.34400231673349424  0.7893662259970924  1.0000
  H   H6        1.0  0.5996696720039124  0.15600099289160602  0.2893725999789325  1.0000
  H   H7        1.0  0.09967724016998869  0.6559979364116942  0.21063259586853178  1.0000
  H   H8        1.0  0.40032679989713676  0.8440003235468654  0.7106294135633248  1.0000
  C   C1        1.0  0.541881779197837  0.4040232476023463  0.7425470002703279  1.0000
  C   C2        1.0  0.9581132193546793  0.09597894084553363  0.24254551376532157  1.0000
  C   C3        1.0  0.45812408563081425  0.5959769903841236  0.2574518215991546  1.0000
  C   C4        1.0  0.04188277467441285  0.9040212213460421  0.757454903950304  1.0000
  C   C5        1.0  0.6806848288300102  0.28684059590984395  0.7908539317430866  1.0000
  C   C6        1.0  0.8193183987140102  0.21316043304322113  0.2908571217573126  1.0000
  C   C7        1.0  0.319321513870598  0.7131607963235284  0.2091464859530276  1.0000
  C   C8        1.0  0.18068004735272328  0.7868408985546367  0.7091440938676571  1.0000
  O   O1        1.0  0.6278395763336349  0.14866457026759858  0.7299516122065411  1.0000
  O   O2        1.0  0.8721636222337634  0.35133769993969105  0.22995556226783986  1.0000
  O   O3        1.0  0.37215988812602063  0.851334467993837  0.2700480075881728  1.0000
  O   O4        1.0  0.12783530173376087  0.6486647859070659  0.7700448554434658  1.0000
  O   O5        1.0  0.4335255691374442  0.3775587018847376  0.6508749221273434  1.0000
  O   O6        1.0  0.06645575324930772  0.12243814954208433  0.1508742038559561  1.0000
  O   O7        1.0  0.5664778436343454  0.6224403666941285  0.34912469765965437  1.0000
  O   O8        1.0  0.9335353366948949  0.8775596738362668  0.8491254159544114  1.0000
  O   O9        1.0  0.5399958480698785  0.5249966803913894  0.7955692234022183  1.0000
  O   O10       1.0  0.9600003772483419  0.9750021593026261  0.2955705870546979  1.0000
  O   O11       1.0  0.4600085204938935  0.475004696684607  0.20442959847088826  1.0000
  O   O12       1.0  0.04000004296484149  0.0249991874532753  0.7044314264798502  1.0000
  O   O13       1.0  0.7380132078122231  0.39412683418014893  0.9957157648751861  1.0000
  O   O14       1.0  0.7619969916064447  0.10586934023011453  0.495718250182385  1.0000
  O   O15       1.0  0.26198625663781894  0.6058722040806189  0.0042846528329576  1.0000
  O   O16       1.0  0.23800342862596596  0.8941320065271231  0.5042821675252966  1.0000
  O   O17       1.0  0.2883928296406708  0.20610318886689782  0.9498644348981387  1.0000
  O   O18       1.0  0.2116103611537667  0.29389683596296834  0.4498641559430965  1.0000
  O   O19       1.0  0.7116090868662397  0.7938970188014808  0.0501351848924827  1.0000
  O   O20       1.0  0.788389581197073  0.7061033565466985  0.5501354638513902  1.0000
  O   O21       1.0  0.7274338247228799  0.11405459633288474  0.9627609916053146  1.0000
  O   O22       1.0  0.7725683161952049  0.3859392642243409  0.46276856569572544  1.0000
  O   O23       1.0  0.27256809177441715  0.8859456113348331  0.0372394260987434  1.0000
  O   O24       1.0  0.22743210403720587  0.6140620825328897  0.5372318520119564  1.0000
