data_image0
_chemical_formula_structural       Zn2H26C30N2O14
_chemical_formula_sum              "Zn2 H26 C30 N2 O14"
_cell_length_a       7.942824214889532
_cell_length_b       10.35712817934671
_cell_length_c       9.720229327051436
_cell_angle_alpha    105.53225661563967
_cell_angle_beta     89.02038595201556
_cell_angle_gamma    79.24747679129842

_space_group_name_H-M_alt    "P 1"
_space_group_IT_number       1

loop_
  _space_group_symop_operation_xyz
  'x, y, z'

loop_
  _atom_site_type_symbol
  _atom_site_label
  _atom_site_symmetry_multiplicity
  _atom_site_fract_x
  _atom_site_fract_y
  _atom_site_fract_z
  _atom_site_occupancy
  Zn  Zn1       1.0  0.744767038028776  0.4738093719460393  0.6104686987697292  1.0000
  Zn  Zn2       1.0  0.2552343948190696  0.5261901050392623  0.3895263681009452  1.0000
  H   H1        1.0  0.35591400093265696  0.8568837978342856  0.7417341952458328  1.0000
  H   H2        1.0  0.6440823600942168  0.1431029829064059  0.25825742593549705  1.0000
  H   H3        1.0  0.37813061643495866  0.268317510004664  0.741006618401876  1.0000
  H   H4        1.0  0.6218672999040111  0.7316779909768341  0.2589902841979493  1.0000
  H   H5        1.0  0.8090741421479564  0.9405622326907022  0.5612355846463044  1.0000
  H   H6        1.0  0.19092123912722053  0.05944138396269949  0.4387627312909146  1.0000
  H   H7        1.0  0.9116635575014626  0.020686247478181465  0.8966851165508417  1.0000
  H   H8        1.0  0.08832643442936229  0.9793220438786533  0.1033029308512851  1.0000
  H   H9        1.0  0.6055067754654286  0.05987615936980715  0.9724820092764686  1.0000
  H   H10       1.0  0.3944791827396231  0.9401425645526088  0.027501681596042656  1.0000
  H   H11       1.0  0.4379326203774879  0.2961451733984788  0.07345437535702357  1.0000
  H   H12       1.0  0.5620631255993301  0.7038752840661643  0.9265411409796298  1.0000
  H   H13       1.0  0.5843045864712905  0.4945917811702997  0.11141576029277189  1.0000
  H   H14       1.0  0.41569905805971524  0.5054199838371929  0.8885892072998585  1.0000
  H   H15       1.0  0.8925008755251297  0.4567072649194088  0.03235425227899919  1.0000
  H   H16       1.0  0.10750590937323781  0.5432917915448953  0.9676621129091811  1.0000
  H   H17       1.0  0.029977914145519088  0.5447330252331709  0.6838664839688631  1.0000
  H   H18       1.0  0.9700277062709901  0.45526414465552273  0.3161153640559035  1.0000
  H   H19       1.0  0.06479568480753536  0.39297361104957657  0.5895775589736232  1.0000
  H   H20       1.0  0.9352037101967167  0.6070206382103719  0.4104075726463917  1.0000
  H   H21       1.0  0.6743579859999685  0.3634182017542357  0.351023756990152  1.0000
  H   H22       1.0  0.32563969335165405  0.6365785910310464  0.6489848059790688  1.0000
  H   H23       1.0  0.8194411785312139  0.27709524716671297  0.42029998694737  1.0000
  H   H24       1.0  0.1805566350323603  0.7229002889984882  0.5797062993984949  1.0000
  H   H25       1.0  0.0976734159495578  0.038361586312433374  0.7641464350498451  1.0000
  H   H26       1.0  0.9023170981403793  0.9616515294458735  0.23584850827909062  1.0000
  C   C1        1.0  0.6743850782936818  0.7362417985014601  0.612308347271373  1.0000
  C   C2        1.0  0.32560553921204166  0.2637549255840952  0.38768421182444257  1.0000
  C   C3        1.0  0.5912448674376238  0.8831478290606609  0.6486871652505001  1.0000
  C   C4        1.0  0.40874932945011716  0.11685042815592789  0.351317772361547  1.0000
  C   C5        1.0  0.42488890012000285  0.9287673449535556  0.7141641734000429  1.0000
  C   C6        1.0  0.5751056791322708  0.07123411680278478  0.2858422335811994  1.0000
  C   C7        1.0  0.34659515091427556  0.06678532001578219  0.7458750378696379  1.0000
  C   C8        1.0  0.6534041154606456  0.9332130623460555  0.25412007355470206  1.0000
  C   C9        1.0  0.43721406047057326  0.16056051487313275  0.715711887526666  1.0000
  C   C10       1.0  0.5627896616222757  0.8394389563797944  0.28429129189112246  1.0000
  C   C11       1.0  0.603694466388994  0.11463494592956637  0.6491982533357614  1.0000
  C   C12       1.0  0.39630997197386375  0.885369435621676  0.3508034882408919  1.0000
  C   C13       1.0  0.6806599007526161  0.9763042815967607  0.6147465586537065  1.0000
  C   C14       1.0  0.3193372960675091  0.023696003703975087  0.38525735048335  1.0000
  C   C15       1.0  0.10671213591646729  0.2219666633073273  0.9099166412485571  1.0000
  C   C16       1.0  0.8932957969905502  0.7780197410593034  0.09008529147406107  1.0000
  C   C17       1.0  0.9228027057624998  0.23709565975037347  0.9570003138754614  1.0000
  C   C18       1.0  0.07720689081462248  0.7629023061551693  0.043005219700582076  1.0000
  C   C19       1.0  0.8413399578273442  0.12538667015331834  0.9419160671154856  1.0000
  C   C20       1.0  0.1586614806031223  0.8746156833137916  0.05808670293615843  1.0000
  C   C21       1.0  0.6684473522573525  0.14702273227799617  0.9866284911307301  1.0000
  C   C22       1.0  0.33155577011454823  0.8529842083280241  0.01336958053509104  1.0000
  C   C23       1.0  0.5749507757562211  0.27961644118813206  0.045779759453651495  1.0000
  C   C24       1.0  0.4250513134626883  0.7203866035785608  0.9542199267204904  1.0000
  C   C25       1.0  0.656578464256384  0.39090634136851315  0.06439802458290697  1.0000
  C   C26       1.0  0.3434271987619226  0.6090953600474053  0.9356063369264901  1.0000
  C   C27       1.0  0.8297441598592598  0.3698709339463163  0.020528800673716274  1.0000
  C   C28       1.0  0.17025685891284337  0.6301324691634774  0.9794835297911388  1.0000
  C   C29       1.0  0.6956303726443592  0.21376855156518812  0.6082004054506598  1.0000
  C   C30       1.0  0.30437050075055083  0.7862303552010772  0.3917987952756191  1.0000
  N   N1        1.0  0.17482180458871707  0.10562500535117177  0.8032764315254184  1.0000
  N   N2        1.0  0.8251830419926306  0.8943784828216294  0.19672618336214492  1.0000
  O   O1        1.0  0.5863239646499991  0.6504646917229593  0.6401288492761238  1.0000
  O   O2        1.0  0.41368181555776573  0.34953303285531934  0.35987596615307627  1.0000
  O   O3        1.0  0.8270800804941559  0.69811683051055  0.5590071944287445  1.0000
  O   O4        1.0  0.1729092759773252  0.30186456217585794  0.44097493394360027  1.0000
  O   O5        1.0  0.634768920255347  0.3417852731582585  0.6703012156074448  1.0000
  O   O6        1.0  0.36525120621750073  0.6582152386696263  0.3297141095333202  1.0000
  O   O7        1.0  0.8206320623333739  0.1698925724072993  0.5143490207485328  1.0000
  O   O8        1.0  0.17936874557997143  0.8301021153602335  0.48564853394137214  1.0000
  O   O9        1.0  0.1922017687907243  0.3090497803650932  0.9639525213510466  1.0000
  O   O10       1.0  0.8078145187076446  0.6909448934361747  0.036057113005078543  1.0000
  O   O11       1.0  0.9869118512898395  0.45938597124289504  0.6706626771041113  1.0000
  O   O12       1.0  0.013092732724850106  0.540616997424017  0.32932635412505806  1.0000
  O   O13       1.0  0.7872778296002636  0.3659803684076266  0.39101427771501557  1.0000
  O   O14       1.0  0.21271070132816317  0.6340155383992608  0.6089898096366821  1.0000
