data_image0
_chemical_formula_structural       Cu2H20C34N10O8
_chemical_formula_sum              "Cu2 H20 C34 N10 O8"
_cell_length_a       7.708707890670839
_cell_length_b       9.087914147153413
_cell_length_c       12.339698188685132
_cell_angle_alpha    98.0540538229495
_cell_angle_beta     97.16980196036903
_cell_angle_gamma    99.9665220413629

_space_group_name_H-M_alt    "P 1"
_space_group_IT_number       1

loop_
  _space_group_symop_operation_xyz
  'x, y, z'

loop_
  _atom_site_type_symbol
  _atom_site_label
  _atom_site_symmetry_multiplicity
  _atom_site_fract_x
  _atom_site_fract_y
  _atom_site_fract_z
  _atom_site_occupancy
  Cu  Cu1       1.0  0.625528414500856  0.8991072934217499  0.9467566006373858  1.0000
  Cu  Cu2       1.0  0.3744668342666983  0.10088681203794889  0.053241978967299985  1.0000
  H   H1        1.0  0.7010538037425745  0.423971189986986  0.887070074632689  1.0000
  H   H2        1.0  0.2989362669609221  0.5760228657287597  0.11292401330685921  1.0000
  H   H3        1.0  0.3655520051575464  0.7284575924963901  0.7728505205353002  1.0000
  H   H4        1.0  0.6344473591294458  0.2715317734293449  0.2271439460583409  1.0000
  H   H5        1.0  0.20358957263918132  0.7535996231193066  0.5909974437737375  1.0000
  H   H6        1.0  0.7964073995382962  0.24640114662540213  0.40899779647255496  1.0000
  H   H7        1.0  0.5147093769733218  0.20574522759171285  0.6313213152522792  1.0000
  H   H8        1.0  0.48529249143293635  0.7942544595314515  0.3686782962866957  1.0000
  H   H9        1.0  0.6666011422711404  0.16165016359273918  0.8103897273494524  1.0000
  H   H10       1.0  0.33339902864378956  0.8383427553190399  0.189609974273381  1.0000
  H   H11       1.0  0.9051819519668881  0.6503912805481065  0.33282592748410883  1.0000
  H   H12       1.0  0.09482600121253165  0.34961771715512663  0.6671847174121481  1.0000
  H   H13       1.0  0.6636844709456465  0.49535849652167463  0.18027809846998366  1.0000
  H   H14       1.0  0.3363212145922318  0.5046414942207703  0.8197332080838393  1.0000
  H   H15       1.0  0.5606102498514572  0.6194170224911842  0.022839159905295496  1.0000
  H   H16       1.0  0.4393898692262751  0.38057610427333793  0.9771670402666005  1.0000
  H   H17       1.0  0.9059088239634007  0.02469239819868819  0.152350717698063  1.0000
  H   H18       1.0  0.09409115223811429  0.9753051481608564  0.8476517948525242  1.0000
  H   H19       1.0  0.10791393789478579  0.1635574268662197  0.3016235287291948  1.0000
  H   H20       1.0  0.8920856683188703  0.8364492964440727  0.6983821687210111  1.0000
  C   C1        1.0  0.8678667176434373  0.6873490340538665  0.8470989745413533  1.0000
  C   C2        1.0  0.13212977798535513  0.3126552307731173  0.1528989562602376  1.0000
  C   C3        1.0  0.9393073987971334  0.5931281843068206  0.9270058642920064  1.0000
  C   C4        1.0  0.06069001753078848  0.40686922026358013  0.0729907469921613  1.0000
  C   C5        1.0  0.8330799890569835  0.4559865545650792  0.9368030268328128  1.0000
  C   C6        1.0  0.1669122168086261  0.5440109301693353  0.063193154379384  1.0000
  C   C7        1.0  0.8912222866011276  0.3624169898832008  0.008563504534869452  1.0000
  C   C8        1.0  0.10877588811075606  0.6375780519704364  0.9914305365664619  1.0000
  C   C9        1.0  0.7644073711974498  0.21801669735508264  0.012725420897240285  1.0000
  C   C10       1.0  0.23558997096790077  0.7819748954388714  0.9872666344494335  1.0000
  C   C11       1.0  0.39456719090755127  0.8320509119822929  0.738731216172397  1.0000
  C   C12       1.0  0.6054302124610658  0.1679465445512989  0.2612670197490417  1.0000
  C   C13       1.0  0.3051305661487476  0.8466431834134339  0.6377351784549603  1.0000
  C   C14       1.0  0.6948666619454186  0.15335882262314018  0.3622634314383291  1.0000
  C   C15       1.0  0.3432930553537118  0.9830395653653313  0.5968934053453694  1.0000
  C   C16       1.0  0.6567005532086441  0.016963607178155392  0.40310419004777026  1.0000
  C   C17       1.0  0.476495896702815  0.098768714451154  0.6603278703429964  1.0000
  C   C18       1.0  0.5235033405536881  0.9012311166803854  0.33967477543452423  1.0000
  C   C19       1.0  0.5608035022768971  0.07492789911336217  0.7606833122180845  1.0000
  C   C20       1.0  0.4391975011845729  0.925068468858093  0.23931837515939955  1.0000
  C   C21       1.0  0.24318812536558446  0.9974538604332892  0.4921049338007251  1.0000
  C   C22       1.0  0.7568120027543086  0.0025491859235913018  0.5078923868637517  1.0000
  C   C23       1.0  0.060313007079450504  0.9353927667035291  0.34295290410434387  1.0000
  C   C24       1.0  0.939692580939777  0.06461146176279439  0.6570490285977327  1.0000
  C   C25       1.0  0.9242304584684006  0.8479049868460321  0.2535757451884564  1.0000
  C   C26       1.0  0.07577438412615577  0.15210155237387818  0.7464271330591856  1.0000
  C   C27       1.0  0.8542776260931646  0.6971830409533267  0.2614752956381352  1.0000
  C   C28       1.0  0.14572690874751254  0.3028224698274613  0.7385307115115795  1.0000
  C   C29       1.0  0.7216677795268394  0.612919928741455  0.1787746466485487  1.0000
  C   C30       1.0  0.2783359357266022  0.38708208101647307  0.8212277501092444  1.0000
  C   C31       1.0  0.6624041917809861  0.6803327560221532  0.09054116723615381  1.0000
  C   C32       1.0  0.3375992416371786  0.31966812137027734  0.90946110914917  1.0000
  C   C33       1.0  0.8569810360578385  0.9082435909983317  0.1621616279482936  1.0000
  C   C34       1.0  0.1430221220046946  0.09175612804701669  0.8378397157459433  1.0000
  N   N1        1.0  0.5189939868742854  0.9449526291490712  0.8011801275043808  1.0000
  N   N2        1.0  0.48100600876618665  0.055044839265690405  0.19881994809030354  1.0000
  N   N3        1.0  0.1265212909821968  0.8772598472306682  0.4290684628366535  1.0000
  N   N4        1.0  0.8734807526985193  0.12273529038950666  0.5709307747304635  1.0000
  N   N5        1.0  0.2526654128757144  0.12676447874854088  0.44939785711201097  1.0000
  N   N6        1.0  0.747334507571466  0.8732432470192819  0.5506038991174904  1.0000
  N   N7        1.0  0.13596204651704366  0.08494712856744258  0.35508283549187786  1.0000
  N   N8        1.0  0.864041499941585  0.9150594047118757  0.6449191229191414  1.0000
  N   N9        1.0  0.7275997269030299  0.8255129463194634  0.0830265637777714  1.0000
  N   N10       1.0  0.27240530392528933  0.17448899143428057  0.9169743158607488  1.0000
  O   O1        1.0  0.7069034438386977  0.7026820799336307  0.845999373034438  1.0000
  O   O2        1.0  0.29309508687104097  0.29731990606194364  0.1539993443768495  1.0000
  O   O3        1.0  0.9751250198345429  0.7421033076484562  0.7860473932859264  1.0000
  O   O4        1.0  0.024870279739488372  0.2579066590880074  0.21395092434199367  1.0000
  O   O5        1.0  0.6168453836973526  0.23601502262261675  0.04274568303750933  1.0000
  O   O6        1.0  0.3831530116465485  0.7639752878568726  0.9572422978615336  1.0000
  O   O7        1.0  0.809242429720669  0.09285475639136816  0.9787025503635008  1.0000
  O   O8        1.0  0.19076399835546443  0.9071368260235315  0.021294319202297612  1.0000
