data_image0
_chemical_formula_structural       Zn6H44C44S4N24O24
_chemical_formula_sum              "Zn6 H44 C44 S4 N24 O24"
_cell_length_a       8.909520525
_cell_length_b       11.056557217033555
_cell_length_c       16.781
_cell_angle_alpha    90.0
_cell_angle_beta     90.0
_cell_angle_gamma    113.75975084785978

_space_group_name_H-M_alt    "P 1"
_space_group_IT_number       1

loop_
  _space_group_symop_operation_xyz
  'x, y, z'

loop_
  _atom_site_type_symbol
  _atom_site_label
  _atom_site_symmetry_multiplicity
  _atom_site_fract_x
  _atom_site_fract_y
  _atom_site_fract_z
  _atom_site_occupancy
  Zn  Zn1       1.0  0.5363154987117511  0.4448667005738828  0.0677122936654584  1.0000
  Zn  Zn2       1.0  0.09144298126005883  0.5551070366970308  0.9323103509921966  1.0000
  Zn  Zn3       1.0  0.5914499118444567  0.5551119776839784  0.5676872653596305  1.0000
  Zn  Zn4       1.0  0.03631638215403398  0.44487065336343784  0.4322894940706732  1.0000
  Zn  Zn5       1.0  0.6335363310168419  0.9999193864145185  6.97217090746e-05  1.0000
  Zn  Zn6       1.0  0.13353537229256324  0.9999174100197408  0.4999302782909254  1.0000
  H   H1        1.0  0.9055047774767361  0.6836181543451545  0.0411846731422472  1.0000
  H   H2        1.0  0.2216896332592313  0.316298267477201  0.9589744353733424  1.0000
  H   H3        1.0  0.7216900978899332  0.3162992556745863  0.5410225850664432  1.0000
  H   H4        1.0  0.40551140710100964  0.6836201307399321  0.45881413503367  1.0000
  H   H5        1.0  0.12901624587603072  0.824527196435497  0.1343090399856948  1.0000
  H   H6        1.0  0.3046440333012796  0.1754910097179234  0.8659305166557445  1.0000
  H   H7        1.0  0.804655813350962  0.1754989152970339  0.6340670996960824  1.0000
  H   H8        1.0  0.62901482560288  0.8245311492250522  0.3656867886300006  1.0000
  H   H9        1.0  0.8350499184085011  0.6529968818526299  0.3297294559323021  1.0000
  H   H10       1.0  0.1826471021419707  0.3470835807362889  0.670390322388414  1.0000
  H   H11       1.0  0.6826446936816809  0.3470855571310665  0.8296061021393228  1.0000
  H   H12       1.0  0.3350433477099487  0.6529949054578523  0.1702687563315664  1.0000
  H   H13       1.0  0.9973675364716641  0.1659964092045385  0.0239503009355815  1.0000
  H   H14       1.0  0.8315270319463581  0.8339002486700338  0.976111078004884  1.0000
  H   H15       1.0  0.3315311483654924  0.8339061778543666  0.5238883260830676  1.0000
  H   H16       1.0  0.4973649612589668  0.1659934446123756  0.4760520827125916  1.0000
  H   H17       1.0  0.6327721844520158  0.8979087581468406  0.1658649663309717  1.0000
  H   H18       1.0  0.7348360627719616  0.1020126046624483  0.8343108277218292  1.0000
  H   H19       1.0  0.2348277413772735  0.10201161646506311  0.6656891722781708  1.0000
  H   H20       1.0  0.13277383040330915  0.897909746344233  0.3341344377569868  1.0000
  H   H21       1.0  0.8195540198828013  0.9509057841181843  0.283786425123651  1.0000
  H   H22       1.0  0.8685357780416255  0.04908672890312  0.7163500387342836  1.0000
  H   H23       1.0  0.3685279507404999  0.04908672890312  0.7836499612657164  1.0000
  H   H24       1.0  0.3195612778083686  0.9509067723155695  0.216213574876349  1.0000
  H   H25       1.0  0.10767270151372803  0.12234278954606741  0.269090042309756  1.0000
  H   H26       1.0  0.9853003594294308  0.8776576290543473  0.7309463083248886  1.0000
  H   H27       1.0  0.4853070805241302  0.8776665228308501  0.7690536916751114  1.0000
  H   H28       1.0  0.6076792722122804  0.122344765940845  0.2309135331625072  1.0000
  H   H29       1.0  0.4156868572874899  0.3837486684598517  0.3344204755378115  1.0000
  H   H30       1.0  0.032501810354077086  0.616350569879458  0.6656063405041408  1.0000
  H   H31       1.0  0.5325000301950666  0.6163515580768504  0.8343918717597276  1.0000
  H   H32       1.0  0.915684717242634  0.3837466920650741  0.1655807162862786  1.0000
  H   H33       1.0  0.6080755254051341  0.4988044904595341  0.3630373636851232  1.0000
  H   H34       1.0  0.10969902795351064  0.501193951746103  0.6370120970144839  1.0000
  H   H35       1.0  0.6096977418880769  0.5011959281408807  0.8629849234253015  1.0000
  H   H36       1.0  0.10807618316928112  0.4988035022621418  0.1369638281389669  1.0000
  H   H37       1.0  0.3949204053871824  0.0798483254248765  0.0568875513974163  1.0000
  H   H38       1.0  0.31495640496410005  0.9200097927515216  0.9431333055241069  1.0000
  H   H39       1.0  0.8149513918282454  0.9200088045541364  0.5568696740361148  1.0000
  H   H40       1.0  0.8949207785474658  0.0798423962405437  0.4431190036350614  1.0000
  H   H41       1.0  0.5652381038716001  0.1461800869631986  0.0965019963053422  1.0000
  H   H42       1.0  0.4191573451033861  0.8539764668246761  0.9034604612359232  1.0000
  H   H43       1.0  0.9191554307366662  0.8539794314168462  0.5965419224122501  1.0000
  H   H44       1.0  0.0652370109396045  0.1461800869631986  0.4035021750789554  1.0000
  C   C1        1.0  0.8886541015421232  0.675736291970594  0.1057439961861633  1.0000
  C   C2        1.0  0.21281829482566655  0.3241732124700292  0.8944133245932875  1.0000
  C   C3        1.0  0.7128192535499381  0.3241751888648068  0.6055842917585395  1.0000
  C   C4        1.0  0.3886573639818423  0.6757382683653717  0.3942554079017953  1.0000
  C   C5        1.0  0.012062358303822416  0.7541112150884928  0.1577087181931915  1.0000
  C   C6        1.0  0.2580878349880606  0.24587635694586396  0.842483761396821  1.0000
  C   C7        1.0  0.7580904102007581  0.24587932153802683  0.6575150467790962  1.0000
  C   C8        1.0  0.5120607123525361  0.7541102268911075  0.3422883022465868  1.0000
  C   C9        1.0  0.8496242826823703  0.6573429739693921  0.2649836124188099  1.0000
  C   C10       1.0  0.19265630871701941  0.3426584328284079  0.735142720934391  1.0000
  C   C11       1.0  0.6926556509528653  0.3426594210258003  0.7648537035933529  1.0000
  C   C12       1.0  0.3496188343786742  0.6573409975746145  0.2350151957571072  1.0000
  C   C13       1.0  0.7258981760295597  0.5752613224454066  0.2139771169775315  1.0000
  C   C14       1.0  0.15088690445587363  0.424716367615062  0.7861015434121938  1.0000
  C   C15       1.0  0.6508840019020141  0.4247173558124473  0.7138948811155502  1.0000
  C   C16       1.0  0.22589807128471057  0.5752632988401842  0.28602347893451  1.0000
  C   C17       1.0  0.5673732923223227  0.4739325503761336  0.24106370299743674  1.0000
  C   C18       1.0  0.09382067134043841  0.5261004787381154  0.758976223109471  1.0000
  C   C19       1.0  0.5938187569737181  0.5261034433302783  0.7410207973303147  1.0000
  C   C20       1.0  0.06737255927618689  0.4739355149683036  0.25893689291460487  1.0000
  C   C21       1.0  0.2456910948881515  0.2528085616295996  0.1341946248733663  1.0000
  C   C22       1.0  0.9930064796020732  0.747166163838699  0.8658065669507167  1.0000
  C   C23       1.0  0.4930202949517621  0.7471780222073647  0.6341910494011103  1.0000
  C   C24       1.0  0.7456901687085706  0.2528135026165472  0.3658077587748068  1.0000
  C   C25       1.0  0.0757623515719459  0.1540135276656898  0.1451230558369616  1.0000
  C   C26       1.0  0.9217660454383251  0.8458979531697111  0.8549174661819947  1.0000
  C   C27       1.0  0.42177563962402337  0.8459058587488286  0.6450819379059638  1.0000
  C   C28       1.0  0.5757633102962174  0.1540155040604674  0.35488051963530154  1.0000
  C   C29       1.0  0.9631694635655493  0.11991972954827192  0.0823216733210188  1.0000
  C   C30       1.0  0.8433333334860722  0.8800016332610241  0.9177504320362289  1.0000
  C   C31       1.0  0.3433358334167879  0.8800065742479647  0.5822483761396811  1.0000
  C   C32       1.0  0.4631694930284098  0.11991972954827192  0.4176807103271543  1.0000
  C   C33       1.0  0.7579123294287131  0.9718526041725256  0.1618258745009271  1.0000
  C   C34       1.0  0.7860536489697553  0.028080617005436195  0.8383141648292707  1.0000
  C   C35       1.0  0.28604918885319813  0.028080617005436195  0.6616870269948123  1.0000
  C   C36       1.0  0.2579139753800064  0.9718535923699179  0.3381747214111215  1.0000
  C   C37       1.0  0.8626173734116165  0.000921988163924  0.2272731064894842  1.0000
  C   C38       1.0  0.8616783633421861  0.9990497727122118  0.7728413086228443  1.0000
  C   C39       1.0  0.3616755197140549  0.9990507609095971  0.7271563077289827  1.0000
  C   C40       1.0  0.3626212641526152  0.0009229763613163  0.2727262975984743  1.0000
  C   C41       1.0  0.022131861902046503  0.0944716703870938  0.2194046838686603  1.0000
  C   C42       1.0  0.9276201021273422  0.905481314738644  0.7806489482152443  1.0000
  C   C43       1.0  0.4276242185464768  0.9054872439229769  0.7193516476967972  1.0000
  C   C44       1.0  0.5221335831353215  0.0944706821897086  0.2805971038674713  1.0000
  S   S1        1.0  0.762232004516129  0.3269124956322997  0.0099225314343627  1.0000
  S   S2        1.0  0.43535384416074413  0.673170931548789  0.9900947500148974  1.0000
  S   S3        1.0  0.9353614030464358  0.6731748843383443  0.5099070377212342  1.0000
  S   S4        1.0  0.2622311372622761  0.3269174366192473  0.49007866038972747  1.0000
  N   N1        1.0  0.7481254123810928  0.586924028030225  0.1342405101007103  1.0000
  N   N2        1.0  0.1611664499145959  0.4129795472260652  0.8658530480901021  1.0000
  N   N3        1.0  0.6611619308723109  0.4129795472260652  0.6341439723496833  1.0000
  N   N4        1.0  0.24812804651952555  0.586926992622395  0.3657594898992897  1.0000
  N   N5        1.0  0.9924555495842284  0.7454447239870845  0.23678565043799446  1.0000
  N   N6        1.0  0.2473494320008101  0.2545606356002779  0.7633943149991043  1.0000
  N   N7        1.0  0.7473518730057905  0.2545655765872183  0.7366027054406745  1.0000
  N   N8        1.0  0.49245108946767163  0.7454447239870845  0.2632119659138326  1.0000
  N   N9        1.0  0.5285302043627668  0.45298770671657007  0.3184613551039845  1.0000
  N   N10       1.0  0.07601528308610034  0.5470631099506846  0.681572611882487  1.0000
  N   N11       1.0  0.5760123805322408  0.5470640981480699  0.8184256003813815  1.0000
  N   N12       1.0  0.028526372547496164  0.4529867185191776  0.1815410285441885  1.0000
  N   N13       1.0  0.4691891683327682  0.4099882737296028  0.1826315475835756  1.0000
  N   N14       1.0  0.05955673663564911  0.590092188859316  0.8173803706572897  1.0000
  N   N15       1.0  0.5595603000354858  0.5900971298462636  0.6826172456945373  1.0000
  N   N16       1.0  0.969185009176336  0.40999123832177287  0.317371431976639  1.0000
  N   N17       1.0  0.3187207442780036  0.315685585096027  0.2004618318336213  1.0000
  N   N18       1.0  0.0034205106511891094  0.6844087122563423  0.7995256540134648  1.0000
  N   N19       1.0  0.5034240740510258  0.6844136532432827  0.7004719623383622  1.0000
  N   N20       1.0  0.8187215687945655  0.3156895378855822  0.2995399559025103  1.0000
  N   N21       1.0  0.806788203540471  0.0325848207044359  0.0910881353912174  1.0000
  N   N22       1.0  0.7742617436127405  0.967339506697023  0.9090352184017618  1.0000
  N   N23       1.0  0.27425952828589584  0.967339506697023  0.5909641856861896  1.0000
  N   N24       1.0  0.3067861224213431  0.0325828443096583  0.4089124605208241  1.0000
  O   O1        1.0  0.3099883528341678  0.2724815952495447  0.0633371074429405  1.0000
  O   O2        1.0  0.03747009257281769  0.7274407557571436  0.9366938799833164  1.0000
  O   O3        1.0  0.5374936821350361  0.7274565669153645  0.563304332280552  1.0000
  O   O4        1.0  0.8099849134494406  0.2724904890260476  0.436665872117274  1.0000
  O   O5        1.0  0.6550396759299559  0.392651338737231  0.9784983016506742  1.0000
  O   O6        1.0  0.2624174507466535  0.607155393174942  0.0214510458256356  1.0000
  O   O7        1.0  0.7624289136477741  0.6071514403853868  0.4785465705261914  1.0000
  O   O8        1.0  0.1550257852982853  0.3926414567633429  0.5215052738215817  1.0000
  O   O9        1.0  0.737211743658918  0.2095719612692832  0.9602550503545686  1.0000
  O   O10       1.0  0.5272406255577381  0.7906211558219809  0.0397848757523391  1.0000
  O   O11       1.0  0.02724361958202339  0.790627085006321  0.460217507895834  1.0000
  O   O12       1.0  0.23723305588674043  0.2095808550457861  0.5397455455574729  1.0000
  O   O13       1.0  0.9372720008343763  0.42256901468878993  0.007655682021336901  1.0000
  O   O14       1.0  0.5151304125376015  0.5777980251429327  0.9925022346701624  1.0000
  O   O15       1.0  0.015147729279569026  0.5778079071168278  0.5075007448900521  1.0000
  O   O16       1.0  0.43726682694193647  0.4225877904391808  0.492340742506407  1.0000
  O   O17       1.0  0.7194789989315071  0.2901090602742826  0.0950652523687481  1.0000
  O   O18       1.0  0.4295360911136825  0.7098953111156874  0.904938323103508  1.0000
  O   O19       1.0  0.9295343109546793  0.7098962993130797  0.595062868720575  1.0000
  O   O20       1.0  0.21947292232652424  0.2901080720768903  0.4049359394553349  1.0000
  O   O21       1.0  0.47906989845713355  0.0565565129664662  0.0815320898635363  1.0000
  O   O22       1.0  0.4224694416032975  0.943506162069454  0.918510815803586  1.0000
  O   O23       1.0  0.922466404841721  0.943509126661617  0.5814915678445871  1.0000
  O   O24       1.0  0.979071125596839  0.0565545365716886  0.4184720815207683  1.0000
