data_image0
_chemical_formula_structural       Zn8H36C60S12O26
_chemical_formula_sum              "Zn8 H36 C60 S12 O26"
_cell_length_a       20.073791296308553
_cell_length_b       20.197036531720734
_cell_length_c       21.298267867529656
_cell_angle_alpha    60.95873724695416
_cell_angle_beta     89.99404798820804
_cell_angle_gamma    61.034051977098514

_space_group_name_H-M_alt    "P 1"
_space_group_IT_number       1

loop_
  _space_group_symop_operation_xyz
  'x, y, z'

loop_
  _atom_site_type_symbol
  _atom_site_label
  _atom_site_symmetry_multiplicity
  _atom_site_fract_x
  _atom_site_fract_y
  _atom_site_fract_z
  _atom_site_occupancy
  Zn  Zn1       1.0  0.9474537654048734  0.09882841300137811  0.8795096085107232  1.0000
  Zn  Zn2       1.0  0.9355601988337838  0.11092374688294629  0.020243870456638998  1.0000
  Zn  Zn3       1.0  0.09767857088758812  0.9520503762192264  0.0255597533194275  1.0000
  Zn  Zn4       1.0  0.940300035508706  0.9458256887777525  0.02409409172263816  1.0000
  Zn  Zn5       1.0  0.5171660301769166  0.9513820988356229  0.5972718091082426  1.0000
  Zn  Zn6       1.0  0.5191131212597784  0.9448196000212049  0.45241306687059785  1.0000
  Zn  Zn7       1.0  0.5213960238259503  0.1048851825629811  0.4503301608017408  1.0000
  Zn  Zn8       1.0  0.36253958461910685  0.1039089289074298  0.4527422462670216  1.0000
  H   H1        1.0  0.6293063132150962  0.6968237139734227  0.524677108079281  1.0000
  H   H2        1.0  0.7211916934002007  0.5909422485715935  0.5582757918835028  1.0000
  H   H3        1.0  0.6327802595166503  0.5937890564969237  0.5690458459335659  1.0000
  H   H4        1.0  0.8007419551182267  0.4289534670707695  0.6417957009071102  1.0000
  H   H5        1.0  0.713295791975014  0.4296553334085971  0.6530222950795092  1.0000
  H   H6        1.0  0.8087331204722263  0.32793736004970947  0.7138219874465791  1.0000
  H   H7        1.0  0.1988683579435957  0.1944909942394659  0.5347013167662666  1.0000
  H   H8        1.0  0.11664799873922499  0.19276962351430177  0.565193611502302  1.0000
  H   H9        1.0  0.1583164602481588  0.2398965120817991  0.5894257301970924  1.0000
  H   H10       1.0  0.0395904427018223  0.19429492308706392  0.6522106764720303  1.0000
  H   H11       1.0  0.08276162504421343  0.24014665889863807  0.6765969674664587  1.0000
  H   H12       1.0  0.028465857639730512  0.20004164179643877  0.7326836246997458  1.0000
  H   H13       1.0  0.6593544714523532  0.1456218033347199  0.5235468170036057  1.0000
  H   H14       1.0  0.6749426681007763  0.19829132887964113  0.5639418341878439  1.0000
  H   H15       1.0  0.757946257558892  0.11099541667289259  0.5617274054506749  1.0000
  H   H16       1.0  0.7633187053729316  0.1893674156448029  0.6485272626354613  1.0000
  H   H17       1.0  0.8462889329479568  0.10095921583485531  0.6474085645218324  1.0000
  H   H18       1.0  0.8589840273646275  0.1250714986521331  0.7149986114547388  1.0000
  H   H19       1.0  0.18787809551172777  0.11108414081311219  0.3737467304265394  1.0000
  H   H20       1.0  0.13690508416554087  0.19350837819219888  0.2762239008387297  1.0000
  H   H21       1.0  0.1098329854079338  0.1154964437717823  0.3278179300688251  1.0000
  H   H22       1.0  0.04139853637813924  0.19426047297194063  0.1908772269496666  1.0000
  H   H23       1.0  0.03125021541404039  0.10426999315953371  0.2536314644822113  1.0000
  H   H24       1.0  0.0007601579573019796  0.15333622101213254  0.15514993042926045  1.0000
  H   H25       1.0  0.591486060171249  0.19602384061164463  0.2840095056910954  1.0000
  H   H26       1.0  0.6812617896901756  0.18687223850397325  0.2665167881895129  1.0000
  H   H27       1.0  0.5978559639498614  0.24222376227292136  0.1901145947564799  1.0000
  H   H28       1.0  0.7528288266867237  0.19565945599248377  0.17319427821021088  1.0000
  H   H29       1.0  0.6691165599882041  0.24571867884582588  0.09959358692641729  1.0000
  H   H30       1.0  0.7661261580024287  0.20188517155661861  0.08819110681943697  1.0000
  H   H31       1.0  0.4511760992893911  0.34865558197707003  0.3539504364063504  1.0000
  H   H32       1.0  0.42505867800822034  0.4449878322932648  0.2626937884085833  1.0000
  H   H33       1.0  0.40530301300024985  0.45881699562505673  0.3377385968451775  1.0000
  H   H34       1.0  0.34347471361041215  0.6082053684774352  0.18210439730435005  1.0000
  H   H35       1.0  0.3215356861429228  0.6224492906861131  0.25669219860191106  1.0000
  H   H36       1.0  0.26659414935782166  0.7170041281529933  0.16150571711740713  1.0000
  C   C1        1.0  0.8545581681306943  0.27258712753931746  0.8645881678549329  1.0000
  C   C2        1.0  0.8060039832358329  0.37201716680527147  0.8155476405523032  1.0000
  C   C3        1.0  0.735128351999407  0.5307469273192923  0.7770941391322169  1.0000
  C   C4        1.0  0.6558633177983992  0.6797171896708677  0.6574671836533738  1.0000
  C   C5        1.0  0.6064345032203207  0.7789734204868141  0.6056998296366057  1.0000
  C   C6        1.0  0.682348663295599  0.6108016384070113  0.645112312158723  1.0000
  C   C7        1.0  0.6651537444930893  0.6245433347593162  0.5698072304674608  1.0000
  C   C8        1.0  0.7287079795118385  0.5233885522977957  0.7151229785184866  1.0000
  C   C9        1.0  0.7701157761447136  0.4304482603611887  0.7378167978153343  1.0000
  C   C10       1.0  0.7738277248672458  0.40194662109477264  0.6840742268386676  1.0000
  C   C11       1.0  0.11160203850719343  0.032582972471779194  0.8736028555056309  1.0000
  C   C12       1.0  0.16225076812242634  0.030923639854044904  0.8241869659093837  1.0000
  C   C13       1.0  0.2774631892837576  0.9734752481977935  0.7805443935260283  1.0000
  C   C14       1.0  0.30699101775733334  0.0299398113636329  0.6605076002686799  1.0000
  C   C15       1.0  0.3528216515101121  0.0313752565317102  0.6067851032222507  1.0000
  C   C16       1.0  0.23018873720763375  0.09383235597321972  0.6524531121619858  1.0000
  C   C17       1.0  0.17326753315359159  0.18507657666658164  0.5812500484491351  1.0000
  C   C18       1.0  0.2127835503143913  0.0610274037752916  0.7227345493793678  1.0000
  C   C19       1.0  0.1456904603127072  0.09478527236554873  0.7485983602477403  1.0000
  C   C20       1.0  0.0697141216243864  0.18729750099382161  0.7003004178482468  1.0000
  C   C21       1.0  0.8755890679869154  0.008143260590920003  0.8665904834425361  1.0000
  C   C22       1.0  0.8269594699450452  0.006179684885886201  0.8169672359859277  1.0000
  C   C23       1.0  0.7407192547297541  0.9705879156331748  0.7775225526211855  1.0000
  C   C24       1.0  0.662515372627503  0.021680127240308895  0.6566097231606206  1.0000
  C   C25       1.0  0.6075625013104969  0.0295975731762965  0.6040185861114082  1.0000
  C   C26       1.0  0.7029681424391256  0.06428486590247931  0.6447111817591775  1.0000
  C   C27       1.0  0.6982226967762344  0.13353252390231776  0.5690647265106463  1.0000
  C   C28       1.0  0.7489158680662769  0.034466853778852204  0.7153905601236374  1.0000
  C   C29       1.0  0.7996927208409517  0.054862536755123904  0.7386727776883645  1.0000
  C   C30       1.0  0.8184600938425818  0.12113999973782093  0.6848569255937917  1.0000
  C   C31       1.0  0.09411424913311349  0.0317234104172925  0.11327868222034  1.0000
  C   C32       1.0  0.1456910974189043  0.023347425724004698  0.1691597867397476  1.0000
  C   C33       1.0  0.2693943408343742  0.9739450061892398  0.24898506504008813  1.0000
  C   C34       1.0  0.3033337647557773  0.011456442529151904  0.3323893377573198  1.0000
  C   C35       1.0  0.3525281797442048  0.0150783940753811  0.3799822632142024  1.0000
  C   C36       1.0  0.2207831327944589  0.0580606583929466  0.3043054556089686  1.0000
  C   C37       1.0  0.1607591431633324  0.1224946081749252  0.3220322728346545  1.0000
  C   C38       1.0  0.20058814552728424  0.03688534980360459  0.2548522461628764  1.0000
  C   C39       1.0  0.1282094441872133  0.06571966844276031  0.20788377491208368  1.0000
  C   C40       1.0  0.0456891542970439  0.1333785107959997  0.20096771441492223  1.0000
  C   C41       1.0  0.8392548893627847  0.039312455544653284  0.09266305119032128  1.0000
  C   C42       1.0  0.7881819302869103  0.03832367978075981  0.14201571150741898  1.0000
  C   C43       1.0  0.7256482100890765  0.9809189567611725  0.2349466538584933  1.0000
  C   C44       1.0  0.6437613416131854  0.032927354495143404  0.3065795495466261  1.0000
  C   C45       1.0  0.5989472788006936  0.0316032078208508  0.36114331025350305  1.0000
  C   C46       1.0  0.6597133786576421  0.09656943503302529  0.2580936843277896  1.0000
  C   C47       1.0  0.6305882919126233  0.1852358842250439  0.24946470822505518  1.0000
  C   C48       1.0  0.7077942124911587  0.06624788810132291  0.216149213719703  1.0000
  C   C49       1.0  0.7438776307861019  0.1000498142384316  0.1612253510908133  1.0000
  C   C50       1.0  0.7328808806868494  0.1905871814141733  0.12855525890510933  1.0000
  C   C51       1.0  0.10495629860471913  0.7803507531844361  0.11167490507997249  1.0000
  C   C52       1.0  0.15319136231806138  0.6808625580570365  0.16288008040719146  1.0000
  C   C53       1.0  0.18605120085913274  0.5249372645189326  0.2363301125963843  1.0000
  C   C54       1.0  0.3083108466835398  0.37280659643386826  0.3197644561077765  1.0000
  C   C55       1.0  0.3599235285904003  0.27335327051037683  0.3695890175415286  1.0000
  C   C56       1.0  0.3253759421051186  0.43893710275092696  0.2936943493303517  1.0000
  C   C57       1.0  0.40652376455917505  0.4211393691585458  0.31353006761495544  1.0000
  C   C58       1.0  0.25400469058517683  0.5280139318990038  0.24465376905749986  1.0000
  C   C59       1.0  0.23454165670094063  0.6194452080469476  0.2015556862956344  1.0000
  C   C60       1.0  0.2944336337799173  0.6438125426364038  0.19990484349336404  1.0000
  S   S1        1.0  0.7904891231360268  0.4281938689978517  0.8614362687583891  1.0000
  S   S2        1.0  0.6862295795465343  0.6402765348276845  0.7526493689898144  1.0000
  S   S3        1.0  0.2585898676657833  0.931530933967835  0.8647190117914432  1.0000
  S   S4        1.0  0.3586659720653244  0.931104614950634  0.7520330674746346  1.0000
  S   S5        1.0  0.792220058830125  0.9357480760122385  0.8626960528680455  1.0000
  S   S6        1.0  0.679112960855903  0.9461762016833647  0.7522644610575708  1.0000
  S   S7        1.0  0.24848097695180363  0.948979946835408  0.18877605514069262  1.0000
  S   S8        1.0  0.35692809277544035  0.9409265849662134  0.3010240194557454  1.0000
  S   S9        1.0  0.7849118259348414  0.9411111958238224  0.1880452448205217  1.0000
  S   S10       1.0  0.6847112761037977  0.9377769790580786  0.3009247514817234  1.0000
  S   S11       1.0  0.09980251146034651  0.6295410097532681  0.17836394723352092  1.0000
  S   S12       1.0  0.20680532494306894  0.41723613310156094  0.28595539731571756  1.0000
  O   O1        1.0  0.9804423481411109  0.025040370973549397  0.989520846724723  1.0000
  O   O2        1.0  0.8842004042134449  0.23822504212660087  0.9345621091880005  1.0000
  O   O3        1.0  0.8640959577266045  0.22716593639034244  0.8355815877317241  1.0000
  O   O4        1.0  0.581631766975413  0.8149741458142544  0.5349046861613189  1.0000
  O   O5        1.0  0.5920067926888423  0.822396624164817  0.6376511480507503  1.0000
  O   O6        1.0  0.14540418735609947  0.9651724799576513  0.9430434456795209  1.0000
  O   O7        1.0  0.0380301448221374  0.09906646619899821  0.8449173061228592  1.0000
  O   O8        1.0  0.3186957467934235  0.09710320663018729  0.5371483845966694  1.0000
  O   O9        1.0  0.42609350220130443  0.9633871678878309  0.6356104673338621  1.0000
  O   O10       1.0  0.8829997882596105  0.9626214253553087  0.9370260381790628  1.0000
  O   O11       1.0  0.9062394145112407  0.05459290353041982  0.8368070544380259  1.0000
  O   O12       1.0  0.5959536234024299  0.0774016977289449  0.5329444196938056  1.0000
  O   O13       1.0  0.5748800565130099  0.9858241764185677  0.6356164259155718  1.0000
  O   O14       1.0  0.1318044551408377  0.9861055807778953  0.08496557805326421  1.0000
  O   O15       1.0  0.0179871258295847  0.0821469075128647  0.09660715689266651  1.0000
  O   O16       1.0  0.31765737073939  0.06800087311115277  0.4025947385626409  1.0000
  O   O17       1.0  0.4283912488008356  0.9641026224240008  0.3941468968676459  1.0000
  O   O18       1.0  0.8694784868404566  0.9730467946483686  0.08388897159419165  1.0000
  O   O19       1.0  0.8508266562197236  0.1036506056973039  0.06340387976795371  1.0000
  O   O20       1.0  0.5752060107738757  0.0926338892215526  0.3755358289872319  1.0000
  O   O21       1.0  0.5881647249465445  0.9663516768541315  0.39112886319808376  1.0000
  O   O22       1.0  0.029425498804258307  0.8173037494722947  0.08790021565486231  1.0000
  O   O23       1.0  0.14037349683745506  0.8221894131153319  0.09442508294009853  1.0000
  O   O24       1.0  0.4349135133570314  0.23488318311168402  0.3970989570032444  1.0000
  O   O25       1.0  0.3238930271793663  0.23229454071837102  0.3814318391603706  1.0000
  O   O26       1.0  0.4797734501494944  0.027514836846371807  0.4866765748167906  1.0000
