data_image0
_chemical_formula_structural       Cu2H16C14O14
_chemical_formula_sum              "Cu2 H16 C14 O14"
_cell_length_a       6.479496531444045
_cell_length_b       8.607011037945234
_cell_length_c       9.63973063781476
_cell_angle_alpha    68.73607950132912
_cell_angle_beta     77.38286932362006
_cell_angle_gamma    85.50346205104685

_space_group_name_H-M_alt    "P 1"
_space_group_IT_number       1

loop_
  _space_group_symop_operation_xyz
  'x, y, z'

loop_
  _atom_site_type_symbol
  _atom_site_label
  _atom_site_symmetry_multiplicity
  _atom_site_fract_x
  _atom_site_fract_y
  _atom_site_fract_z
  _atom_site_occupancy
  Cu  Cu1       1.0  0.5896758226862036  0.8097760733606378  0.3488800859464405  1.0000
  Cu  Cu2       1.0  0.4103143709823626  0.19022446281675093  0.6511214625366151  1.0000
  H   H1        1.0  0.7756408338773468  0.8628480296473668  0.9719938009110863  1.0000
  H   H2        1.0  0.22435918184383044  0.13716350414951253  0.028001867681751894  1.0000
  H   H3        1.0  0.6502441841158345  0.9131150819346417  0.7338868680417932  1.0000
  H   H4        1.0  0.3497398425760069  0.08689756822096939  0.2661122432884468  1.0000
  H   H5        1.0  0.042582680708434933  0.6540360295420626  0.6216326737071611  1.0000
  H   H6        1.0  0.9574271556513382  0.345958417315849  0.3783605705698747  1.0000
  H   H7        1.0  0.8996591551855175  0.643255800937702  0.5109573388984856  1.0000
  H   H8        1.0  0.1003563047644178  0.3567434273884516  0.4890235450061978  1.0000
  H   H9        1.0  0.3661417986152671  0.6205496534372654  0.3168419420787103  1.0000
  H   H10       1.0  0.6338600588188256  0.3794464064612128  0.6831606838975262  1.0000
  H   H11       1.0  0.21128161649991745  0.7355387301708021  0.38743262323753663  1.0000
  H   H12       1.0  0.7887152006049405  0.2644584772712975  0.6125622035390066  1.0000
  H   H13       1.0  0.8961518257624376  0.8969611718550751  0.40987359006121693  1.0000
  H   H14       1.0  0.10385252334963717  0.10303991996965327  0.5901213361692541  1.0000
  H   H15       1.0  0.7280804166642978  0.04929747552813516  0.3767467877684042  1.0000
  H   H16       1.0  0.2719241735752078  0.9507013483587982  0.6232474980475118  1.0000
  C   C1        1.0  0.7904752176484208  0.5736620199607003  0.1965505095498443  1.0000
  C   C2        1.0  0.2095102256645163  0.4263399863187304  0.8034620201419712  1.0000
  C   C3        1.0  0.6603945190408637  0.6117161570941433  0.07708502644457846  1.0000
  C   C4        1.0  0.3395877570234873  0.38828513809567533  0.9229239635497988  1.0000
  C   C5        1.0  0.5388267487621405  0.48498326584806506  0.0679260381921694  1.0000
  C   C6        1.0  0.46115504504734867  0.5150225652173293  0.932084232631304  1.0000
  C   C7        1.0  0.6839689128811771  0.7671690116579271  0.9631300483085283  1.0000
  C   C8        1.0  0.31601611365679355  0.232835528294153  0.03687470168755172  1.0000
  C   C9        1.0  0.6104596248513232  0.7961359891268953  0.8291518468757176  1.0000
  C   C10       1.0  0.38953219264337235  0.203878758247363  0.17085082365592544  1.0000
  C   C11       1.0  0.48904914024014806  0.3291404861915268  0.1901274196331713  1.0000
  C   C12       1.0  0.5109551828868674  0.6708624212089589  0.8098776471092107  1.0000
  C   C13       1.0  0.4926113041455835  0.3101958303195858  0.3494404195253793  1.0000
  C   C14       1.0  0.5074050423588902  0.6897997729827096  0.6505683242568311  1.0000
  O   O1        1.0  0.8059907861106481  0.681780384037225  0.257610567612346  1.0000
  O   O2        1.0  0.19401618648392122  0.31821530323808395  0.7424091378746809  1.0000
  O   O3        1.0  0.8905975201607177  0.4376799223939115  0.2261551356392602  1.0000
  O   O4        1.0  0.10939040132042527  0.5623254868631731  0.773838473807821  1.0000
  O   O5        1.0  0.4073122885054303  0.4228982267888173  0.3983585599822561  1.0000
  O   O6        1.0  0.5927100588693364  0.5770998109362466  0.6016445231362796  1.0000
  O   O7        1.0  0.5563737223970904  0.17325821778933204  0.4410660503285158  1.0000
  O   O8        1.0  0.4436328716931044  0.8267232375157505  0.5589323924821201  1.0000
  O   O9        1.0  0.006823912310025522  0.7143596156344286  0.5160860577583861  1.0000
  O   O10       1.0  0.9931919644148763  0.28563707901907526  0.48390260584204003  1.0000
  O   O11       1.0  0.3425096860793104  0.7413931042371402  0.30489762088755157  1.0000
  O   O12       1.0  0.6574921141917472  0.2586026615147007  0.6950998249396036  1.0000
  O   O13       1.0  0.8085365256114514  0.9650802488955534  0.3359606990803954  1.0000
  O   O14       1.0  0.19146666964383033  0.03491704592383377  0.6640351667411365  1.0000
