data_image0
_chemical_formula_structural       Co2H32C40N4O8
_chemical_formula_sum              "Co2 H32 C40 N4 O8"
_cell_length_a       9.974181596308684
_cell_length_b       9.978209947038664
_cell_length_c       10.779162316799384
_cell_angle_alpha    81.0832834868079
_cell_angle_beta     67.60655624317859
_cell_angle_gamma    77.28766704379974

_space_group_name_H-M_alt    "P 1"
_space_group_IT_number       1

loop_
  _space_group_symop_operation_xyz
  'x, y, z'

loop_
  _atom_site_type_symbol
  _atom_site_label
  _atom_site_symmetry_multiplicity
  _atom_site_fract_x
  _atom_site_fract_y
  _atom_site_fract_z
  _atom_site_occupancy
  Co  Co1       1.0  0.12384942003531306  0.8924244349879374  0.8255461591874463  1.0000
  Co  Co2       1.0  0.8761692264852456  0.10767809158918601  0.17435101088945254  1.0000
  H   H1        1.0  0.3228808225415065  0.764756760606332  0.9757703021605195  1.0000
  H   H2        1.0  0.6771357556517116  0.23520676360551823  0.0242292848442106  1.0000
  H   H3        1.0  0.32523550803470136  0.5997298756151539  0.17373704838466617  1.0000
  H   H4        1.0  0.6747739396084071  0.4002647789090545  0.8262928856130501  1.0000
  H   H5        1.0  0.9158509915262554  0.6974968802826497  0.008239793975519627  1.0000
  H   H6        1.0  0.08415990117128301  0.30249568302053836  0.9917834404376223  1.0000
  H   H7        1.0  0.7051182284719956  0.9789312953235628  0.7785885871281906  1.0000
  H   H8        1.0  0.2948461710567969  0.021083909861388906  0.22138767348982924  1.0000
  H   H9        1.0  0.5556012810963792  0.9876350630008873  0.20802857967490235  1.0000
  H   H10       1.0  0.4443607262882806  0.0123890284669415  0.7918933920091931  1.0000
  H   H11       1.0  0.9918940001448535  0.43947006297688773  0.38708037858096095  1.0000
  H   H12       1.0  0.008121618197335959  0.5605359372648453  0.6129289226244339  1.0000
  H   H13       1.0  0.14988515630958685  0.4875897197358371  0.39257774630128484  1.0000
  H   H14       1.0  0.8501369754388718  0.5124112505138215  0.6074355340001816  1.0000
  H   H15       1.0  0.9030782396095985  0.5246821616333434  0.20494415560507664  1.0000
  H   H16       1.0  0.09691995335713699  0.4753258707668095  0.7951035871508978  1.0000
  H   H17       1.0  0.5687606100546886  0.5799613240994506  0.6712408940792401  1.0000
  H   H18       1.0  0.431230839121774  0.42003490819016803  0.3287646678527736  1.0000
  H   H19       1.0  0.2578218746813405  0.6021057453456465  0.47939782800798963  1.0000
  H   H20       1.0  0.7421682466130619  0.39789662273715015  0.5206007927403604  1.0000
  H   H21       1.0  0.14986046759803875  0.263600211264759  0.2271223598582495  1.0000
  H   H22       1.0  0.8501391443226965  0.7364096608882705  0.7728893391408318  1.0000
  H   H23       1.0  0.3111274298032498  0.30776832893599254  0.231052109279581  1.0000
  H   H24       1.0  0.688865362507961  0.6922269294300137  0.7689586823739701  1.0000
  H   H25       1.0  0.4094491357064741  0.17721349488900986  0.3990841589287015  1.0000
  H   H26       1.0  0.5905273379721405  0.8227568854012406  0.6009613104442125  1.0000
  H   H27       1.0  0.9486701391078821  0.2079736338942979  0.4653652650014236  1.0000
  H   H28       1.0  0.051325006796375285  0.792030910511258  0.5346358568578893  1.0000
  H   H29       1.0  0.9260052413481717  0.057244691280502004  0.6787335864797726  1.0000
  H   H30       1.0  0.07395835237866775  0.9427540683258259  0.321260288025158  1.0000
  H   H31       1.0  0.3673094870353992  0.024324367500931008  0.6122020211398649  1.0000
  H   H32       1.0  0.6326646169804775  0.9756355159008553  0.3878282565060545  1.0000
  C   C1        1.0  0.23076174231700716  0.7110072255008008  0.030835332677547404  1.0000
  C   C2        1.0  0.7692477843512079  0.2889799456897748  0.9691604456845935  1.0000
  C   C3        1.0  0.23167257554204912  0.617660748512762  0.14055998571735268  1.0000
  C   C4        1.0  0.7683451210680871  0.3823182710365672  0.8594331513356437  1.0000
  C   C5        1.0  0.8015711133377506  0.9606000756592226  0.9849326852308593  1.0000
  C   C6        1.0  0.19839766270744966  0.0394100867583305  0.015051109343623583  1.0000
  C   C7        1.0  0.6461155360439503  0.9798191777186535  0.9927660876513117  1.0000
  C   C8        1.0  0.35385006536289154  0.020215540646937306  0.007186387328125837  1.0000
  C   C9        1.0  0.004218885993822081  0.6730986403636623  0.04837025060581365  1.0000
  C   C10       1.0  0.9957982464282081  0.32690017360997814  0.9516432997736428  1.0000
  C   C11       1.0  0.6146778392402367  0.9879528600927263  0.8752305980843857  1.0000
  C   C12       1.0  0.38529587594693027  0.012090309537711603  0.1247260305056486  1.0000
  C   C13       1.0  0.5301102594800327  0.9925192220658161  0.11764950404909764  1.0000
  C   C14       1.0  0.469859392591637  0.007526842606459603  0.8822877404577127  1.0000
  C   C15       1.0  0.11217556590566598  0.5489905170284858  0.20792355585553682  1.0000
  C   C16       1.0  0.8878379917697357  0.45098858388619334  0.7920914705926593  1.0000
  C   C17       1.0  0.10702160275225477  0.4485231549587142  0.3277715422043457  1.0000
  C   C18       1.0  0.8929841517820807  0.5514786396469944  0.6722530788314456  1.0000
  C   C19       1.0  0.9974775151251548  0.5772786222865065  0.15795609505006059  1.0000
  C   C20       1.0  0.0025419098791487657  0.4227088302484321  0.8420546313836469  1.0000
  C   C21       1.0  0.4031689882444096  0.601345513826722  0.5841473676560086  1.0000
  C   C22       1.0  0.5968455650497545  0.39866443438911864  0.4158375998610495  1.0000
  C   C23       1.0  0.5399093595015785  0.54425357259381  0.595719556368813  1.0000
  C   C24       1.0  0.4600983452806063  0.4557262895908139  0.4042714856483797  1.0000
  C   C25       1.0  0.36407973900161744  0.5561328818633984  0.4878196663571117  1.0000
  C   C26       1.0  0.6359272430669733  0.4438614992777233  0.5121777970446004  1.0000
  C   C27       1.0  0.3006719839274794  0.7101565152156726  0.6724255289388239  1.0000
  C   C28       1.0  0.699399910732204  0.289846434155244  0.3275964359001548  1.0000
  C   C29       1.0  0.19463766192601634  0.303304893546681  0.29015507229821225  1.0000
  C   C30       1.0  0.8053724394052677  0.6966803370680952  0.7098574915563561  1.0000
  C   C31       1.0  0.18068474253698236  0.20782067989431147  0.41523011214936645  1.0000
  C   C32       1.0  0.8193135755857097  0.7921684080889265  0.5847721974002055  1.0000
  C   C33       1.0  0.2995012435719104  0.15402534210405616  0.4580072707042149  1.0000
  C   C34       1.0  0.7004825103817182  0.8459461233513753  0.5420270630724598  1.0000
  C   C35       1.0  0.043682604835858285  0.17227381402115333  0.4964128823009659  1.0000
  C   C36       1.0  0.9563101959031642  0.8277214510271025  0.503598833082236  1.0000
  C   C37       1.0  0.03061596087467679  0.08744854547472161  0.6138624895515363  1.0000
  C   C38       1.0  0.9693585006972613  0.9125298243152502  0.38614724465982403  1.0000
  C   C39       1.0  0.27686397296019283  0.06909062108514523  0.5769692077710147  1.0000
  C   C40       1.0  0.7231168579592692  0.9308838025989133  0.4230518161942739  1.0000
  N   N1        1.0  0.1179087879056908  0.7408768909630298  0.9856712221793417  1.0000
  N   N2        1.0  0.8821030779198723  0.2591104533768843  0.014343170834038603  1.0000
  N   N3        1.0  0.1449179230924997  0.0353330976682571  0.6547233826777514  1.0000
  N   N4        1.0  0.8550552772028792  0.9646554123935477  0.3452602272037951  1.0000
  O   O1        1.0  0.9027174070547228  0.92777225993725  0.8726998419393227  1.0000
  O   O2        1.0  0.0972416564794116  0.07226351735300802  0.12727245573844928  1.0000
  O   O3        1.0  0.35092524762094257  0.7812507677963725  0.7282583143122777  1.0000
  O   O4        1.0  0.6491747765428997  0.2187114269033401  0.27178285789909035  1.0000
  O   O5        1.0  0.1633819040818024  0.7315256761792953  0.691433810893379  1.0000
  O   O6        1.0  0.8366923811284294  0.26852898484959553  0.30857856921979004  1.0000
  O   O7        1.0  0.824788795902016  0.975628419837122  0.08973896887584928  1.0000
  O   O8        1.0  0.1751887672599963  0.024344737082657306  0.9102574453457137  1.0000
