data_image0
_chemical_formula_structural       Zn2H36C46N4O16
_chemical_formula_sum              "Zn2 H36 C46 N4 O16"
_cell_length_a       8.632068424685885
_cell_length_b       12.595554665320044
_cell_length_c       12.6117
_cell_angle_alpha    107.13761645728987
_cell_angle_beta     108.33399162146495
_cell_angle_gamma    108.62699299146446

_space_group_name_H-M_alt    "P 1"
_space_group_IT_number       1

loop_
  _space_group_symop_operation_xyz
  'x, y, z'

loop_
  _atom_site_type_symbol
  _atom_site_label
  _atom_site_symmetry_multiplicity
  _atom_site_fract_x
  _atom_site_fract_y
  _atom_site_fract_z
  _atom_site_occupancy
  Zn  Zn1       1.0  0.8336306214177114  0.9290100545978177  0.04038340719922209  1.0000
  Zn  Zn2       1.0  0.3327097349784864  0.0407376614694499  0.9286300359785429  1.0000
  H   H1        1.0  0.4034266412724605  0.9753536793715227  0.23232631008852414  1.0000
  H   H2        1.0  0.9018168800357953  0.2309496471154304  0.9749647749038388  1.0000
  H   H3        1.0  0.5661999200033065  0.623439822571477  0.8191284907840384  1.0000
  H   H4        1.0  0.0659754806645552  0.8190591240115026  0.6229558421535017  1.0000
  H   H5        1.0  0.9399650042083746  0.10779098864443877  0.571659784377573  1.0000
  H   H6        1.0  0.4388691395717501  0.5718381007907283  0.10783921688318536  1.0000
  H   H7        1.0  0.3728030174441058  0.9649046338115779  0.4925074943087465  1.0000
  H   H8        1.0  0.8717060931789077  0.4912441013125672  0.9646604632047657  1.0000
  H   H9        1.0  0.938412579960243  0.0022485405966605997  0.3044074343472332  1.0000
  H   H10       1.0  0.4395464371361442  0.3050414379499031  0.003080315365394857  1.0000
  H   H11       1.0  0.2091114975450381  0.1600194293305961  0.5081881182974044  1.0000
  H   H12       1.0  0.7105741185967744  0.509173671188492  0.1609717850897637  1.0000
  H   H13       1.0  0.44951074289521387  0.31899619238701143  0.3037383446202568  1.0000
  H   H14       1.0  0.9476054429092001  0.3030558954653344  0.3179130496911142  1.0000
  H   H15       1.0  0.16845589127471067  0.16036729562780036  0.11120280479789807  1.0000
  H   H16       1.0  0.6666166065648367  0.11014491500942108  0.15893929442327695  1.0000
  H   H17       1.0  0.5104134476270303  0.3127784320560494  0.616542312453845  1.0000
  H   H18       1.0  0.011871152620500416  0.6173824724365389  0.31341855999344403  1.0000
  H   H19       1.0  0.5136963951959927  0.4353467437009542  0.5763143380219375  1.0000
  H   H20       1.0  0.013063290492901593  0.5763389124537355  0.4351272617847854  1.0000
  H   H21       1.0  0.7049486440551505  0.2869197488857083  0.4879323866423562  1.0000
  H   H22       1.0  0.2048013886167439  0.4879417030326891  0.2870103023253421  1.0000
  H   H23       1.0  0.7493931824027271  0.4416624288608871  0.5147746695668972  1.0000
  H   H24       1.0  0.2476467054975798  0.5140932280725252  0.4410575697022381  1.0000
  H   H25       1.0  0.8299719568616123  0.4911956052067906  0.7445894755605734  1.0000
  H   H26       1.0  0.3304789868568604  0.7448572843216182  0.49156807939577607  1.0000
  H   H27       1.0  0.8179087361341854  0.3412167350067108  0.7106938048932747  1.0000
  H   H28       1.0  0.3197949690243432  0.7116076081074992  0.34222609880382737  1.0000
  H   H29       1.0  0.09191045981336289  0.3158653957121871  0.7307426458148357  1.0000
  H   H30       1.0  0.593391705965466  0.7310993121598698  0.3165167539164883  1.0000
  H   H31       1.0  0.4249349802711819  0.4223712375535554  0.7941874641647004  1.0000
  H   H32       1.0  0.9261068506039009  0.7943792692584991  0.42253528700982906  1.0000
  H   H33       1.0  0.4035349085666056  0.7421219174323497  0.7772610418961604  1.0000
  H   H34       1.0  0.901968242244969  0.7768432639332942  0.7411427946041372  1.0000
  H   H35       1.0  0.06612690944044183  0.6477065278079692  0.7085934106959472  1.0000
  H   H36       1.0  0.5649187584972921  0.7084161913004579  0.6472247377741526  1.0000
  C   C1        1.0  0.6517365601162766  0.0363655510102419  0.5190219407912836  1.0000
  C   C2        1.0  0.1506649467490107  0.5186453336935557  0.03632021360200348  1.0000
  C   C3        1.0  0.8334699241931388  0.0754217032736406  0.5997193479523872  1.0000
  C   C4        1.0  0.33267689281423424  0.5998296799978035  0.07555575478917816  1.0000
  C   C5        1.0  0.8799561752166339  0.0692794849535971  0.7135466407842729  1.0000
  C   C6        1.0  0.37971062493958385  0.7140184241350269  0.06957805743778069  1.0000
  C   C7        1.0  0.7415520623670419  0.026484469458331692  0.7489496512371546  1.0000
  C   C8        1.0  0.24156181391496284  0.7491790334402139  0.026871520853738607  1.0000
  C   C9        1.0  0.5594789957002319  0.9921650409623338  0.6698049281961075  1.0000
  C   C10       1.0  0.05906302752789117  0.6694999316498667  0.9922011707241509  1.0000
  C   C11       1.0  0.5147955932243065  0.9949610279838197  0.554739551879436  1.0000
  C   C12       1.0  0.01385491517387286  0.5540381647360135  0.9948083640329912  1.0000
  C   C13       1.0  0.6073098847176864  0.03685610777251469  0.3949126186683785  1.0000
  C   C14       1.0  0.1057315036824349  0.394160493253068  0.036535709256369786  1.0000
  C   C15       1.0  0.07748247732866527  0.10444755519813498  0.7913852260356932  1.0000
  C   C16       1.0  0.577407041771913  0.7922267882559666  0.1045264795549414  1.0000
  C   C17       1.0  0.7823387592005204  0.0135444027728511  0.8683141795640881  1.0000
  C   C18       1.0  0.28298079408845916  0.8691528034260896  0.0147594880443192  1.0000
  C   C19       1.0  0.4121706789837204  0.9561053884654526  0.7099742306392044  1.0000
  C   C20       1.0  0.9121787394125889  0.7097004054861031  0.9561061403944892  1.0000
  C   C21       1.0  0.05514607874622611  0.0746746767212016  0.30953651244498565  1.0000
  C   C22       1.0  0.5556945297186218  0.3099106334933168  0.07508131487301024  1.0000
  C   C23       1.0  0.2064165144628305  0.1626633997128195  0.4219146984345628  1.0000
  C   C24       1.0  0.7070812253708283  0.422484084261228  0.1631623793112452  1.0000
  C   C25       1.0  0.35510017642241115  0.2528437736385598  0.4241301420798465  1.0000
  C   C26       1.0  0.8548543044919725  0.4242831032620415  0.2528196248586809  1.0000
  C   C27       1.0  0.3406461997001741  0.2513525183859358  0.309844106779785  1.0000
  C   C28       1.0  0.8394568927046961  0.3094368638445815  0.2506581124775664  1.0000
  C   C29       1.0  0.1846290733586002  0.1615964853857434  0.2007257584145847  1.0000
  C   C30       1.0  0.6834342797603767  0.20012664142495848  0.16076236298223995  1.0000
  C   C31       1.0  0.520185182599036  0.34588635042251065  0.5461428445929997  1.0000
  C   C32       1.0  0.02023763350045722  0.546406556398189  0.34599226732814253  1.0000
  C   C33       1.0  0.7087822567647066  0.3715212054123426  0.5490817893836066  1.0000
  C   C34       1.0  0.20841886702254436  0.5490029632920609  0.3714930863924124  1.0000
  C   C35       1.0  0.8493852975597915  0.41841227661085867  0.6841707190667634  1.0000
  C   C36       1.0  0.35004001167299487  0.6845188025617972  0.418856777129065  1.0000
  C   C37       1.0  0.04697044888186492  0.4721263768451252  0.711133011332322  1.0000
  C   C38       1.0  0.5472410284835547  0.7112746636889966  0.47229665452134384  1.0000
  C   C39       1.0  0.1510107506604186  0.4085078796234853  0.7353142705707256  1.0000
  C   C40       1.0  0.6518708302492371  0.7355143230203395  0.408805874998201  1.0000
  C   C41       1.0  0.3369358230414505  0.46605597006632843  0.7715763125995353  1.0000
  C   C42       1.0  0.8375626894805137  0.7716746981984528  0.4660695404011647  1.0000
  C   C43       1.0  0.3248147872889717  0.6467394035447  0.7601405386614603  1.0000
  C   C44       1.0  0.823907936109684  0.7598798857032207  0.6461124544158068  1.0000
  C   C45       1.0  0.1378601036821934  0.5921710257548369  0.7218608104425144  1.0000
  C   C46       1.0  0.6371534303661548  0.7217339680405388  0.5918448389650024  1.0000
  N   N1        1.0  0.04458463242869469  0.073791488025627  0.2002264991657938  1.0000
  N   N2        1.0  0.5441956632799858  0.2000632234404804  0.07352707691300955  1.0000
  N   N3        1.0  0.4195167035614134  0.5827208134504005  0.7837912471448547  1.0000
  N   N4        1.0  0.9192526859281571  0.783691473639351  0.5822981519293791  1.0000
  O   O1        1.0  0.42873153633194516  0.9756875564074434  0.3193414394638551  1.0000
  O   O2        1.0  0.9271142468904188  0.318234243955871  0.9754949342337937  1.0000
  O   O3        1.0  0.7268936688891117  0.0889903540993799  0.3681754022020129  1.0000
  O   O4        1.0  0.2249457578067151  0.3673943733342711  0.08828732480350958  1.0000
  O   O5        1.0  0.20195249424052966  0.18214577759100334  0.7844945188466783  1.0000
  O   O6        1.0  0.7014183893270385  0.7852200335887217  0.18175938214984189  1.0000
  O   O7        1.0  0.0986182403087312  0.0442797424259567  0.8582450578449399  1.0000
  O   O8        1.0  0.5992485386320751  0.85932954415415  0.04455816606354541  1.0000
  O   O9        1.0  0.8622404069720274  0.1083309741299061  0.9718065688752804  1.0000
  O   O10       1.0  0.3628229409744321  0.9724765546346035  0.10973551686770111  1.0000
  O   O11       1.0  0.7298357773092476  0.9028669231147575  0.8600365112014642  1.0000
  O   O12       1.0  0.23052126390342653  0.861172396173643  0.9044769018643066  1.0000
  O   O13       1.0  0.4566469665542954  0.0287973606568954  0.8204444683552197  1.0000
  O   O14       1.0  0.9568248861778272  0.8204869612796415  0.02864123949426289  1.0000
  O   O15       1.0  0.26087937610969175  0.8605288901546897  0.6326612049110379  1.0000
  O   O16       1.0  0.7611099006001893  0.6322549224137218  0.8607445870835236  1.0000
