data_image0
_chemical_formula_structural       Zn2H34C42N4Cl2O16
_chemical_formula_sum              "Zn2 H34 C42 N4 Cl2 O16"
_cell_length_a       9.473747390113868
_cell_length_b       9.966615583853542
_cell_length_c       12.799072568621996
_cell_angle_alpha    67.81401068992028
_cell_angle_beta     85.6800515995628
_cell_angle_gamma    69.50174800964103

_space_group_name_H-M_alt    "P 1"
_space_group_IT_number       1

loop_
  _space_group_symop_operation_xyz
  'x, y, z'

loop_
  _atom_site_type_symbol
  _atom_site_label
  _atom_site_symmetry_multiplicity
  _atom_site_fract_x
  _atom_site_fract_y
  _atom_site_fract_z
  _atom_site_occupancy
  Zn  Zn1       1.0  0.7637174615312219  0.006014144282716001  0.13141952728839357  1.0000
  Zn  Zn2       1.0  0.23628543807721752  0.993980889331937  0.8685830561143034  1.0000
  H   H1        1.0  0.2000136648902995  0.12016626344604477  0.5710800645796893  1.0000
  H   H2        1.0  0.799986587945973  0.8798333856390386  0.4289228771278459  1.0000
  H   H3        1.0  0.5829713048070744  0.766329508361821  0.9102793623080955  1.0000
  H   H4        1.0  0.4170261947408561  0.2336690006353664  0.08972014441316387  1.0000
  H   H5        1.0  0.22627455195461707  0.789977940172207  0.4775195582736203  1.0000
  H   H6        1.0  0.7737185842698082  0.21002403004306558  0.5224799481893854  1.0000
  H   H7        1.0  0.36013285194786687  0.7589095224136457  0.6483871964249772  1.0000
  H   H8        1.0  0.6398677130539953  0.24109247008016146  0.3516087985427774  1.0000
  H   H9        1.0  0.5088204528383073  0.2632200135668085  0.7520754261881705  1.0000
  H   H10       1.0  0.49117796896955224  0.736781957925089  0.2479245910565949  1.0000
  H   H11       1.0  0.370853228176358  0.2958915705743835  0.579825052576936  1.0000
  H   H12       1.0  0.6291449297336271  0.704108091660899  0.42017486709142554  1.0000
  H   H13       1.0  0.4316210408080962  0.683923720030272  0.8321122549704325  1.0000
  H   H14       1.0  0.5683803077590354  0.3160759566318276  0.16788515344050128  1.0000
  H   H15       1.0  0.5925568108298049  0.6660125340736871  0.7487792005592127  1.0000
  H   H16       1.0  0.4074444125341046  0.3339906116582156  0.2512172073556441  1.0000
  H   H17       1.0  0.8733621240521927  0.397167583441302  0.108106325687281  1.0000
  H   H18       1.0  0.12663510623478663  0.6028286125046023  0.8918938661593643  1.0000
  H   H19       1.0  0.025584038864423106  0.41611008261492793  0.25053725353484413  1.0000
  H   H20       1.0  0.9744100114915711  0.5838861064935088  0.7494638841656213  1.0000
  H   H21       1.0  0.9802255333356487  0.6756774290075214  0.2587375610360353  1.0000
  H   H22       1.0  0.01977063339895583  0.3243187621294438  0.7412634678964167  1.0000
  H   H23       1.0  0.6379759504621487  0.888718241390187  0.004145751494441117  1.0000
  H   H24       1.0  0.36202300173926716  0.1112791126027517  0.9958540162134992  1.0000
  H   H25       1.0  0.39384000335851976  0.0874883608443469  0.4528848947014054  1.0000
  H   H26       1.0  0.606162360493286  0.9125112864745831  0.5471187209399132  1.0000
  H   H27       1.0  0.9412800844086959  0.124571658890126  0.3818975157951384  1.0000
  H   H28       1.0  0.05872071231256363  0.8754326200922121  0.6181032729598144  1.0000
  H   H29       1.0  0.29482459367260117  0.9936998447593267  0.1696021030119255  1.0000
  H   H30       1.0  0.7051783140641845  0.006304432456850899  0.8303993596768108  1.0000
  H   H31       1.0  0.7054506426716998  0.24814122656031398  0.9532206390111426  1.0000
  H   H32       1.0  0.29455173726934447  0.7518584321426474  0.046780628524778885  1.0000
  H   H33       1.0  0.8060184773881431  0.1036224615726127  0.9200994540874986  1.0000
  H   H34       1.0  0.19398495001604485  0.896377190555249  0.0799033244680131  1.0000
  C   C1        1.0  0.2904703610050631  0.545120461216655  0.5195562086947163  1.0000
  C   C2        1.0  0.7095231696835284  0.4548803529800979  0.4804436131389807  1.0000
  C   C3        1.0  0.28783039049103104  0.6748303778424471  0.5379499284304429  1.0000
  C   C4        1.0  0.7121637985596152  0.3251715895924007  0.4620503063503563  1.0000
  C   C5        1.0  0.3647010066119378  0.6563747419301861  0.6343476135349347  1.0000
  C   C6        1.0  0.63529955302684  0.3436272467689392  0.36564916413462356  1.0000
  C   C7        1.0  0.4434298128370243  0.5073242472995573  0.7108865031213651  1.0000
  C   C8        1.0  0.5565736521087172  0.4926754313910706  0.28911079652156246  1.0000
  C   C9        1.0  0.44487548002762606  0.37765771084814054  0.6917060016615295  1.0000
  C   C10       1.0  0.555123346970568  0.6223431122145939  0.30829276555033397  1.0000
  C   C11       1.0  0.3686212522085555  0.3962356527597635  0.5958960618567417  1.0000
  C   C12       1.0  0.6313725423779104  0.6037674706936044  0.4041038575533662  1.0000
  C   C13       1.0  0.5410161428771331  0.6024453582380715  0.822395747688887  1.0000
  C   C14       1.0  0.4589880072460557  0.397555492664047  0.1775980513921382  1.0000
  C   C15       1.0  0.6461802613495848  0.5406601934296018  0.9272741011302017  1.0000
  C   C16       1.0  0.3538187311586539  0.45934642693293887  0.07271984965299788  1.0000
  C   C17       1.0  0.7462818800756067  0.6432691955298111  0.042459399916957366  1.0000
  C   C18       1.0  0.25371416681885245  0.3567304684716319  0.9575398458176136  1.0000
  C   C19       1.0  0.8564608480989834  0.5077062280100009  0.11387130906242492  1.0000
  C   C20       1.0  0.14353598772382978  0.49229112395441643  0.8861285674135359  1.0000
  C   C21       1.0  0.9407720306347257  0.519214862065951  0.1927055679420917  1.0000
  C   C22       1.0  0.05922453592712877  0.48078017684717617  0.8072949936592551  1.0000
  C   C23       1.0  0.915987837747295  0.6619012044862841  0.1989787117253599  1.0000
  C   C24       1.0  0.0840079345231288  0.3380961426691869  0.8010220018364008  1.0000
  C   C25       1.0  0.7252817722156948  0.7820362622989663  0.055959331582883534  1.0000
  C   C26       1.0  0.2747150636071182  0.2179610896654509  0.9440405448930775  1.0000
  C   C27       1.0  0.5209186479531026  0.0113292517225076  0.2780679839098923  1.0000
  C   C28       1.0  0.4790862160153251  0.9886692340170667  0.721937403737698  1.0000
  C   C29       1.0  0.3590867270334784  0.0431972833531162  0.3056580151645036  1.0000
  C   C30       1.0  0.6409163112696064  0.9568035285879404  0.6943436653185201  1.0000
  C   C31       1.0  0.31286388798216075  0.0818793939605698  0.40006269750437434  1.0000
  C   C32       1.0  0.6871385957097826  0.9181167804938751  0.5999427013348254  1.0000
  C   C33       1.0  0.1618625830790705  0.11193418548413801  0.42809889482690977  1.0000
  C   C34       1.0  0.8381383227561797  0.8880666130443657  0.5719052425295246  1.0000
  C   C35       1.0  0.05816867436344349  0.10291803380561498  0.3603916008433004  1.0000
  C   C36       1.0  0.9418333057503432  0.8970827771211842  0.6396101340237337  1.0000
  C   C37       1.0  0.106499378847694  0.058663325473908415  0.2683740476725518  1.0000
  C   C38       1.0  0.8935032703542947  0.94133864628035  0.731626534737984  1.0000
  C   C39       1.0  0.25686828211917867  0.030377002389002403  0.239900632861648  1.0000
  C   C40       1.0  0.7431347454577518  0.9696238019627047  0.7601026130249763  1.0000
  C   C41       1.0  0.9996919017692958  0.0325714629725127  0.20439906126115656  1.0000
  C   C42       1.0  0.00031153099796898894  0.9674281929500381  0.7956029345925516  1.0000
  N   N1        1.0  0.6546703076148572  0.6547375025835437  0.9569330700811775  1.0000
  N   N2        1.0  0.3453293190378445  0.3452610160315217  0.04306476246846099  1.0000
  N   N3        1.0  0.8091069211750008  0.7912001267923613  0.13102825359822384  1.0000
  N   N4        1.0  0.1908903091119853  0.2087960691535358  0.8689719382484211  1.0000
  Cl  Cl1       1.0  0.19891173130288559  0.5665680438534508  0.39860804060359084  1.0000
  Cl  Cl2       1.0  0.8010845794894478  0.43343392940460035  0.6013913027073912  1.0000
  O   O1        1.0  0.5232623163637412  0.4755445598084764  0.8080193306025406  1.0000
  O   O2        1.0  0.47674354494771615  0.5244574415513129  0.19197560974338043  1.0000
  O   O3        1.0  0.7175825293108459  0.40086977659926504  0.9781881051091118  1.0000
  O   O4        1.0  0.2824253311368847  0.5991264636413548  0.02180449858126817  1.0000
  O   O5        1.0  0.5449043378382897  0.05325496586446119  0.1705904101752722  1.0000
  O   O6        1.0  0.4550984258407667  0.9467435292306375  0.8294127381349412  1.0000
  O   O7        1.0  0.622869308560233  0.9491957677734248  0.35554638716433107  1.0000
  O   O8        1.0  0.3771329300883508  0.050807348615308  0.6444562279809105  1.0000
  O   O9        1.0  0.1123470295753961  0.14727920137357128  0.519835416401925  1.0000
  O   O10       1.0  0.8876553503656415  0.8527204573293972  0.4801658511340036  1.0000
  O   O11       1.0  0.857807060253883  0.08121932268781511  0.2211135123428249  1.0000
  O   O12       1.0  0.14219583935455649  0.9187757109268375  0.778889071059872  1.0000
  O   O13       1.0  0.046061918690810305  0.9617654648389832  0.13751961423356812  1.0000
  O   O14       1.0  0.9539421831646564  0.0382353519110197  0.8624812291636489  1.0000
  O   O15       1.0  0.7186276995448324  0.1391186574646852  0.9655358939129641  1.0000
  O   O16       1.0  0.28137612768660614  0.8608798424393526  0.03446641731144233  1.0000
