data_image0
_chemical_formula_structural       Cd8H16C16S12N24O16
_chemical_formula_sum              "Cd8 H16 C16 S12 N24 O16"
_cell_length_a       7.129042736716959
_cell_length_b       12.477819562000612
_cell_length_c       13.195962099279576
_cell_angle_alpha    90.00003484548162
_cell_angle_beta     101.60994321564294
_cell_angle_gamma    89.99999975125736

_space_group_name_H-M_alt    "P 1"
_space_group_IT_number       1

loop_
  _space_group_symop_operation_xyz
  'x, y, z'

loop_
  _atom_site_type_symbol
  _atom_site_label
  _atom_site_symmetry_multiplicity
  _atom_site_fract_x
  _atom_site_fract_y
  _atom_site_fract_z
  _atom_site_occupancy
  Cd  Cd1       1.0  0.21732602758500974  0.3864538923387144  0.4882350262932817  1.0000
  Cd  Cd2       1.0  0.282672626082082  0.8864521550339646  0.011763688970113206  1.0000
  Cd  Cd3       1.0  0.7826725451939396  0.6135464598856117  0.5117628494225528  1.0000
  Cd  Cd4       1.0  0.717327392925867  0.11354419008102214  0.988237373322299  1.0000
  Cd  Cd5       1.0  0.37654846395584235  0.3855179313448291  0.8027008091919966  1.0000
  Cd  Cd6       1.0  0.12344806210988679  0.8855171142974357  0.6972998426739848  1.0000
  Cd  Cd7       1.0  0.623451544385837  0.6144840237239252  0.19729797852666311  1.0000
  Cd  Cd8       1.0  0.8765519604542148  0.1144840393502164  0.30270197781169367  1.0000
  H   H1        1.0  0.995428311339765  0.1985180534160521  0.6212239635329836  1.0000
  H   H2        1.0  0.5045745094961731  0.6985149482142607  0.878776618153104  1.0000
  H   H3        1.0  0.004568843655128799  0.8014855044974855  0.3787767911405524  1.0000
  H   H4        1.0  0.4954297984211919  0.301480595478303  0.12122338918700849  1.0000
  H   H5        1.0  0.6663097242491247  0.22657906066842773  0.6660484245620422  1.0000
  H   H6        1.0  0.8336902387491494  0.7265751243560886  0.8339518664507961  1.0000
  H   H7        1.0  0.33368598451624354  0.7734236958220183  0.33394914353346644  1.0000
  H   H8        1.0  0.1663140762794768  0.273420419336958  0.1660496572729429  1.0000
  H   H9        1.0  0.4532181210528918  0.013758926331775001  0.35436206817963967  1.0000
  H   H10       1.0  0.0467861892777819  0.5137548709145748  0.1456393118033716  1.0000
  H   H11       1.0  0.5467818908444144  0.9862430287372281  0.6456374777308298  1.0000
  H   H12       1.0  0.9532152581817213  0.48624387846642503  0.8543611461084666  1.0000
  H   H13       1.0  0.6309521643766445  0.3287763145972918  0.38789702168731566  1.0000
  H   H14       1.0  0.8690528231914885  0.8287714352908895  0.11210397607838732  1.0000
  H   H15       1.0  0.36904641195820187  0.671226441893488  0.6121016122210605  1.0000
  H   H16       1.0  0.1309514918374006  0.17122651266837613  0.8878975476460765  1.0000
  C   C1        1.0  0.916383845999711  0.27337167398788154  0.6135311091471536  1.0000
  C   C2        1.0  0.583614691735143  0.7733677720026436  0.8864682981247753  1.0000
  C   C3        1.0  0.0836090023071776  0.7266286782364945  0.3864669095183971  1.0000
  C   C4        1.0  0.4163867592794617  0.22662616884616685  0.11353291797743031  1.0000
  C   C5        1.0  0.6932215834772181  0.3931730554566073  0.6176936711286131  1.0000
  C   C6        1.0  0.8067755557307946  0.893172355754864  0.8823071710740321  1.0000
  C   C7        1.0  0.30677270394811273  0.6068297010345207  0.38230601773181405  1.0000
  C   C8        1.0  0.1932287628536358  0.10682479078257502  0.117695110842007  1.0000
  C   C9        1.0  0.32737644896601364  0.14747061001220635  0.4196343089542651  1.0000
  C   C10       1.0  0.17262932280181084  0.6474673139752484  0.0803673055975835  1.0000
  C   C11       1.0  0.6726250020493866  0.852530543635254  0.5803669071501218  1.0000
  C   C12       1.0  0.8273721211019733  0.3525306339834415  0.9196323941222033  1.0000
  C   C13       1.0  0.5474411759906844  0.2568663163960637  0.3919160254522254  1.0000
  C   C14       1.0  0.9525652348684801  0.7568646399348045  0.10808659907699082  1.0000
  C   C15       1.0  0.4525588359066218  0.7431356386729322  0.6080835204582443  1.0000
  C   C16       1.0  0.04743621259111559  0.24313491086826397  0.8919138588350889  1.0000
  S   S1        1.0  0.49546266322890636  0.46383043867560053  0.636390688654231  1.0000
  S   S2        1.0  0.004535304969024899  0.9638281252251348  0.8636086479367292  1.0000
  S   S3        1.0  0.5045330419810057  0.5361739206587475  0.36360612124994424  1.0000
  S   S4        1.0  0.9954647175946433  0.03616902131216192  0.13639317254773434  1.0000
  S   S5        1.0  0.9027997710288673  0.36106396008812425  0.24215172202275428  1.0000
  S   S6        1.0  0.5972052129792118  0.8610615788911107  0.2578470206690823  1.0000
  S   S7        1.0  0.0972016728754497  0.6389387964029966  0.7578479776984892  1.0000
  S   S8        1.0  0.40279623092492767  0.13893957475585952  0.7421526790516709  1.0000
  S   S9        1.0  0.1363354133291494  0.0886486470981396  0.45896657938034474  1.0000
  S   S10       1.0  0.3636689134847728  0.5886437224952348  0.0410348458336784  1.0000
  S   S11       1.0  0.8636660376862509  0.9113525065493138  0.5410346367240422  1.0000
  S   S12       1.0  0.6363310984120076  0.4113534240413302  0.9589647000753416  1.0000
  N   N1        1.0  0.97296150133797  0.36381294442101375  0.5769827967491209  1.0000
  N   N2        1.0  0.5270370669701308  0.8638098673526503  0.9230189397224677  1.0000
  N   N3        1.0  0.0270327825318262  0.6361906134919411  0.42301613391973797  1.0000
  N   N4        1.0  0.47296581605157684  0.13618567634035372  0.07698243019074621  1.0000
  N   N5        1.0  0.8327278152612081  0.43919310239064663  0.5786809312321992  1.0000
  N   N6        1.0  0.6672707660825451  0.9391900237672817  0.9213200925750584  1.0000
  N   N7        1.0  0.16726502949022398  0.5608088526776387  0.4213163292420176  1.0000
  N   N8        1.0  0.3327321204946969  0.06080471850388852  0.0786820355297309  1.0000
  N   N9        1.0  0.7439456450459616  0.2882933602087335  0.6398265654773708  1.0000
  N   N10       1.0  0.7560557599871914  0.7882910437210318  0.8601731584283598  1.0000
  N   N11       1.0  0.2560500743862946  0.7117093962824372  0.3601732771935815  1.0000
  N   N12       1.0  0.243948547930259  0.2117053013936072  0.1398268489119943  1.0000
  N   N13       1.0  0.5987861203225364  0.16179921613630915  0.3611856202448038  1.0000
  N   N14       1.0  0.9012188376050289  0.6617951551756535  0.13881679305532657  1.0000
  N   N15       1.0  0.40121389513048916  0.8382035403550038  0.6388146838577242  1.0000
  N   N16       1.0  0.0987826062988475  0.33820359420510476  0.8611829066647018  1.0000
  N   N17       1.0  0.45973711698532344  0.0939075527812818  0.3792781063080425  1.0000
  N   N18       1.0  0.0402672145417284  0.5939026800774628  0.12072408027404437  1.0000
  N   N19       1.0  0.5402643304744501  0.906093600865937  0.6207223516045275  1.0000
  N   N20       1.0  0.9597327937994181  0.4060944664588675  0.8792747074431589  1.0000
  N   N21       1.0  0.38249371824441875  0.2524024072889689  0.4281544795644479  1.0000
  N   N22       1.0  0.1175120766190574  0.7523991060049938  0.0718471983632369  1.0000
  N   N23       1.0  0.6175062936528876  0.7475995477800343  0.5718450663460217  1.0000
  N   N24       1.0  0.8824893637290999  0.24759884195345458  0.92815174316474  1.0000
  O   O1        1.0  0.8283909300803741  0.25802510810653706  0.1907529143521245  1.0000
  O   O2        1.0  0.6716111850129067  0.7580219580105595  0.309249249444953  1.0000
  O   O3        1.0  0.17161195294202966  0.7419768469630416  0.8092484555630293  1.0000
  O   O4        1.0  0.32838883399556823  0.24197919563685139  0.6907518128489087  1.0000
  O   O5        1.0  0.0766908276311611  0.3930342778427019  0.20166232070928197  1.0000
  O   O6        1.0  0.4233121306163241  0.8930327227872183  0.2983383763437431  1.0000
  O   O7        1.0  0.9233134838422714  0.6069652729604657  0.7983384448238552  1.0000
  O   O8        1.0  0.5766878812808044  0.10696762943763362  0.7016611695662505  1.0000
  O   O9        1.0  0.9526797247221241  0.34089620974940266  0.3556131321868108  1.0000
  O   O10       1.0  0.5473267081875194  0.8408921535333536  0.1443903012851848  1.0000
  O   O11       1.0  0.0473217262937169  0.6591089510084134  0.6443880839187841  1.0000
  O   O12       1.0  0.4526704432511295  0.1591057944254359  0.8556096951948433  1.0000
  O   O13       1.0  0.7532173596494617  0.4441265419060657  0.2183048048260474  1.0000
  O   O14       1.0  0.7467862319676754  0.9441241754120573  0.28169838337360886  1.0000
  O   O15       1.0  0.2467855198172302  0.5558746117411959  0.7816958068970479  1.0000
  O   O16       1.0  0.2532137728181922  0.05587617681231902  0.7182996461527509  1.0000
