data_image0
_chemical_formula_structural       Cu6H12C20Br6N12
_chemical_formula_sum              "Cu6 H12 C20 Br6 N12"
_cell_length_a       6.58659958346742
_cell_length_b       8.190439789729936
_cell_length_c       13.999081461725398
_cell_angle_alpha    97.38903163801618
_cell_angle_beta     90.00002635024363
_cell_angle_gamma    89.99867787185408

_space_group_name_H-M_alt    "P 1"
_space_group_IT_number       1

loop_
  _space_group_symop_operation_xyz
  'x, y, z'

loop_
  _atom_site_type_symbol
  _atom_site_label
  _atom_site_symmetry_multiplicity
  _atom_site_fract_x
  _atom_site_fract_y
  _atom_site_fract_z
  _atom_site_occupancy
  Cu  Cu1       1.0  0.7555020976287494  0.9999951573901096  0.24999995019227575  1.0000
  Cu  Cu2       1.0  0.24447162332401007  1.6221975000741018e-09  0.7499990349905161  1.0000
  Cu  Cu3       1.0  0.7162449265209289  0.5930259585003126  0.37518076384487387  1.0000
  Cu  Cu4       1.0  0.2837553687607438  0.5930488496697349  0.8751606738932907  1.0000
  Cu  Cu5       1.0  0.28375004972619416  0.40696796915167244  0.6248181306044102  1.0000
  Cu  Cu6       1.0  0.7162608626045992  0.40695614162691374  0.1248354640904736  1.0000
  H   H1        1.0  0.8375230897090091  0.8354912047399307  0.7237344253690736  1.0000
  H   H2        1.0  0.16246695451749094  0.8354592177207747  0.22373323856329108  1.0000
  H   H3        1.0  0.1624809959129365  0.1645052016791411  0.2762682234003222  1.0000
  H   H4        1.0  0.8375371308722348  0.16455316062324238  0.7762634437280623  1.0000
  H   H5        1.0  0.3150396870159112  0.9145800125112301  0.5385809708024496  1.0000
  H   H6        1.0  0.6849491536471529  0.9145785694492897  0.03858407458887568  1.0000
  H   H7        1.0  0.6849446614326951  0.08542497578438459  0.46141445262816916  1.0000
  H   H8        1.0  0.3150458226477467  0.08541165150161589  0.9614116893956035  1.0000
  H   H9        1.0  0.133875545720862  0.7462429050554319  0.40220224528937354  1.0000
  H   H10       1.0  0.8661250775116826  0.7462509443477213  0.9022009475602742  1.0000
  H   H11       1.0  0.866105766294801  0.2537596242685183  0.5977937112901016  1.0000
  H   H12       1.0  0.13388356302907306  0.2537294338491732  0.09779551984076558  1.0000
  C   C1        1.0  0.8066193014626178  0.7225885190249951  0.5764328415137853  1.0000
  C   C2        1.0  0.19337654878591343  0.7225620939893247  0.07643277277829699  1.0000
  C   C3        1.0  0.19337719309181978  0.27740050053737514  0.4235692629640154  1.0000
  C   C4        1.0  0.8066396825524932  0.27744538608945385  0.9235692632699112  1.0000
  C   C5        1.0  0.9074758956383632  0.8164887799561454  0.6526787099278052  1.0000
  C   C6        1.0  0.0925129711736403  0.816455688706739  0.1526788842201299  1.0000
  C   C7        1.0  0.0925281899094372  0.18351253122886382  0.34732001423285647  1.0000
  C   C8        1.0  0.9074956690249607  0.18354931589929885  0.8473201120857181  1.0000
  C   C9        1.0  0.1681498222902391  0.858534124200247  0.5495559231583655  1.0000
  C   C10       1.0  0.8318421394265838  0.8585261663555028  0.049562089625460694  1.0000
  C   C11       1.0  0.8318405991651686  0.14146594603470664  0.4504405665601325  1.0000
  C   C12       1.0  0.16817257387011605  0.14146778426892578  0.9504418068607093  1.0000
  C   C13       1.0  0.0671520099397256  0.7663025061261874  0.4740566214526112  1.0000
  C   C14       1.0  0.9328452087411633  0.766294489146709  0.9740555561506169  1.0000
  C   C15       1.0  0.9328323386660315  0.2336914117014146  0.525940129268335  1.0000
  C   C16       1.0  0.06716950461493809  0.23369450376755196  0.025940831680557597  1.0000
  C   C17       1.0  0.3774740655155355  0.35814633438563687  0.40636373775957674  1.0000
  C   C18       1.0  0.622555679770059  0.35818122383325596  0.9063608948027522  1.0000
  C   C19       1.0  0.6225315384336341  0.6418439427158588  0.5936441740589941  1.0000
  C   C20       1.0  0.3774787704886079  0.6418188989206256  0.09364702814379199  1.0000
  Br  Br1       1.0  0.9716464371735752  0.49997751256307044  0.2500092343011957  1.0000
  Br  Br2       1.0  0.028366757401357693  0.5000508839440909  0.7499914856104865  1.0000
  Br  Br3       1.0  0.5171767254947994  0.8328332709644639  0.3343338115353802  1.0000
  Br  Br4       1.0  0.48282280174500153  0.8328474710476854  0.8343301859871133  1.0000
  Br  Br5       1.0  0.4827909223277444  0.16717670498377393  0.6656755517746047  1.0000
  Br  Br6       1.0  0.5171706560358232  0.16716242854390362  0.16566274198535066  1.0000
  N   N1        1.0  0.8847903752553703  0.6969340624756907  0.48574636702225854  1.0000
  N   N2        1.0  0.11521034030674569  0.696920922085212  0.9857472284152705  1.0000
  N   N3        1.0  0.11520460106221007  0.30305494717429576  0.5142535937198218  1.0000
  N   N4        1.0  0.8848119641622317  0.3030730350839193  0.014258097222708  1.0000
  N   N5        1.0  0.0894534303914298  0.8847867290194104  0.6397121461235215  1.0000
  N   N6        1.0  0.9105319661157053  0.8847600146962831  0.1397169150254527  1.0000
  N   N7        1.0  0.9105354728651206  0.1152108822292135  0.36028487674260384  1.0000
  N   N8        1.0  0.08946908308860198  0.11523269497808997  0.8602847470185465  1.0000
  N   N9        1.0  0.522960829533318  0.43168819480964515  0.3903025155237785  1.0000
  N   N10       1.0  0.4770182248860023  0.43170985074923607  0.8902901541373109  1.0000
  N   N11       1.0  0.47703718323896976  0.5683020592020753  0.6097003942480654  1.0000
  N   N12       1.0  0.522973714409872  0.5683185393452134  0.10970913663363999  1.0000
