data_image0
_chemical_formula_structural       Zn2H14C14N2O12
_chemical_formula_sum              "Zn2 H14 C14 N2 O12"
_cell_length_a       7.211687285757787
_cell_length_b       7.825417607983781
_cell_length_c       7.825502518197324
_cell_angle_alpha    98.74266837115944
_cell_angle_beta     100.37742165750477
_cell_angle_gamma    100.37767001437464

_space_group_name_H-M_alt    "P 1"
_space_group_IT_number       1

loop_
  _space_group_symop_operation_xyz
  'x, y, z'

loop_
  _atom_site_type_symbol
  _atom_site_label
  _atom_site_symmetry_multiplicity
  _atom_site_fract_x
  _atom_site_fract_y
  _atom_site_fract_z
  _atom_site_occupancy
  Zn  Zn1       1.0  0.2500012662091676  0.8466870859847831  0.15331881539037082  1.0000
  Zn  Zn2       1.0  0.7499981806480632  0.15331432101407222  0.8466839070120572  1.0000
  H   H1        1.0  0.9012779195581684  0.664645206603538  0.1163761504867651  1.0000
  H   H2        1.0  0.598719440778076  0.8836293814756006  0.33535816793075673  1.0000
  H   H3        1.0  0.09872146021105978  0.3353496083270712  0.8836242153585729  1.0000
  H   H4        1.0  0.4012779959744888  0.1163693915416317  0.6646412467107154  1.0000
  H   H5        1.0  0.8812084892201709  0.8249064010846257  0.015629285943404604  1.0000
  H   H6        1.0  0.6187973200367479  0.9843763335366944  0.17509715016537097  1.0000
  H   H7        1.0  0.11879007945353949  0.1750910113522295  0.9843752032297743  1.0000
  H   H8        1.0  0.3812034685001036  0.015618505800823402  0.824902169628068  1.0000
  H   H9        1.0  0.28404433333262347  0.4588931285704733  0.15204101570868295  1.0000
  H   H10       1.0  0.21595527382982024  0.8479654663419253  0.54111238357563  1.0000
  H   H11       1.0  0.7159596240038439  0.5411097119595  0.847955001028275  1.0000
  H   H12       1.0  0.7840441620326286  0.1520359776722842  0.45888650921600777  1.0000
  H   H13       1.0  0.2500019498751839  0.3344023083971025  0.6655975203064061  1.0000
  H   H14       1.0  0.7500020147911429  0.6656005074559774  0.33440104950440747  1.0000
  C   C1        1.0  0.2708676597512251  0.1813729647487534  0.3354597976082588  1.0000
  C   C2        1.0  0.22913045501169188  0.6645448419311536  0.8186302825994648  1.0000
  C   C3        1.0  0.7291303746734527  0.8186284301816403  0.664542694309148  1.0000
  C   C4        1.0  0.770868386843574  0.3354539678314482  0.18136680945316638  1.0000
  C   C5        1.0  0.2621349043665475  0.36983756614078095  0.39893882522689955  1.0000
  C   C6        1.0  0.23786317958602146  0.6010614825430168  0.630163494172905  1.0000
  C   C7        1.0  0.7378665232759261  0.6301665735473069  0.6010569926410484  1.0000
  C   C8        1.0  0.76213767603884  0.398939948862747  0.3698381821776168  1.0000
  C   C9        1.0  0.2665488885579848  0.49327975289596543  0.2872183848992905  1.0000
  C   C10       1.0  0.23345384290171003  0.7127928847641628  0.5067314412021916  1.0000
  C   C11       1.0  0.7334525684039263  0.5067242880844987  0.7127876452641005  1.0000
  C   C12       1.0  0.7665447745353617  0.2872111814331931  0.49326902184342464  1.0000
  C   C13       1.0  0.2500006667769695  0.42613009412751524  0.5738746505439921  1.0000
  C   C14       1.0  0.7500015939505996  0.573871374023611  0.4261247032176954  1.0000
  N   N1        1.0  0.2500001071910987  0.6608776486369337  0.3391340915094005  1.0000
  N   N2        1.0  0.7500013241163116  0.3391264787127  0.6608630028954678  1.0000
  O   O1        1.0  0.9546347810000949  0.7928913340588226  0.12243280449801118  1.0000
  O   O2        1.0  0.5453646047286327  0.8775766041163634  0.2071123207086245  1.0000
  O   O3        1.0  0.04536631736760201  0.20710477921991816  0.8775718835441781  1.0000
  O   O4        1.0  0.45463394928535905  0.12242085767429961  0.7928870623168367  1.0000
  O   O5        1.0  0.24605618089052672  0.12308789189818015  0.1687702651817489  1.0000
  O   O6        1.0  0.25393598616555113  0.8312218289513355  0.876921778827196  1.0000
  O   O7        1.0  0.7539421083910653  0.8769149620502219  0.8312184469304569  1.0000
  O   O8        1.0  0.7460659342924529  0.16877164980580528  0.12308261549794969  1.0000
  O   O9        1.0  0.3014138452952792  0.0841494966283918  0.4476855854775437  1.0000
  O   O10       1.0  0.19858247768793552  0.5523074226728542  0.9158529525028957  1.0000
  O   O11       1.0  0.6985816447756932  0.9158532468139173  0.5523116014231207  1.0000
  O   O12       1.0  0.8014075383076288  0.44768336230035294  0.08414396759225444  1.0000
