data_image0
_chemical_formula_structural       Cu4H16C20Br4N4Cl8
_chemical_formula_sum              "Cu4 H16 C20 Br4 N4 Cl8"
_cell_length_a       9.057676735746602
_cell_length_b       9.05817382089282
_cell_length_c       12.005843220656043
_cell_angle_alpha    78.54264278960183
_cell_angle_beta     78.54182674098843
_cell_angle_gamma    60.567546754252554

_space_group_name_H-M_alt    "P 1"
_space_group_IT_number       1

loop_
  _space_group_symop_operation_xyz
  'x, y, z'

loop_
  _atom_site_type_symbol
  _atom_site_label
  _atom_site_symmetry_multiplicity
  _atom_site_fract_x
  _atom_site_fract_y
  _atom_site_fract_z
  _atom_site_occupancy
  Cu  Cu1       1.0  0.5420587265017858  0.36884902953025994  0.6302407998756647  1.0000
  Cu  Cu2       1.0  0.6311731710083136  0.45797146910339853  0.869714931192284  1.0000
  Cu  Cu3       1.0  0.4581916775900367  0.6309195457589072  0.36981825926469  1.0000
  Cu  Cu4       1.0  0.36905033385953345  0.5418190232717705  0.13022659183209126  1.0000
  H   H1        1.0  0.6267903561949025  0.7743272984253694  0.6175935828829322  1.0000
  H   H2        1.0  0.2257563251191498  0.3731240997323653  0.882414037608953  1.0000
  H   H3        1.0  0.37308830961694645  0.2257990667756928  0.38236259906806674  1.0000
  H   H4        1.0  0.7741437865981593  0.6269014242331465  0.1175639298212019  1.0000
  H   H5        1.0  0.9391576062550724  0.9339579678575092  0.3549604723464269  1.0000
  H   H6        1.0  0.06589088970085298  0.06099766673160901  0.14509059337628116  1.0000
  H   H7        1.0  0.0607487600586722  0.0661210342804424  0.6450727602303414  1.0000
  H   H8        1.0  0.9339555639453321  0.9392064306761726  0.8549371242043617  1.0000
  H   H9        1.0  0.8478889711360221  0.7112936653530396  0.44673503854429  1.0000
  H   H10       1.0  0.28868318911731444  0.15212557285131822  0.05331854128908729  1.0000
  H   H11       1.0  0.1519944998866762  0.28880074843526427  0.553252661341233  1.0000
  H   H12       1.0  0.7112312781509045  0.84796750653382  0.9466830781603617  1.0000
  H   H13       1.0  0.7965849779646134  0.2150467080458398  0.4366426035743699  1.0000
  H   H14       1.0  0.7848290996693092  0.203581987813827  0.06335682706428261  1.0000
  H   H15       1.0  0.20327712995859307  0.7850642702342796  0.5633707968381856  1.0000
  H   H16       1.0  0.21499548781096678  0.7966374225926104  0.936682691794914  1.0000
  C   C1        1.0  0.6712373449248616  0.8661781022402695  0.5763648691381249  1.0000
  C   C2        1.0  0.13385730938882998  0.32870883041724136  0.9236377797600139  1.0000
  C   C3        1.0  0.3286599512965083  0.1339061025984236  0.4236156302680172  1.0000
  C   C4        1.0  0.8660757662727928  0.6713255698091701  0.07634979993189007  1.0000
  C   C5        1.0  0.8429347404269903  0.9568136131208931  0.42926840008052375  1.0000
  C   C6        1.0  0.04311722321739346  0.15715483230066243  0.07075295116974438  1.0000
  C   C7        1.0  0.15697959663424393  0.043243718048337605  0.5707502083985999  1.0000
  C   C8        1.0  0.9567920789152496  0.842980337540176  0.9292565116829008  1.0000
  C   C9        1.0  0.7939624676549142  0.8328054498887528  0.4807880492841361  1.0000
  C   C10       1.0  0.16717459567683324  0.20604936217388573  0.019230756199021898  1.0000
  C   C11       1.0  0.20593645388819937  0.16726087935753503  0.5192006938232439  1.0000
  C   C12       1.0  0.8327485792832333  0.794034778856883  0.9807700645606868  1.0000
  C   C13       1.0  0.7667604173777534  0.11137977359913262  0.4737771689443661  1.0000
  C   C14       1.0  0.8885473121341151  0.23333322566679732  0.026227083500174234  1.0000
  C   C15       1.0  0.23327023080486234  0.8886098279066349  0.5262333919811366  1.0000
  C   C16       1.0  0.11141635231260226  0.7666934349259834  0.9737904201882157  1.0000
  C   C17       1.0  0.6048440913814729  0.022990774416115304  0.6173650052068709  1.0000
  C   C18       1.0  0.9770679736783306  0.39511578508427186  0.8826092496552886  1.0000
  C   C19       1.0  0.3951115886748439  0.9770193007073544  0.3826586459540664  1.0000
  C   C20       1.0  0.022929428745037096  0.6048969031841411  0.11735034538305905  1.0000
  Br  Br1       1.0  0.44577012740910493  0.0721856412252038  0.7507516135987871  1.0000
  Br  Br2       1.0  0.9279452406577562  0.5541214931918432  0.7491899128486208  1.0000
  Br  Br3       1.0  0.5539392037390198  0.928032813954694  0.24917605897913114  1.0000
  Br  Br4       1.0  0.07186366951293621  0.4461145277123606  0.25084446987720804  1.0000
  N   N1        1.0  0.6490704144601834  0.14370973321610592  0.5670211076650631  1.0000
  N   N2        1.0  0.8562998593330986  0.3509421759987958  0.932946910207903  1.0000
  N   N3        1.0  0.35093724397650305  0.856256942824615  0.4329829449179456  1.0000
  N   N4        1.0  0.14371765731277716  0.6490538270437085  0.06705881964846581  1.0000
  Cl  Cl1       1.0  0.41904968935130404  0.5810181563703625  0.7499627855376332  1.0000
  Cl  Cl2       1.0  0.5812911180183207  0.41866622718995233  0.2500337142349308  1.0000
  Cl  Cl3       1.0  0.7566359817962223  0.2433897899276687  0.7499868201792095  1.0000
  Cl  Cl4       1.0  0.24390736759490034  0.7560672746921284  0.2500191891979142  1.0000
  Cl  Cl5       1.0  0.3115401019762629  0.48354346226950906  0.5326335827063531  1.0000
  Cl  Cl6       1.0  0.516490398051168  0.688443006601439  0.967392094973988  1.0000
  Cl  Cl7       1.0  0.6888735248301785  0.5162082879565019  0.4674587092045569  1.0000
  Cl  Cl8       1.0  0.4837606753037278  0.3112340036480745  0.03249888368836196  1.0000
