data_image0
_chemical_formula_structural       Tb4H108C112S8O32
_chemical_formula_sum              "Tb4 H108 C112 S8 O32"
_cell_length_a       16.603709826535475
_cell_length_b       16.60406858573446
_cell_length_c       27.813361296709687
_cell_angle_alpha    80.51352364744001
_cell_angle_beta     80.51353868935843
_cell_angle_gamma    62.33307961736148

_space_group_name_H-M_alt    "P 1"
_space_group_IT_number       1

loop_
  _space_group_symop_operation_xyz
  'x, y, z'

loop_
  _atom_site_type_symbol
  _atom_site_label
  _atom_site_symmetry_multiplicity
  _atom_site_fract_x
  _atom_site_fract_y
  _atom_site_fract_z
  _atom_site_occupancy
  Tb  Tb1       1.0  0.43729146822734327  0.9710937862224895  0.9543261396081135  1.0000
  Tb  Tb2       1.0  0.0289085068367427  0.5626987838165078  0.5456713324892561  1.0000
  Tb  Tb3       1.0  0.5627137269188437  0.028902881738091114  0.0456693396531023  1.0000
  Tb  Tb4       1.0  0.971094722979217  0.4372871643211484  0.4543318730730163  1.0000
  H   H1        1.0  0.46097717945669814  0.8805372518274337  0.7920626461888601  1.0000
  H   H2        1.0  0.43137112330014565  0.8062860004851801  0.7302265072909505  1.0000
  H   H3        1.0  0.32713877358770566  0.6638696191028404  0.8474662166623901  1.0000
  H   H4        1.0  0.3574543343002786  0.7387384480372321  0.9080220163416683  1.0000
  H   H5        1.0  0.37093794598790447  0.7183900480380389  0.7087520063803722  1.0000
  H   H6        1.0  0.7595106178784407  0.8399668491395433  0.02081759819085957  1.0000
  H   H7        1.0  0.9156178700236666  0.7118616725367914  0.02991670913149139  1.0000
  H   H8        1.0  0.8463208453464047  0.5416427977782307  0.9603947616844193  1.0000
  H   H9        1.0  0.6921835459970467  0.6710871916836967  0.9503283880841165  1.0000
  H   H10       1.0  0.026206364744354005  0.564048489433496  0.02071401997410051  1.0000
  H   H11       1.0  0.6523373534205917  0.1864143636064027  0.9207331380231524  1.0000
  H   H12       1.0  0.7140777384335453  0.2571799538063501  0.8478930783496281  1.0000
  H   H13       1.0  0.641332668935739  0.12368116253177423  0.7539976492367302  1.0000
  H   H14       1.0  0.5795215661135276  0.053621429173041656  0.8282497236494705  1.0000
  H   H15       1.0  0.7072524415318923  0.21774486974610618  0.7168320068158492  1.0000
  H   H16       1.0  0.20962377091178303  0.9050626150197731  0.9316517902053363  1.0000
  H   H17       1.0  0.1156241007855741  0.011518966567471997  0.9489695117945658  1.0000
  H   H18       1.0  0.1292000869296999  0.9041312061912165  0.9834563889832352  1.0000
  H   H19       1.0  0.09694065999493522  0.0766790973897216  0.02747923039358109  1.0000
  H   H20       1.0  0.18434090334127262  0.03667709856262042  0.06843401161925299  1.0000
  H   H21       1.0  0.12210192189093762  0.9726717839516322  0.06847135185842032  1.0000
  H   H22       1.0  0.4254565518702762  0.050454846823768704  0.8044405876075444  1.0000
  H   H23       1.0  0.3721040825572288  0.17357487872485677  0.8033066545680612  1.0000
  H   H24       1.0  0.32337581886852723  0.11882563205512754  0.7738630449555897  1.0000
  H   H25       1.0  0.15358011744361025  0.21681330428225462  0.8902307152748887  1.0000
  H   H26       1.0  0.16404686768905918  0.2179016873344608  0.8247407340278555  1.0000
  H   H27       1.0  0.2218299445615983  0.2656367260878412  0.8524800173771183  1.0000
  H   H28       1.0  0.1194510391975072  0.5390148546084532  0.7079383209419985  1.0000
  H   H29       1.0  0.19370374928707432  0.5686133071687252  0.7697801516358708  1.0000
  H   H30       1.0  0.3361140706775459  0.67286482207043  0.6525467396477254  1.0000
  H   H31       1.0  0.2612424233679604  0.6425585186007438  0.5919891741315836  1.0000
  H   H32       1.0  0.28160566999699904  0.6290365257106387  0.7912583141443649  1.0000
  H   H33       1.0  0.16003087334825492  0.24048536202447218  0.479191663214344  1.0000
  H   H34       1.0  0.2881359133817939  0.08437400866835529  0.4700965287422818  1.0000
  H   H35       1.0  0.4583779634214693  0.15367526873095733  0.5396037693471952  1.0000
  H   H36       1.0  0.32892398214541885  0.30781326852724783  0.5496689034025906  1.0000
  H   H37       1.0  0.43595175004073644  0.9737972914579558  0.47928472743371486  1.0000
  H   H38       1.0  0.8135841855772484  0.34766135382083246  0.579263920327648  1.0000
  H   H39       1.0  0.7428222325958983  0.2859221050132135  0.652101340456383  1.0000
  H   H40       1.0  0.8763228427077365  0.358668367981501  0.7460008548441265  1.0000
  H   H41       1.0  0.9463767669530655  0.4204828549204221  0.6717447151174839  1.0000
  H   H42       1.0  0.7822592237512254  0.2927495916391507  0.7831631223129918  1.0000
  H   H43       1.0  0.09494746803281372  0.7903528266546684  0.5683421241409975  1.0000
  H   H44       1.0  0.9884899566061877  0.8843676489138801  0.5510314734191653  1.0000
  H   H45       1.0  0.09588298491080852  0.8707747647579537  0.5165400781431728  1.0000
  H   H46       1.0  0.9233182053915244  0.9030690296281915  0.4725230778917222  1.0000
  H   H47       1.0  0.9632973160989947  0.8156865208716656  0.43155888333739506  1.0000
  H   H48       1.0  0.027317956489731905  0.8779096606072159  0.4315269367061632  1.0000
  H   H49       1.0  0.949539481226175  0.5745548286971168  0.6955537342541689  1.0000
  H   H50       1.0  0.8264173113336925  0.6279146359742213  0.6966937846384623  1.0000
  H   H51       1.0  0.8811804901276902  0.67663169982815  0.7261324568327507  1.0000
  H   H52       1.0  0.7832089814494267  0.8464234976152486  0.6097578780021848  1.0000
  H   H53       1.0  0.78212868980237  0.8359605351695122  0.6752474140658079  1.0000
  H   H54       1.0  0.7343640869941054  0.7782021276380177  0.6475122215432875  1.0000
  H   H55       1.0  0.5390300988673432  0.11945422220542666  0.2079367361310318  1.0000
  H   H56       1.0  0.568615672817252  0.19371151734424802  0.2697768197743429  1.0000
  H   H57       1.0  0.672878100310463  0.33611578309175616  0.1525464796683025  1.0000
  H   H58       1.0  0.6425782582504524  0.26123997258482495  0.09198765865222917  1.0000
  H   H59       1.0  0.6290434198761333  0.2816050024639978  0.2912567757822869  1.0000
  H   H60       1.0  0.24049931049257373  0.16003442588607444  0.97917120466618  1.0000
  H   H61       1.0  0.08438991771370041  0.288152754751124  0.9700638138559654  1.0000
  H   H62       1.0  0.1536761654316408  0.4583562961646165  0.03961063511485461  1.0000
  H   H63       1.0  0.3078066924213162  0.3289057506003061  0.04967900600126279  1.0000
  H   H64       1.0  0.9738041984944062  0.43596044923071986  0.9792789956972995  1.0000
  H   H65       1.0  0.3476479246191176  0.8136051910313926  0.07926204751830565  1.0000
  H   H66       1.0  0.2859006707193786  0.7428469178249769  0.15209738885030788  1.0000
  H   H67       1.0  0.3586566872073149  0.8763402479825403  0.24599874712344413  1.0000
  H   H68       1.0  0.42046648175610807  0.9463913980577914  0.17174441514993785  1.0000
  H   H69       1.0  0.2927369582871436  0.782269801881874  0.2831632540176869  1.0000
  H   H70       1.0  0.7903972170586044  0.09491789650395796  0.06835343260545558  1.0000
  H   H71       1.0  0.884392122630011  0.9884599896127071  0.05103166204801818  1.0000
  H   H72       1.0  0.8708256548520339  0.09585146656964845  0.01654635222099902  1.0000
  H   H73       1.0  0.9030733861844241  0.9233191403973746  0.9725177350084663  1.0000
  H   H74       1.0  0.8156683311036517  0.9633275524302363  0.9315645930863069  1.0000
  H   H75       1.0  0.8779093785486722  0.027329505751559718  0.93152630233822  1.0000
  H   H76       1.0  0.5745513656594952  0.9495424454412029  0.19555527974100784  1.0000
  H   H77       1.0  0.6279052068747574  0.8264211949066008  0.19668991670265262  1.0000
  H   H78       1.0  0.6766273432815736  0.8811701139865916  0.2261377601056793  1.0000
  H   H79       1.0  0.8464290825346839  0.7831956284598646  0.10976207627059151  1.0000
  H   H80       1.0  0.8359575058403549  0.7821161102783021  0.1752552534993086  1.0000
  H   H81       1.0  0.7781840674178326  0.7343664102864764  0.14751538830719113  1.0000
  H   H82       1.0  0.8805248020881181  0.4609911994074381  0.29207135749381746  1.0000
  H   H83       1.0  0.8062659413605003  0.4313960954779148  0.23023483747242324  1.0000
  H   H84       1.0  0.663867951374769  0.32713544697192276  0.34747116906138587  1.0000
  H   H85       1.0  0.738730629602948  0.3574573273120266  0.40802340702717993  1.0000
  H   H86       1.0  0.7183975960203101  0.37094575897494025  0.20875639588926728  1.0000
  H   H87       1.0  0.8399704056512932  0.7594886475716507  0.5208254999210097  1.0000
  H   H88       1.0  0.7118673518011961  0.9156088917607406  0.5299213563319753  1.0000
  H   H89       1.0  0.541645588278854  0.8463266728684146  0.4603821820632064  1.0000
  H   H90       1.0  0.6710914455125163  0.6921812938540839  0.4503221767021373  1.0000
  H   H91       1.0  0.5640664518511898  0.026190547894152823  0.5207096195358076  1.0000
  H   H92       1.0  0.18639430218560446  0.652353881066567  0.42072768999784665  1.0000
  H   H93       1.0  0.2571520993540801  0.7141041447823112  0.3478967822767416  1.0000
  H   H94       1.0  0.12365625326364692  0.6413582034816726  0.2539928099725302  1.0000
  H   H95       1.0  0.05361193106637781  0.5795339517026505  0.3282446513351545  1.0000
  H   H96       1.0  0.2177246236288539  0.7072803718185625  0.21683369204388467  1.0000
  H   H97       1.0  0.9050675325259975  0.20960468311843547  0.4316566177264533  1.0000
  H   H98       1.0  0.011529032034651698  0.11560580842786548  0.4489721280247423  1.0000
  H   H99       1.0  0.9041347379312796  0.12918398579267873  0.48346294578671223  1.0000
  H   H100      1.0  0.07669042698363879  0.09692490746382282  0.527483477240807  1.0000
  H   H101      1.0  0.03669006286935429  0.18432477461887944  0.5684376303473613  1.0000
  H   H102      1.0  0.9726838419325857  0.12208669562073748  0.5684771787370551  1.0000
  H   H103      1.0  0.0504575469356467  0.4254411996613853  0.304448728162491  1.0000
  H   H104      1.0  0.17357686571893544  0.37210037045463196  0.3033099590991172  1.0000
  H   H105      1.0  0.1188294132185277  0.3233744829049883  0.27386377298747516  1.0000
  H   H106      1.0  0.21681802586435595  0.15357326509879232  0.39024118727372326  1.0000
  H   H107      1.0  0.217898289751183  0.1640398993872694  0.3247484144851853  1.0000
  H   H108      1.0  0.2656375019909518  0.22182484904660527  0.3524863694040973  1.0000
  C   C1        1.0  0.4198224888017847  0.8659705614850279  0.8898512094965483  1.0000
  C   C2        1.0  0.40883520550914204  0.815745875426188  0.8535327359903844  1.0000
  C   C3        1.0  0.43131179992838753  0.8331634857947848  0.8034265626799453  1.0000
  C   C4        1.0  0.4149171916574162  0.7914749701988268  0.7692992312142195  1.0000
  C   C5        1.0  0.37496078649986225  0.7314855649698656  0.7840072756373997  1.0000
  C   C6        1.0  0.3559168873995802  0.7117359886786402  0.834739846727082  1.0000
  C   C7        1.0  0.3725033776086449  0.7532567951779823  0.8688051040853606  1.0000
  C   C8        1.0  0.3511519815416547  0.6973114379988772  0.7463598413184085  1.0000
  C   C9        1.0  0.6226357061216277  0.8382538339545036  0.9796822000950769  1.0000
  C   C10       1.0  0.7163702902735595  0.7627665441300236  0.9853301447613987  1.0000
  C   C11       1.0  0.7793905902968348  0.7744882327402892  0.007619743674680971  1.0000
  C   C12       1.0  0.8661425972698639  0.7027382902398427  0.012683320232532904  1.0000
  C   C13       1.0  0.8923400131660841  0.6169085983418015  0.9966863466124137  1.0000
  C   C14       1.0  0.8281911601661066  0.6066312873039122  0.9738379517465034  1.0000
  C   C15       1.0  0.7419969065114955  0.6784336570043975  0.968038452656323  1.0000
  C   C16       1.0  0.9829768303467149  0.5438902332715401  0.00484051768909664  1.0000
  C   C17       1.0  0.5760215117122697  0.07263868228482563  0.9225050161101507  1.0000
  C   C18       1.0  0.6137326135471143  0.11485561756387597  0.8786133163513482  1.0000
  C   C19       1.0  0.6517544673775577  0.17244983201793906  0.8838608065372638  1.0000
  C   C20       1.0  0.6861370622915574  0.21152980860037465  0.8429739632460524  1.0000
  C   C21       1.0  0.6837779520682901  0.1942784249482087  0.7952894654146403  1.0000
  C   C22       1.0  0.6443703286361283  0.13711515153026724  0.790639044737645  1.0000
  C   C23       1.0  0.6099486416657527  0.09797070291133289  0.8315336139293094  1.0000
  C   C24       1.0  0.7199247621052934  0.2320733644681282  0.7511164994805383  1.0000
  C   C25       1.0  0.16457371716217753  0.9424502553520424  0.9622607052384352  1.0000
  C   C26       1.0  0.1502463586970322  0.01618217757979321  0.045731377832915095  1.0000
  C   C27       1.0  0.3607352279773083  0.11323200125060136  0.8043484013006861  1.0000
  C   C28       1.0  0.1989442668906989  0.21241491466338397  0.8562830821983451  1.0000
  C   C29       1.0  0.1340144800994665  0.580181713152548  0.6101502836594791  1.0000
  C   C30       1.0  0.18424055767406597  0.5911636065792293  0.6464720733132694  1.0000
  C   C31       1.0  0.1668191668868175  0.5686879462721349  0.6965756575310919  1.0000
  C   C32       1.0  0.20850897088685372  0.5850740550010582  0.7307033712675802  1.0000
  C   C33       1.0  0.2684932795179762  0.6250433227334896  0.7159960195847643  1.0000
  C   C34       1.0  0.28823832990603654  0.6440987634565404  0.6652670698930974  1.0000
  C   C35       1.0  0.24672653278043546  0.627498768745923  0.6312036670773437  1.0000
  C   C36       1.0  0.3026711618112259  0.6488430328805563  0.7536504654332459  1.0000
  C   C37       1.0  0.16173856510135923  0.37735490361743024  0.5203212490817251  1.0000
  C   C38       1.0  0.23723669070771797  0.28362651867751515  0.5146754064394585  1.0000
  C   C39       1.0  0.22551341071763184  0.2206066001438529  0.49238874723081943  1.0000
  C   C40       1.0  0.2972588744004199  0.13385004375281537  0.4873255237906022  1.0000
  C   C41       1.0  0.3831014539430555  0.10766119835292896  0.5033094704556333  1.0000
  C   C42       1.0  0.39338314813800684  0.17181283759251184  0.5261563762411255  1.0000
  C   C43       1.0  0.32157608557214695  0.2580054271267401  0.5319563253287072  1.0000
  C   C44       1.0  0.45611129878786727  0.017026981280501723  0.49515343892544905  1.0000
  C   C45       1.0  0.9273604067032509  0.4239797164097042  0.577499691776758  1.0000
  C   C46       1.0  0.8851430035066984  0.3862675449120162  0.6213868644934379  1.0000
  C   C47       1.0  0.8275494442394802  0.3482454608092669  0.6161349956686522  1.0000
  C   C48       1.0  0.7884718754694832  0.313859046153368  0.657023051910997  1.0000
  C   C49       1.0  0.8057242037571156  0.31621171213870986  0.7047088295911337  1.0000
  C   C50       1.0  0.8628839780450549  0.3556242887831332  0.7093598456156514  1.0000
  C   C51       1.0  0.9020259962407026  0.39005414950250383  0.6684647137355383  1.0000
  C   C52       1.0  0.7679259423414848  0.2800695464586128  0.7488827414816583  1.0000
  C   C53       1.0  0.05755295796999601  0.8354108066416046  0.5377366067561765  1.0000
  C   C54       1.0  0.9838070923699931  0.8497640798681446  0.45426530785086067  1.0000
  C   C55       1.0  0.8867655031042146  0.6392765408915861  0.6956479405747302  1.0000
  C   C56       1.0  0.787602198756872  0.8010650224730111  0.643707315411447  1.0000
  C   C57       1.0  0.5802031801760209  0.13402190407254017  0.11014409866536569  1.0000
  C   C58       1.0  0.5911713520632063  0.18425141419999855  0.146466142437383  1.0000
  C   C59       1.0  0.5686913535799859  0.16683348480253818  0.1965737625850821  1.0000
  C   C60       1.0  0.5850778202583912  0.20851645345371142  0.2307010097103017  1.0000
  C   C61       1.0  0.6250328568167874  0.26850708059949124  0.21599549657009479  1.0000
  C   C62       1.0  0.6440897125471209  0.288255793913045  0.16526460572252694  1.0000
  C   C63       1.0  0.6275079936995598  0.24673531637759538  0.1312020797925157  1.0000
  C   C64       1.0  0.6488259332793761  0.30269002907732556  0.25364828800302053  1.0000
  C   C65       1.0  0.37736474348794496  0.16173944784852523  0.02031588110171609  1.0000
  C   C66       1.0  0.2836382956901958  0.2372328959835527  0.014666882209674305  1.0000
  C   C67       1.0  0.22062750218858443  0.22551552875314226  0.9923712416815674  1.0000
  C   C68       1.0  0.13386731308366956  0.2972654331673611  0.9873038040975428  1.0000
  C   C69       1.0  0.1076719014886862  0.38310095104365877  0.003299284208431196  1.0000
  C   C70       1.0  0.17181399130409863  0.3933721195430023  0.0261586630413646  1.0000
  C   C71       1.0  0.2580076152290331  0.3215620913112929  0.03195898185849439  1.0000
  C   C72       1.0  0.017041231809443495  0.45611719751094876  0.995144714671575  1.0000
  C   C73       1.0  0.42398230132165077  0.9273610438787615  0.0774917355388141  1.0000
  C   C74       1.0  0.38625744716518545  0.8851624275627544  0.1213837027101761  1.0000
  C   C75       1.0  0.34823625396130337  0.8275709697693826  0.11613371730991422  1.0000
  C   C76       1.0  0.31384344391933183  0.7884900331818657  0.15702202537500648  1.0000
  C   C77       1.0  0.31619159380574763  0.8057499475483211  0.20470748256838786  1.0000
  C   C78       1.0  0.3556122423681316  0.8629019443410113  0.20935880894788284  1.0000
  C   C79       1.0  0.3900407712993825  0.9020421320656523  0.16846254633220784  1.0000
  C   C80       1.0  0.280055057553831  0.7679473943202165  0.24888054496613415  1.0000
  C   C81       1.0  0.8354472403786417  0.05753454193389028  0.03774265855188469  1.0000
  C   C82       1.0  0.8497669937568518  0.9838182032282599  0.9542676014674498  1.0000
  C   C83       1.0  0.6392726958918616  0.8867646807430276  0.19564968301578736  1.0000
  C   C84       1.0  0.8010683686821524  0.787590052439839  0.1437111999320634  1.0000
  C   C85       1.0  0.8659696198262453  0.4198121235436291  0.38985834814954495  1.0000
  C   C86       1.0  0.8157257027176358  0.40884853386740644  0.3535386698012174  1.0000
  C   C87       1.0  0.833151835638141  0.4313281935218852  0.3034331424177949  1.0000
  C   C88       1.0  0.7914682325582233  0.4149320038424876  0.2693054528924392  1.0000
  C   C89       1.0  0.7314866173491411  0.3749676476358987  0.28401277151106535  1.0000
  C   C90       1.0  0.7117258118062538  0.3559247013568764  0.3347449199934757  1.0000
  C   C91       1.0  0.7532472702707196  0.3725069747168774  0.368810198592314  1.0000
  C   C92       1.0  0.6973101550381458  0.35115998434672935  0.24636220766494427  1.0000
  C   C93       1.0  0.8382502936073735  0.6226398661121734  0.479681786244619  1.0000
  C   C94       1.0  0.7627678260611218  0.716370457841897  0.4853251429514813  1.0000
  C   C95       1.0  0.7744973256225124  0.7793784642462639  0.5076181178077944  1.0000
  C   C96       1.0  0.7027525638396313  0.8661322691690717  0.5126833416538048  1.0000
  C   C97       1.0  0.6169119793227865  0.8923275479000663  0.49669280877372296  1.0000
  C   C98       1.0  0.6066301939394307  0.8281881494739451  0.47383643195171027  1.0000
  C   C99       1.0  0.6784345269479816  0.7419961616501779  0.46803705284949615  1.0000
  C   C100      1.0  0.5438891804169613  0.982962630503842  0.5048496763324408  1.0000
  C   C101      1.0  0.07264275774919332  0.5760154153477471  0.4224993761128317  1.0000
  C   C102      1.0  0.1148464520334116  0.6137385500841931  0.3786070818397178  1.0000
  C   C103      1.0  0.17243522742671763  0.65176275907681  0.3838599327178329  1.0000
  C   C104      1.0  0.2115065854335398  0.6861610946174891  0.34297418804149526  1.0000
  C   C105      1.0  0.1942536247468851  0.6838013840203702  0.2952906077927579  1.0000
  C   C106      1.0  0.13710273892901634  0.6443836321143265  0.2906338314394006  1.0000
  C   C107      1.0  0.0979544878153433  0.6099687531215211  0.3315295361940541  1.0000
  C   C108      1.0  0.23205594090968867  0.7199490817974736  0.25111898360287904  1.0000
  C   C109      1.0  0.9424572206443073  0.1645549559067449  0.4622657507246969  1.0000
  C   C110      1.0  0.016193351533893  0.15023042940897827  0.5457351692875746  1.0000
  C   C111      1.0  0.113238305692029  0.3607244142053432  0.30435264488483676  1.0000
  C   C112      1.0  0.21241935624902203  0.19893171728229214  0.3562915722952623  1.0000
  S   S1        1.0  0.2380805968545658  0.9502308964217291  0.0006204616134227059  1.0000
  S   S2        1.0  0.2963539175833603  0.10111200576874073  0.8616941776957461  1.0000
  S   S3        1.0  0.04975804037874809  0.7619197102591286  0.4993723469133329  1.0000
  S   S4        1.0  0.898898200237035  0.7036473576394259  0.63830224624175  1.0000
  S   S5        1.0  0.761934175948575  0.04976153160903622  0.9993827591565391  1.0000
  S   S6        1.0  0.7036478400329286  0.8988892424798182  0.13830190761947142  1.0000
  S   S7        1.0  0.9502424724926187  0.2380637692620909  0.500623821177619  1.0000
  S   S8        1.0  0.10111726021889213  0.29634415447966217  0.3617009971043075  1.0000
  O   O1        1.0  0.4501510331535031  0.9249462438124781  0.8740606845402324  1.0000
  O   O2        1.0  0.39622549328421997  0.8520107331528523  0.9351978078545996  1.0000
  O   O3        1.0  0.5723540521719243  0.8297630037717245  0.953159319444623  1.0000
  O   O4        1.0  0.594741037921388  0.910168832255628  0.0015157718574059424  1.0000
  O   O5        1.0  0.5378330133631692  0.02628186151117266  0.9140783525698807  1.0000
  O   O6        1.0  0.5856299012577894  0.08618893270937623  0.964592919524982  1.0000
  O   O7        1.0  0.2695068079599494  0.01808589969660095  0.971256996770961  1.0000
  O   O8        1.0  0.34600625811658153  0.1072033452437892  0.9009462572023492  1.0000
  O   O9        1.0  0.0750522430766409  0.5498364960731976  0.6259378595697315  1.0000
  O   O10       1.0  0.14796966335868694  0.6037900840461391  0.5648044469114524  1.0000
  O   O11       1.0  0.1702413929856235  0.4276413847804933  0.5468384635164297  1.0000
  O   O12       1.0  0.08982289194879911  0.4052406968653769  0.49849630449013915  1.0000
  O   O13       1.0  0.9737080504478115  0.46217180308344313  0.5859290745193633  1.0000
  O   O14       1.0  0.9138247406240866  0.4143620901826494  0.535409457325528  1.0000
  O   O15       1.0  0.9818993719730998  0.7304905246456741  0.5287268864773295  1.0000
  O   O16       1.0  0.8928077294896183  0.6539960440714978  0.5990503880613646  1.0000
  O   O17       1.0  0.5498719188797097  0.0750437531286535  0.12592758615036098  1.0000
  O   O18       1.0  0.6037892096510404  0.14799149059310682  0.0648008556109403  1.0000
  O   O19       1.0  0.42764843860815926  0.17023059150288586  0.046837450256226994  1.0000
  O   O20       1.0  0.4052532644534993  0.08982718498831589  0.9984869612418946  1.0000
  O   O21       1.0  0.46217217047193776  0.9737166449244656  0.08591802459954319  1.0000
  O   O22       1.0  0.4143636255789502  0.9138202445430109  0.03540355516683749  1.0000
  O   O23       1.0  0.7305107128852839  0.9819028621337937  0.028743798032728238  1.0000
  O   O24       1.0  0.6539962037019508  0.8927945372522713  0.09905009134697448  1.0000
  O   O25       1.0  0.924959320852672  0.45012682802859405  0.37407035470362615  1.0000
  O   O26       1.0  0.8520061614777888  0.3962178033374427  0.43520109689124803  1.0000
  O   O27       1.0  0.829754935211632  0.5723567803971648  0.4531599018555212  1.0000
  O   O28       1.0  0.9101721792578344  0.5947427702766462  0.501510110581485  1.0000
  O   O29       1.0  0.026295153442944804  0.5378178187210167  0.4140726916541765  1.0000
  O   O30       1.0  0.0861804822823302  0.5856309059351832  0.4645892586606024  1.0000
  O   O31       1.0  0.018098430393379803  0.2694892595146356  0.47126056713512543  1.0000
  O   O32       1.0  0.10721598196536769  0.3459850928510591  0.4009563012384731  1.0000
