data_image0
_chemical_formula_structural       Ag8H24C32O20
_chemical_formula_sum              "Ag8 H24 C32 O20"
_cell_length_a       6.493592276220932
_cell_length_b       11.54637900734729
_cell_length_c       12.236638509687069
_cell_angle_alpha    105.30674563557116
_cell_angle_beta     90.00071588279201
_cell_angle_gamma    89.99920287272727

_space_group_name_H-M_alt    "P 1"
_space_group_IT_number       1

loop_
  _space_group_symop_operation_xyz
  'x, y, z'

loop_
  _atom_site_type_symbol
  _atom_site_label
  _atom_site_symmetry_multiplicity
  _atom_site_fract_x
  _atom_site_fract_y
  _atom_site_fract_z
  _atom_site_occupancy
  Ag  Ag1       1.0  0.1058397515527076  0.5642490781677267  0.20575528969946075  1.0000
  Ag  Ag2       1.0  0.6058322213659652  0.43574839297848217  0.29424063858812116  1.0000
  Ag  Ag3       1.0  0.8941623986545508  0.43575158955056287  0.7942398325329592  1.0000
  Ag  Ag4       1.0  0.3941576091181673  0.5642494005471976  0.7057610658183789  1.0000
  Ag  Ag5       1.0  0.8335158017301368  0.5465335553483399  0.5960971873404617  1.0000
  Ag  Ag6       1.0  0.3335261882060507  0.4534668828859695  0.9039047912895696  1.0000
  Ag  Ag7       1.0  0.16646016889035312  0.4534713795655351  0.40390807646794247  1.0000
  Ag  Ag8       1.0  0.6664667221529897  0.5465337244839504  0.09609276691782749  1.0000
  H   H1        1.0  0.2858894135271939  0.85891809182246  0.6325388275996247  1.0000
  H   H2        1.0  0.7858755750247326  0.14108536295004376  0.8674628277313586  1.0000
  H   H3        1.0  0.7141173566452039  0.14108604592350826  0.3674621343590942  1.0000
  H   H4        1.0  0.21411579541251066  0.8589142460956369  0.13253854853908817  1.0000
  H   H5        1.0  0.4766439181475377  0.050052547416513  0.7163333225554139  1.0000
  H   H6        1.0  0.9766217706091639  0.9499523456972628  0.7836716318960555  1.0000
  H   H7        1.0  0.523369011946663  0.9499533454569687  0.2836697472767185  1.0000
  H   H8        1.0  0.0233665198969035  0.05004632540688192  0.2163311264356551  1.0000
  H   H9        1.0  0.8316974347947834  0.07669890097277232  0.6506971786883824  1.0000
  H   H10       1.0  0.3316809434536907  0.9232981996377918  0.8492940791143296  1.0000
  H   H11       1.0  0.1683201152058587  0.9233000115493583  0.349295835724284  1.0000
  H   H12       1.0  0.6683104269371966  0.076703265184662  0.15070534501759167  1.0000
  H   H13       1.0  0.9997510327339114  0.9088713208274086  0.5074773290435244  1.0000
  H   H14       1.0  0.49974792524214  0.09112289422025552  0.9925150933071052  1.0000
  H   H15       1.0  0.0002541974611674  0.09112312336241501  0.49251366369057337  1.0000
  H   H16       1.0  0.5002480651043513  0.9088767751885031  0.007483846976874997  1.0000
  H   H17       1.0  0.7792320395775364  0.7582578151547422  0.7324270615350483  1.0000
  H   H18       1.0  0.2792490844849739  0.24174298880840447  0.7675738349510011  1.0000
  H   H19       1.0  0.22074855099024399  0.24174622204493093  0.2675779603551334  1.0000
  H   H20       1.0  0.7207453658521319  0.7582567409830503  0.23242266933118563  1.0000
  H   H21       1.0  0.989715917723686  0.7100805814220266  0.7658834669903027  1.0000
  H   H22       1.0  0.4897263452243266  0.2899215956380843  0.73411839081227  1.0000
  H   H23       1.0  0.010270832706453301  0.28992533166073303  0.23411879077735875  1.0000
  H   H24       1.0  0.5102711851184552  0.7100762783667918  0.26588006561610905  1.0000
  C   C1        1.0  0.7349403499479126  0.7948624080194548  0.48368364488304383  1.0000
  C   C2        1.0  0.2349323120753652  0.2051332629430931  0.01631593198298729  1.0000
  C   C3        1.0  0.2650664202894433  0.20513367055702506  0.5163143277088905  1.0000
  C   C4        1.0  0.7650605983348058  0.7948681213707474  0.9836867401500482  1.0000
  C   C5        1.0  0.5320794288523416  0.7809468534336476  0.5194584125621801  1.0000
  C   C6        1.0  0.0320697655648985  0.21905285125988883  0.9805397160316074  1.0000
  C   C7        1.0  0.46793042132096474  0.2190527958050623  0.48054133975561086  1.0000
  C   C8        1.0  0.9679262247633673  0.7809477359742941  0.01945865418277747  1.0000
  C   C9        1.0  0.4419104223217474  0.8718418365707309  0.6048825558923737  1.0000
  C   C10       1.0  0.9418929441222447  0.12815787135308204  0.8951215861289085  1.0000
  C   C11       1.0  0.5581040478416527  0.12815858959719156  0.3951223103625594  1.0000
  C   C12       1.0  0.05810304624405661  0.8718417578038213  0.10487897815372087  1.0000
  C   C13       1.0  0.5484654577184429  0.9784500427981797  0.6513518736412036  1.0000
  C   C14       1.0  0.04844526391786269  0.021551292620415614  0.8486492563343118  1.0000
  C   C15       1.0  0.4515520923678196  0.021552219010779104  0.34865185248219177  1.0000
  C   C16       1.0  0.951546106491243  0.9784492543766133  0.1513507378672115  1.0000
  C   C17       1.0  0.7478490828034196  0.9933869988811352  0.6148027902387623  1.0000
  C   C18       1.0  0.2478301309313125  0.006609536640013403  0.8851959283220551  1.0000
  C   C19       1.0  0.2521684672931173  0.0066099572345877  0.3851962363090351  1.0000
  C   C20       1.0  0.7521612395257478  0.9933900321538192  0.11480707194703395  1.0000
  C   C21       1.0  0.8410981111026816  0.9009197407519028  0.5329815565596832  1.0000
  C   C22       1.0  0.34108495886830786  0.09907261023730032  0.9670166583815527  1.0000
  C   C23       1.0  0.15891481908816016  0.09907362458056923  0.4670165022577421  1.0000
  C   C24       1.0  0.6589094915397453  0.9009278562462129  0.0329865838249218  1.0000
  C   C25       1.0  0.4072493205838086  0.6739729167753481  0.46131330391031605  1.0000
  C   C26       1.0  0.9072446086984983  0.32602987726423294  0.03868362388922008  1.0000
  C   C27       1.0  0.5927605295578076  0.3260312008348834  0.5386884700553907  1.0000
  C   C28       1.0  0.09276216148576572  0.6739698323620689  0.9613136924229405  1.0000
  C   C29       1.0  0.8437862984201561  0.6975292596298814  0.397282231983496  1.0000
  C   C30       1.0  0.3437840477387227  0.3024639228943258  0.1027174027456397  1.0000
  C   C31       1.0  0.1562158519178638  0.3024667384575964  0.6027189885942262  1.0000
  C   C32       1.0  0.6562104025983899  0.697535806897122  0.8972791015365472  1.0000
  O   O1        1.0  0.9490595548839521  0.7293457111108026  0.3219404364636772  1.0000
  O   O2        1.0  0.4490506499768188  0.27064410806247  0.17805899638717895  1.0000
  O   O3        1.0  0.05095029541571711  0.27064135020911106  0.678056740837377  1.0000
  O   O4        1.0  0.5509422603489469  0.7293600901054096  0.8219395295390868  1.0000
  O   O5        1.0  0.8264644893149297  0.5889471220123712  0.40298705541620444  1.0000
  O   O6        1.0  0.3264701744011306  0.41104880349502804  0.09701565491204177  1.0000
  O   O7        1.0  0.17352996108835578  0.4110507117504554  0.5970130250031572  1.0000
  O   O8        1.0  0.6735288959161706  0.5889517233515705  0.9029851513079661  1.0000
  O   O9        1.0  0.4011916573134259  0.6448997191834991  0.3531884076477069  1.0000
  O   O10       1.0  0.9011934119139583  0.3551040312299918  0.14680791995034065  1.0000
  O   O11       1.0  0.5988151128938314  0.3551017053380718  0.6468126405211833  1.0000
  O   O12       1.0  0.09881489820519822  0.6448984117417355  0.8531884981561643  1.0000
  O   O13       1.0  0.31092040337986765  0.6163164393382559  0.52111157638965  1.0000
  O   O14       1.0  0.8109154835896888  0.383689750391575  0.9788828093345427  1.0000
  O   O15       1.0  0.6890863667893469  0.38368594326058775  0.4788872777109957  1.0000
  O   O16       1.0  0.18909590645549912  0.616316283368306  0.021114576498504782  1.0000
  O   O17       1.0  0.9153585169249326  0.7299582762996412  0.7007015283124574  1.0000
  O   O18       1.0  0.41537407058412873  0.2700398856794379  0.7992987497898978  1.0000
  O   O19       1.0  0.08462053363860632  0.2700431684361035  0.29929870778813233  1.0000
  O   O20       1.0  0.5846203798092517  0.7299579682093197  0.20070051863013558  1.0000
