data_image0
_chemical_formula_structural       Cd2H36C56N8O8
_chemical_formula_sum              "Cd2 H36 C56 N8 O8"
_cell_length_a       9.619393260810813
_cell_length_b       12.084328481021744
_cell_length_c       12.541413830296161
_cell_angle_alpha    65.4266816997624
_cell_angle_beta     79.320311191202
_cell_angle_gamma    82.2209948403081

_space_group_name_H-M_alt    "P 1"
_space_group_IT_number       1

loop_
  _space_group_symop_operation_xyz
  'x, y, z'

loop_
  _atom_site_type_symbol
  _atom_site_label
  _atom_site_symmetry_multiplicity
  _atom_site_fract_x
  _atom_site_fract_y
  _atom_site_fract_z
  _atom_site_occupancy
  Cd  Cd1       1.0  0.0764516879439014  0.12181007120635459  0.3207040646694423  1.0000
  Cd  Cd2       1.0  0.9235647844610997  0.8781877921657392  0.6793014088886271  1.0000
  H   H1        1.0  0.2902576501737002  0.3556432596283584  0.00943817041734011  1.0000
  H   H2        1.0  0.7097476433721822  0.6443593462951183  0.9905592876508968  1.0000
  H   H3        1.0  0.38690244499906623  0.4765792298801584  0.09492918597437246  1.0000
  H   H4        1.0  0.6130906539470331  0.5234296942761032  0.9050670030279168  1.0000
  H   H5        1.0  0.9975170400985647  0.16690778785305577  0.5766983128670163  1.0000
  H   H6        1.0  0.0024838187550031213  0.8330761156225532  0.42331964111270554  1.0000
  H   H7        1.0  0.1516280409218212  0.4554741252938966  0.6279598763952523  1.0000
  H   H8        1.0  0.8483812925183901  0.5445176470951621  0.3720386330793488  1.0000
  H   H9        1.0  0.6411745228906797  1.591572122089777e-05  0.31279315179462236  1.0000
  H   H10       1.0  0.35883758150265527  0.9999750755133614  0.687229153616386  1.0000
  H   H11       1.0  0.9525704043594702  0.5781375006692073  0.7074085501213078  1.0000
  H   H12       1.0  0.047429150353508504  0.42185615509377783  0.29258679003739024  1.0000
  H   H13       1.0  0.6114802623458004  0.05637279468676578  0.6326732952872762  1.0000
  H   H14       1.0  0.38853162657060386  0.9436287354549363  0.3673299193336704  1.0000
  H   H15       1.0  0.5221301516197983  0.1485488250477758  0.08484769522131332  1.0000
  H   H16       1.0  0.47785337735538763  0.8514863685290662  0.9151432964682583  1.0000
  H   H17       1.0  0.12520206653872637  0.0657848350967214  0.7768380244929676  1.0000
  H   H18       1.0  0.8748038912607471  0.9342120629580675  0.2231686580260758  1.0000
  H   H19       1.0  0.1614975604378373  0.8076590189671435  0.8833818793478802  1.0000
  H   H20       1.0  0.8384939378561996  0.1923427303800409  0.11661327038269316  1.0000
  H   H21       1.0  0.091314155439072  0.06420337755667299  0.9815945560435895  1.0000
  H   H22       1.0  0.9086785750694375  0.9357981672366406  0.018406860749131233  1.0000
  H   H23       1.0  0.08507519144885832  0.2563847077446155  0.007433165642162009  1.0000
  H   H24       1.0  0.9149181376294921  0.7436112089043189  0.9925750623559254  1.0000
  H   H25       1.0  0.4195691501687265  0.38197396756742547  0.5707747495193447  1.0000
  H   H26       1.0  0.58044854968351  0.6180196123501388  0.4292241655569101  1.0000
  H   H27       1.0  0.2739053929438384  0.8988148928293782  0.050986182198748585  1.0000
  H   H28       1.0  0.7260659638043947  0.10120113546094697  0.9490115301134879  1.0000
  H   H29       1.0  0.3858892058655742  0.26698333844861105  0.23305752565913454  1.0000
  H   H30       1.0  0.6140921768694979  0.7330136934850132  0.7669433738359787  1.0000
  H   H31       1.0  0.3251756137141513  0.6961326270058519  0.03520673605461878  1.0000
  H   H32       1.0  0.6748081177345852  0.30387359670309877  0.9647887419756388  1.0000
  H   H33       1.0  0.593535761687143  0.373681807524683  0.23022157783409375  1.0000
  H   H34       1.0  0.4064433230612679  0.626326525802959  0.7697642586790326  1.0000
  H   H35       1.0  0.6096829186917462  0.4291498676878973  0.3961140928548517  1.0000
  H   H36       1.0  0.3903331071071818  0.5708596320639855  0.603866328221372  1.0000
  C   C1        1.0  0.16864034390167867  0.5160582472100541  0.8996502370050766  1.0000
  C   C2        1.0  0.8313617249703501  0.48394358257989706  0.10034323013511687  1.0000
  C   C3        1.0  0.2615954532606821  0.45298196508601046  0.9819984739353134  1.0000
  C   C4        1.0  0.7384002829758246  0.5470206215885013  0.017998889633957994  1.0000
  C   C5        1.0  0.3149188384095822  0.5214411292829126  0.029679833612320263  1.0000
  C   C6        1.0  0.6850742508252381  0.47856698972312733  0.9703134685151157  1.0000
  C   C7        1.0  0.6407177775753186  0.031750122278161486  0.46951007516819504  1.0000
  C   C8        1.0  0.35929489972293993  0.9682430985208084  0.530499334185045  1.0000
  C   C9        1.0  0.7931206221458069  0.059750996432960286  0.43959615953816933  1.0000
  C   C10       1.0  0.20688523589202393  0.9402468396459012  0.5604093877799771  1.0000
  C   C11       1.0  0.09671777462977363  0.20837405362697572  0.5304844826964796  1.0000
  C   C12       1.0  0.9032849866328052  0.7916125737103099  0.4695329468230869  1.0000
  C   C13       1.0  0.2832203076093905  0.27280254170098317  0.3993234257046724  1.0000
  C   C14       1.0  0.7167796802280436  0.72718650366599  0.6006751772130487  1.0000
  C   C15       1.0  0.11349338033402032  0.36777369178768987  0.8196602046933851  1.0000
  C   C16       1.0  0.8865041015804994  0.63222153161243  0.18034205014824775  1.0000
  C   C17       1.0  0.14281216891161821  0.2602074796329319  0.6921938328197684  1.0000
  C   C18       1.0  0.8571967060406395  0.7397786565674666  0.3078116561192275  1.0000
  C   C19       1.0  0.26394790616652847  0.057031599704536994  0.15460567617537185  1.0000
  C   C20       1.0  0.7360295071252027  0.9429802649398622  0.845409410702793  1.0000
  C   C21       1.0  0.13715375655559822  0.3698230548591751  0.7055413635340245  1.0000
  C   C22       1.0  0.8628516260437494  0.6301658978553488  0.29446042016425644  1.0000
  C   C23       1.0  0.5783008893223069  0.9998106149824081  0.3945766236300514  1.0000
  C   C24       1.0  0.4217125992492754  0.0001861799337205916  0.6054337075666255  1.0000
  C   C25       1.0  0.02056482666267102  0.5818969714028481  0.7657005632315264  1.0000
  C   C26       1.0  0.979435249749983  0.4181038776997211  0.23429518004278557  1.0000
  C   C27       1.0  0.5614358555015855  0.03208871457557898  0.5750339836540732  1.0000
  C   C28       1.0  0.4385761672543468  0.9679110192422936  0.42496908812321293  1.0000
  C   C29       1.0  0.12940851793822367  0.642293543638729  0.8663134949383038  1.0000
  C   C30       1.0  0.8705883094339768  0.3577081927803078  0.13368242232737518  1.0000
  C   C31       1.0  0.5135836858867507  0.08393012102783359  0.04672296498653589  1.0000
  C   C32       1.0  0.48641542304022084  0.9160944338007151  0.9532640095993944  1.0000
  C   C33       1.0  0.12337391349070971  0.1495577154353711  0.7902753299415369  1.0000
  C   C34       1.0  0.8766344358147081  0.8504364112105519  0.209733617246961  1.0000
  C   C35       1.0  0.29366269738023487  0.30452715543351866  0.4941074925921001  1.0000
  C   C36       1.0  0.7063418983124023  0.695456559713861  0.5058892043433405  1.0000
  C   C37       1.0  0.18701261130101446  0.7098283478768435  0.9130878154004665  1.0000
  C   C38       1.0  0.8129776279399152  0.2901769063494015  0.0869102015219099  1.0000
  C   C39       1.0  0.10344782013301314  0.1493772191104411  0.903380900045626  1.0000
  C   C40       1.0  0.8965548789147277  0.850619761110586  0.09662306958993126  1.0000
  C   C41       1.0  0.3858764128594388  0.027160266951909793  0.0749906737586556  1.0000
  C   C42       1.0  0.6141122242542921  0.9728513593751342  0.9250051959225517  1.0000
  C   C43       1.0  0.10041038893047734  0.2574230259586087  0.918978198513976  1.0000
  C   C44       1.0  0.8995849107126689  0.742573897952475  0.08102694893484146  1.0000
  C   C45       1.0  0.41011230003556437  0.36086356520402757  0.4960978219704021  1.0000
  C   C46       1.0  0.589892919590419  0.6391247683836452  0.5038954439469806  1.0000
  C   C47       1.0  0.3734999202086727  0.94268644951115  0.027847760947551703  1.0000
  C   C48       1.0  0.6264891340758681  0.05732922927887067  0.9721345511044038  1.0000
  C   C49       1.0  0.39164371175630924  0.2966514461625565  0.3030275083125532  1.0000
  C   C50       1.0  0.6083482683953961  0.7033423658886375  0.6969625743382155  1.0000
  C   C51       1.0  0.2791733813221668  0.6472439141873564  0.9956224766690982  1.0000
  C   C52       1.0  0.7208178273982286  0.35276145438223955  0.004372154333644555  1.0000
  C   C53       1.0  0.507111414426781  0.3543142033650851  0.3037619144073745  1.0000
  C   C54       1.0  0.4928746696827773  0.6456860283340972  0.6962242807929258  1.0000
  C   C55       1.0  0.5161431681040654  0.3858901818473937  0.39836524923425304  1.0000
  C   C56       1.0  0.48386297573707526  0.6141118661430411  0.6016219139637401  1.0000
  N   N1        1.0  0.09902122100766775  0.4807978983765721  0.8314999947424867  1.0000
  N   N2        1.0  0.9009831396086627  0.5192020980285719  0.16849460186626425  1.0000
  N   N3        1.0  0.1583363365086683  0.21426558788023434  0.424823638895596  1.0000
  N   N4        1.0  0.8416647569429617  0.7857274912821451  0.5751892301373617  1.0000
  N   N5        1.0  0.17288238934740013  0.2615287277193517  0.5763624886643799  1.0000
  N   N6        1.0  0.8271267629951925  0.738454620983617  0.4236456014621482  1.0000
  N   N7        1.0  0.035016061145903214  0.679200387838442  0.784166038982761  1.0000
  N   N8        1.0  0.9649765258117997  0.32080214812847163  0.2158326337787742  1.0000
  O   O1        1.0  0.8571833001713858  0.06570948068181078  0.3382624474334436  1.0000
  O   O2        1.0  0.14282815215165812  0.9342863866964632  0.6617485510670492  1.0000
  O   O3        1.0  0.8543729215525317  0.07338575602182829  0.5147524679370721  1.0000
  O   O4        1.0  0.14564341848807064  0.9266003567642046  0.4852542564341107  1.0000
  O   O5        1.0  0.15296735050832677  0.9989634622844507  0.18779719585246116  1.0000
  O   O6        1.0  0.8470172277667558  0.00103193033201879  0.8121990339461292  1.0000
  O   O7        1.0  0.2789171469329191  0.14304365422827905  0.18634458647073163  1.0000
  O   O8        1.0  0.7210921689016843  0.8569776805807546  0.8136587588592338  1.0000
