data_image0
_chemical_formula_structural       Zn2H18C44S2N2O14F4
_chemical_formula_sum              "Zn2 H18 C44 S2 N2 O14 F4"
_cell_length_a       13.794367345933749
_cell_length_b       15.69164958410028
_cell_length_c       15.727609257816932
_cell_angle_alpha    79.12805042621316
_cell_angle_beta     89.89852167994012
_cell_angle_gamma    83.5934714273237

_space_group_name_H-M_alt    "P 1"
_space_group_IT_number       1

loop_
  _space_group_symop_operation_xyz
  'x, y, z'

loop_
  _atom_site_type_symbol
  _atom_site_label
  _atom_site_symmetry_multiplicity
  _atom_site_fract_x
  _atom_site_fract_y
  _atom_site_fract_z
  _atom_site_occupancy
  Zn  Zn1       1.0  0.5013055462193705  0.5938018527700067  0.514758679710127  1.0000
  Zn  Zn2       1.0  0.5238764195647791  0.4010231633066467  0.5030730722491512  1.0000
  H   H1        1.0  0.9999296520435269  0.5833174135073662  0.4075150229826718  1.0000
  H   H2        1.0  0.7691663381209749  0.30208978744206416  0.9006511134996061  1.0000
  H   H3        1.0  0.4510841504103099  0.6142303871335171  0.8538842647058402  1.0000
  H   H4        1.0  0.652276268174745  0.41894606533875134  0.1462690609842738  1.0000
  H   H5        1.0  0.42228641415571394  0.09242612296754517  0.277674950090919  1.0000
  H   H6        1.0  0.5467414419930136  0.9217002687024018  0.7280110557796746  1.0000
  H   H7        1.0  0.4785806380944989  0.6494052343698514  0.6624040437757374  1.0000
  H   H8        1.0  0.5549200574103138  0.34679502027326964  0.3484875147194231  1.0000
  H   H9        1.0  0.5567763632097494  0.6757544588639774  0.3675005562377223  1.0000
  H   H10       1.0  0.34691170718027564  0.34754239394641934  0.5645165045111965  1.0000
  H   H11       1.0  0.0204192403081151  0.4055563288633834  0.5345886615003934  1.0000
  H   H12       1.0  0.508596644464177  0.23435606000673204  0.266681971862134  1.0000
  H   H13       1.0  0.5000675117132333  0.7718443639485527  0.7390695934315872  1.0000
  H   H14       1.0  0.357574829351286  0.6955051073715666  0.950679827523004  1.0000
  H   H15       1.0  0.7437535110786513  0.33723435302790966  0.04915592606359099  1.0000
  H   H16       1.0  0.5050344166191465  0.5343679641146794  0.7819761580032819  1.0000
  H   H17       1.0  0.5618116320725053  0.4714853484955838  0.2252807928825291  1.0000
  H   H18       1.0  0.30763043632464365  0.7121238966054264  0.097854351957892  1.0000
  C   C1        1.0  0.4643730555286325  0.5426007388605073  0.3453204443086618  1.0000
  C   C2        1.0  0.6328748968593416  0.43388031415617695  0.0775357064828199  1.0000
  C   C3        1.0  0.41169309229736223  0.6407982286159213  0.9772262592106955  1.0000
  C   C4        1.0  0.6847795423534679  0.38776014057692265  0.023319611923334104  1.0000
  C   C5        1.0  0.50670951232415  0.2230702273411609  0.33714920526743  1.0000
  C   C6        1.0  0.4932391161240659  0.7833050914842872  0.6686702540632368  1.0000
  C   C7        1.0  0.5289202245386733  0.2864306940119974  0.3810493237105703  1.0000
  C   C8        1.0  0.48316263368242585  0.7154798887589136  0.6271661503371392  1.0000
  C   C9        1.0  0.4852984191779369  0.2059964215729266  0.5127997405592168  1.0000
  C   C10       1.0  0.48859431536771325  0.8046085140519567  0.490829586542695  1.0000
  C   C11       1.0  0.48801972953433637  0.12909323522694646  0.4770388289725247  1.0000
  C   C12       1.0  0.5721153655524134  0.4525442707848341  0.6627394420401416  1.0000
  C   C13       1.0  0.4813305631755398  0.8821922419568864  0.5275775306861592  1.0000
  C   C14       1.0  0.4815487312197604  0.14319719928686675  0.3846153967748904  1.0000
  C   C15       1.0  0.4978079383484727  0.8676614555570694  0.619624079869304  1.0000
  C   C16       1.0  0.6890070891147815  0.4986553179995782  0.4615670115988593  1.0000
  C   C17       1.0  0.3257522155603425  0.5019401461639745  0.5318122142950799  1.0000
  C   C18       1.0  0.4925918762325737  0.0405093327324551  0.5242829243113505  1.0000
  C   C19       1.0  0.46790822747276906  0.9725678865070649  0.48275886825613407  1.0000
  C   C20       1.0  0.427904714379288  0.0013235249215171017  0.3968169560467487  1.0000
  C   C21       1.0  0.5295767819829463  0.016133825096027  0.6112009270227787  1.0000
  C   C22       1.0  0.44365186604448337  0.07890928704757981  0.3459602290445289  1.0000
  C   C23       1.0  0.4977607316055882  0.5472744571145328  0.10415302374733669  1.0000
  C   C24       1.0  0.5247694042000077  0.9353457057725408  0.6598833016676976  1.0000
  C   C25       1.0  0.22438736805937512  0.49336139139445123  0.5222094661999535  1.0000
  C   C26       1.0  0.7913147008515793  0.5032118800297241  0.4442850112487378  1.0000
  C   C27       1.0  0.043414505240313934  0.4660519304855767  0.4978098089897641  1.0000
  C   C28       1.0  0.9771676735426948  0.5232022703394962  0.4453390531043908  1.0000
  C   C29       1.0  0.8784879879695637  0.5107352241056021  0.44155436449498353  1.0000
  C   C30       1.0  0.14017752113807802  0.4813400475160563  0.5091946340175113  1.0000
  C   C31       1.0  0.44912443350745695  0.5672239424960849  0.24944233918230202  1.0000
  C   C32       1.0  0.6084724066551886  0.43442619945734867  0.7546500281318416  1.0000
  C   C33       1.0  0.36474597619811533  0.6601891677260667  0.1243214310492107  1.0000
  C   C34       1.0  0.5869907197156579  0.4719640363153772  0.8989883354788404  1.0000
  C   C35       1.0  0.7106483637156984  0.3535846852211649  0.8764148874260371  1.0000
  C   C36       1.0  0.3770795789071357  0.634858171384849  0.2124416863881891  1.0000
  C   C37       1.0  0.6837516726207654  0.36848478025242304  0.7900279057622939  1.0000
  C   C38       1.0  0.5073817819646392  0.5242016854561128  0.1952031569401242  1.0000
  C   C39       1.0  0.5633047743943393  0.4848653870686874  0.8103158320075821  1.0000
  C   C40       1.0  0.4246885454545293  0.6170811882653453  0.0688055379458135  1.0000
  C   C41       1.0  0.662109334606292  0.40373022363841227  0.9328971577177896  1.0000
  C   C42       1.0  0.5558588327704754  0.501404239994052  0.046406904865634126  1.0000
  C   C43       1.0  0.5357004269905162  0.5231393149978628  0.9560574211873174  1.0000
  C   C44       1.0  0.46435834695812883  0.5950089456611849  0.9234516378877018  1.0000
  S   S1        1.0  0.5156725309458069  0.8080338397963871  0.3753314571640658  1.0000
  S   S2        1.0  0.4171259549905599  0.2149160710288527  0.6122366024506362  1.0000
  N   N1        1.0  0.5099724741446394  0.28103557122860673  0.4670792723864707  1.0000
  N   N2        1.0  0.4884698469949811  0.7246439568285367  0.539220091221104  1.0000
  O   O1        1.0  0.4906410644407798  0.6021979823336565  0.3833439021050182  1.0000
  O   O2        1.0  0.5661408749883138  0.8838321055598894  0.3493677585489365  1.0000
  O   O3        1.0  0.5931060049893659  0.7265047420110875  0.37868203826086233  1.0000
  O   O4        1.0  0.37876612892787165  0.13313163049088667  0.6413261108515514  1.0000
  O   O5        1.0  0.47551505570425684  0.25192521838950194  0.6683521517782864  1.0000
  O   O6        1.0  0.3300716327947839  0.28150945948350886  0.5712322671724692  1.0000
  O   O7        1.0  0.591819496357701  0.3948642776385825  0.6167364855577091  1.0000
  O   O8        1.0  0.4525469011070982  0.46643070518682345  0.3829934242073207  1.0000
  O   O9        1.0  0.5208518356476189  0.5262750972416086  0.6377908457385715  1.0000
  O   O10       1.0  0.6490271985536681  0.5589055545936857  0.4981507668847769  1.0000
  O   O11       1.0  0.3832496221975815  0.4294314923610044  0.5528847303663866  1.0000
  O   O12       1.0  0.6493675455361086  0.4356913588828206  0.44042420557713063  1.0000
  O   O13       1.0  0.3539690980406506  0.5769932105675438  0.518741269112418  1.0000
  O   O14       1.0  0.42929522194175007  0.7949692255726148  0.3309040971127288  1.0000
  F   F1        1.0  0.37149950896427697  0.9493293346927488  0.3653738692592157  1.0000
  F   F2        1.0  0.572827136607252  0.07508938369255701  0.6457779987754293  1.0000
  F   F3        1.0  0.7328284307828952  0.3189437544224986  0.7385643569600191  1.0000
  F   F4        1.0  0.3161207829341919  0.6727842878514848  0.2657100160622009  1.0000
