data_image0
_chemical_formula_structural       In8H24C20O44
_chemical_formula_sum              "In8 H24 C20 O44"
_cell_length_a       8.630118854672137
_cell_length_b       10.825357981011686
_cell_length_c       12.443010297583843
_cell_angle_alpha    89.99986307424801
_cell_angle_beta     105.56501307604333
_cell_angle_gamma    90.00013115862583

_space_group_name_H-M_alt    "P 1"
_space_group_IT_number       1

loop_
  _space_group_symop_operation_xyz
  'x, y, z'

loop_
  _atom_site_type_symbol
  _atom_site_label
  _atom_site_symmetry_multiplicity
  _atom_site_fract_x
  _atom_site_fract_y
  _atom_site_fract_z
  _atom_site_occupancy
  In  In1       1.0  0.13106039251589857  0.8811033955133207  0.7816696784700313  1.0000
  In  In2       1.0  0.3689389666358239  0.38110268260968627  0.718331537517173  1.0000
  In  In3       1.0  0.8689398709180696  0.1188963304981741  0.2183320905520389  1.0000
  In  In4       1.0  0.6310625006432105  0.6188961196478218  0.28166884855660607  1.0000
  In  In5       1.0  0.762990628083216  0.7586830125744796  0.8296709382652098  1.0000
  In  In6       1.0  0.7370050211101288  0.25867941939156214  0.6703293234841752  1.0000
  In  In7       1.0  0.23700242078943023  0.24132133222269656  0.1703254677435595  1.0000
  In  In8       1.0  0.26299885085958863  0.7413212303792776  0.329673118114826  1.0000
  H   H1        1.0  0.8585241322768339  0.9852576449282179  0.7919556046249454  1.0000
  H   H2        1.0  0.6414816441047153  0.4852556212817232  0.7080460733963674  1.0000
  H   H3        1.0  0.1414797411956883  0.014743928602918297  0.208044426260841  1.0000
  H   H4        1.0  0.35852102551966425  0.5147441047324505  0.291955340440019  1.0000
  H   H5        1.0  0.0085823814926016  0.16054267029383598  0.5521085779860541  1.0000
  H   H6        1.0  0.4914176899660276  0.6605417369919451  0.9478924258766668  1.0000
  H   H7        1.0  0.9914178819393129  0.8394552082036953  0.4478931910375509  1.0000
  H   H8        1.0  0.5085813721237856  0.33945706526508695  0.05210670824116899  1.0000
  H   H9        1.0  0.18321138977088944  0.6034046607953698  0.02353006911796029  1.0000
  H   H10       1.0  0.31678356060667323  0.10340406746227868  0.47646762542175475  1.0000
  H   H11       1.0  0.816781658093376  0.3965932177007331  0.9764679440378146  1.0000
  H   H12       1.0  0.6832203138639555  0.8965947348001176  0.523530798324721  1.0000
  H   H13       1.0  0.9157178852453498  0.5950150144445698  0.5726339342839422  1.0000
  H   H14       1.0  0.5842786004175337  0.09501505527845916  0.9273700384602676  1.0000
  H   H15       1.0  0.0842787686547695  0.40498655907630615  0.4273687693005144  1.0000
  H   H16       1.0  0.4157228673631224  0.9049846707371287  0.07262954404193069  1.0000
  H   H17       1.0  0.0855327524735259  0.0942783355110208  0.949373706951313  1.0000
  H   H18       1.0  0.41446717296348373  0.5942792765883808  0.5506249965335286  1.0000
  H   H19       1.0  0.9144639034269133  0.9057213905003106  0.05062578235143182  1.0000
  H   H20       1.0  0.5855330914716746  0.405720449425317  0.44937516534692185  1.0000
  H   H21       1.0  0.36589777859430234  0.926799314551829  0.6228216697211479  1.0000
  H   H22       1.0  0.13409807575983024  0.4267995841837331  0.8771755833164433  1.0000
  H   H23       1.0  0.6340964726185448  0.07320133521710659  0.3771757640540727  1.0000
  H   H24       1.0  0.8659045943661711  0.5732010655885275  0.12282502694836238  1.0000
  C   C1        1.0  0.004524580964883301  0.09341130901925249  0.6178595574655361  1.0000
  C   C2        1.0  0.4954741386938793  0.5934105637110249  0.8821405304134515  1.0000
  C   C3        1.0  0.9954756824680543  0.906587493235257  0.38214221155730127  1.0000
  C   C4        1.0  0.5045249238955024  0.4065873147901299  0.11785780013434528  1.0000
  C   C5        1.0  0.11169760545983111  0.6673550050498702  0.960151159578757  1.0000
  C   C6        1.0  0.388298874629605  0.16735112267058835  0.5398459460823233  1.0000
  C   C7        1.0  0.888296645753016  0.33264564471906505  0.03984627419647071  1.0000
  C   C8        1.0  0.6117037969950873  0.832646755834041  0.4601522534723586  1.0000
  C   C9        1.0  0.9160301911610065  0.6625240072473629  0.6391655432860829  1.0000
  C   C10       1.0  0.5839676496427656  0.16252145897570358  0.8608353269610093  1.0000
  C   C11       1.0  0.08396886993173068  0.3374784900353802  0.36083519797029606  1.0000
  C   C12       1.0  0.41603261479239245  0.8374782670379942  0.1391648349194341  1.0000
  C   C13       1.0  0.2164397302804133  0.0916013953455561  0.9580563859466195  1.0000
  C   C14       1.0  0.28356139254110957  0.5916011975404984  0.5419417426182704  1.0000
  C   C15       1.0  0.783558127965364  0.9083992544224414  0.04194413111873269  1.0000
  C   C16       1.0  0.7164412780834298  0.40839760471890674  0.45805806407726385  1.0000
  C   C17       1.0  0.43550248672477215  0.8717784668818495  0.6941394263277657  1.0000
  C   C18       1.0  0.0644968536661281  0.3717751102978113  0.8058585909052312  1.0000
  C   C19       1.0  0.5644965763724059  0.1282258779192773  0.30585810064382457  1.0000
  C   C20       1.0  0.935504614114528  0.6282246157177765  0.19414099159696005  1.0000
  O   O1        1.0  0.583097920925347  0.8557939030169093  0.6998167175991837  1.0000
  O   O2        1.0  0.9169015550027384  0.3557884340800399  0.8001808407477853  1.0000
  O   O3        1.0  0.41690114217491464  0.1442132130551528  0.30018080937011143  1.0000
  O   O4        1.0  0.08309871043463352  0.6442122156928463  0.1998177139902708  1.0000
  O   O5        1.0  0.1905865996592553  0.7416455210203663  0.9163954969165004  1.0000
  O   O6        1.0  0.30941365336082083  0.24164414572284437  0.5836037647613708  1.0000
  O   O7        1.0  0.8094148676208092  0.25835420499412004  0.08360488915650416  1.0000
  O   O8        1.0  0.6905866125740587  0.7583537327802002  0.416393986408174  1.0000
  O   O9        1.0  0.9172758643448448  0.9139897928239192  0.8317841985191945  1.0000
  O   O10       1.0  0.582726145339727  0.41398961882664753  0.6682161220195013  1.0000
  O   O11       1.0  0.0827244000913367  0.08601085694676407  0.16821596336048117  1.0000
  O   O12       1.0  0.4172765252868659  0.5860110309467146  0.331783684674491  1.0000
  O   O13       1.0  0.8946678150970514  0.10243161484556398  0.6687029129545365  1.0000
  O   O14       1.0  0.6053298929275855  0.6024330682327416  0.831296450206878  1.0000
  O   O15       1.0  0.105331244988335  0.8975653398930917  0.3312994354480878  1.0000
  O   O16       1.0  0.39466917016444825  0.39756665778347877  0.16870107676856347  1.0000
  O   O17       1.0  0.11038955222650772  0.009124094598746498  0.6390740760666986  1.0000
  O   O18       1.0  0.3896101821252315  0.5091222905393095  0.8609271799223919  1.0000
  O   O19       1.0  0.8896107107058384  0.9908747076546616  0.36092849652695247  1.0000
  O   O20       1.0  0.610390082306843  0.49087466420344567  0.13907298196036075  1.0000
  O   O21       1.0  0.30990228306124834  0.15912754174046026  0.030819821288794493  1.0000
  O   O22       1.0  0.1900976022531964  0.6591278474167481  0.46917948080759686  1.0000
  O   O23       1.0  0.6900943713384394  0.8408731080245387  0.969182078725616  1.0000
  O   O24       1.0  0.8099038650258379  0.34087095484075997  0.5308209052661751  1.0000
  O   O25       1.0  0.2696000479538938  0.0199355395561582  0.8954445215418544  1.0000
  O   O26       1.0  0.2303997124704011  0.5199341489829692  0.6045535021616075  1.0000
  O   O27       1.0  0.7304002154811046  0.980065110212308  0.10455724747944833  1.0000
  O   O28       1.0  0.7696005529638866  0.4800637295189814  0.3954450525787506  1.0000
  O   O29       1.0  0.36592425620993657  0.8278915376135882  0.7635941031181943  1.0000
  O   O30       1.0  0.13407979785672816  0.32789034632179437  0.7364048839589827  1.0000
  O   O31       1.0  0.6340808211086825  0.1721100359205394  0.2364045448185337  1.0000
  O   O32       1.0  0.8659228722672128  0.6721084559365023  0.2635957263073649  1.0000
  O   O33       1.0  0.8091640410831715  0.6485667934388601  0.6916308980745994  1.0000
  O   O34       1.0  0.6908337671439427  0.1485627368339166  0.8083724061262102  1.0000
  O   O35       1.0  0.19083381616449913  0.351436627597863  0.3083712261300704  1.0000
  O   O36       1.0  0.30916770013612194  0.8514369891805699  0.19162797994679437  1.0000
  O   O37       1.0  0.9601623737554094  0.6564757957812759  0.9412195790557263  1.0000
  O   O38       1.0  0.5398342522356927  0.1564693777583628  0.5587786663604106  1.0000
  O   O39       1.0  0.03983308030645111  0.34352854901637636  0.0587780789089862  1.0000
  O   O40       1.0  0.4601684183888466  0.8435294245010426  0.4412211403351236  1.0000
  O   O41       1.0  0.0237047046005259  0.7451366063817416  0.654203980047022  1.0000
  O   O42       1.0  0.4762943528468853  0.24513573937424832  0.8457958551956963  1.0000
  O   O43       1.0  0.976295559335064  0.2548640433878333  0.34579698540346016  1.0000
  O   O44       1.0  0.5237071149327407  0.7548630628843682  0.15420372730726942  1.0000
