data_image0
_chemical_formula_structural       Zn6H72C120N18O24
_chemical_formula_sum              "Zn6 H72 C120 N18 O24"
_cell_length_a       15.3143384604357
_cell_length_b       15.374662435560598
_cell_length_c       17.991329425562117
_cell_angle_alpha    91.42782898136252
_cell_angle_beta     97.86865017097524
_cell_angle_gamma    99.90554404902753

_space_group_name_H-M_alt    "P 1"
_space_group_IT_number       1

loop_
  _space_group_symop_operation_xyz
  'x, y, z'

loop_
  _atom_site_type_symbol
  _atom_site_label
  _atom_site_symmetry_multiplicity
  _atom_site_fract_x
  _atom_site_fract_y
  _atom_site_fract_z
  _atom_site_occupancy
  Zn  Zn1       1.0  0.9870560320464321  0.9942255236501436  0.9193520929647008  1.0000
  Zn  Zn2       1.0  0.0129481444566721  0.005778151880782899  0.0806504879405736  1.0000
  Zn  Zn3       1.0  0.22490969586097256  0.325638126055928  0.24651155721220872  1.0000
  Zn  Zn4       1.0  0.7750892011605898  0.67436151528711  0.7534903589424999  1.0000
  Zn  Zn5       1.0  0.2510951247993489  0.3368816978141069  0.40680208436182147  1.0000
  Zn  Zn6       1.0  0.7489038672014843  0.6631186066516078  0.5931987463804234  1.0000
  H   H1        1.0  0.980553820438118  0.7156699231982272  0.8807714604792665  1.0000
  H   H2        1.0  0.019439291163848793  0.28433096100518895  0.1192254179164252  1.0000
  H   H3        1.0  0.9781750316021559  0.5564587266253511  0.8790884904878595  1.0000
  H   H4        1.0  0.02181888887432852  0.44354349990563685  0.1209029487750186  1.0000
  H   H5        1.0  0.02182365429457182  0.5683919121261383  0.12213017961434501  1.0000
  H   H6        1.0  0.9781909487447324  0.43161194138198067  0.8778618519489712  1.0000
  H   H7        1.0  0.023593232042166793  0.7287523241873329  0.12206250776699788  1.0000
  H   H8        1.0  0.976412966183659  0.2712480968856497  0.8779340967124868  1.0000
  H   H9        1.0  0.694165845419498  0.9912809270905995  0.8711207808361081  1.0000
  H   H10       1.0  0.30584182546384403  0.008716212863731697  0.1288786813366443  1.0000
  H   H11       1.0  0.5377818080048301  0.003217495526030201  0.8766840848831734  1.0000
  H   H12       1.0  0.46221996879906874  0.9967723157840279  0.12330900797896051  1.0000
  H   H13       1.0  0.5839147200308261  0.984431362301329  0.1178127042898254  1.0000
  H   H14       1.0  0.41607525673189377  0.015562892147535498  0.8821786738415227  1.0000
  H   H15       1.0  0.7411909852796869  0.9738986611270519  0.11039199932564972  1.0000
  H   H16       1.0  0.2588008815052731  0.026102191969748393  0.8896108591046569  1.0000
  H   H17       1.0  0.9714376531791585  0.8545790914974701  0.7941225991330398  1.0000
  H   H18       1.0  0.028563008278034402  0.14542321228591246  0.2058801269595776  1.0000
  H   H19       1.0  0.9755002867354534  0.8528096366215862  0.6550034568543879  1.0000
  H   H20       1.0  0.024499495996458606  0.1471913354127068  0.3449991425598355  1.0000
  H   H21       1.0  0.024972233163929002  0.13812162560054728  0.6719731047824311  1.0000
  H   H22       1.0  0.9750301439781524  0.861879392779272  0.32802588327934495  1.0000
  H   H23       1.0  0.019565605680341505  0.1284987393186228  0.8109086335876796  1.0000
  H   H24       1.0  0.9804374391284584  0.8715062429873439  0.189091634134968  1.0000
  H   H25       1.0  0.5423201581991606  0.34763087270227533  0.4531353694027517  1.0000
  H   H26       1.0  0.4576821446293097  0.6523773898790138  0.5468676776166745  1.0000
  H   H27       1.0  0.7023562159731113  0.34229956516905696  0.44854023308332097  1.0000
  H   H28       1.0  0.2976434716347427  0.6577046989914022  0.5514641036442853  1.0000
  H   H29       1.0  0.6532754369152514  0.3432656851447858  0.20657077061151338  1.0000
  H   H30       1.0  0.3467259940282261  0.6567451998784007  0.7934333582115443  1.0000
  H   H31       1.0  0.4948477311144686  0.3524976873110432  0.21314756744565952  1.0000
  H   H32       1.0  0.5051526840692162  0.6475151644363065  0.7868548325256697  1.0000
  H   H33       1.0  0.9416875501313199  0.3577012626665449  0.2033148358729946  1.0000
  H   H34       1.0  0.05831523782475052  0.6422977707911882  0.7966902625106228  1.0000
  H   H35       1.0  0.7859693967836705  0.37524972036689513  0.20925276786977073  1.0000
  H   H36       1.0  0.2140337850596481  0.6247519634658047  0.7907491020262185  1.0000
  H   H37       1.0  0.8121617086278616  0.2933749047847272  0.4381987332424657  1.0000
  H   H38       1.0  0.18783467499265066  0.7066253554511446  0.561804595689992  1.0000
  H   H39       1.0  0.9711969298208416  0.2868887982417689  0.4334436491941958  1.0000
  H   H40       1.0  0.02879835732031925  0.7131048529822196  0.5665588456594151  1.0000
  H   H41       1.0  0.16556707852782893  0.5932343007335846  0.2149827203925767  1.0000
  H   H42       1.0  0.8344352458350102  0.40675813767880703  0.785019388766564  1.0000
  H   H43       1.0  0.15857576145257476  0.7532340674768817  0.2162392267589723  1.0000
  H   H44       1.0  0.8414260780722317  0.24675968956138658  0.783759527234146  1.0000
  H   H45       1.0  0.3134160523315046  0.7873646524725472  0.4374897098962407  1.0000
  H   H46       1.0  0.6865806024014631  0.21263364399818124  0.562508597735672  1.0000
  H   H47       1.0  0.31516494718742655  0.6259249667004594  0.4361257032053274  1.0000
  H   H48       1.0  0.6848298228573314  0.37407328575495297  0.5638801830257165  1.0000
  H   H49       1.0  0.2414396999740163  0.05656705520274839  0.4487368593787551  1.0000
  H   H50       1.0  0.75855379464641  0.9434278930611268  0.551263251113383  1.0000
  H   H51       1.0  0.23990503227889096  0.8947914923897287  0.44866484603625173  1.0000
  H   H52       1.0  0.7600908456931421  0.10520613439672391  0.5513328060859237  1.0000
  H   H53       1.0  0.22307827791949109  0.8869810965522826  0.2069143010316878  1.0000
  H   H54       1.0  0.7769226405352188  0.11302320083049718  0.793082942499055  1.0000
  H   H55       1.0  0.21947687103788385  0.046467685854779006  0.2081291820756732  1.0000
  H   H56       1.0  0.7805260117526769  0.9535359659744597  0.7918754827963852  1.0000
  H   H57       1.0  0.2450842640770574  0.46153336033803766  0.1373867929258878  1.0000
  H   H58       1.0  0.7549172692651284  0.5384663210034475  0.8626148513630908  1.0000
  H   H59       1.0  0.2434086169657377  0.47314210234448234  0.9975301460479571  1.0000
  H   H60       1.0  0.7565962274936525  0.5268576266149052  0.0024724107163720858  1.0000
  H   H61       1.0  0.20718856964748514  0.18832455394417022  0.9791242964554598  1.0000
  H   H62       1.0  0.7928110761947024  0.8116757613145322  0.020876048884510074  1.0000
  H   H63       1.0  0.21102295196723733  0.1882460550283439  0.11927760605279052  1.0000
  H   H64       1.0  0.7889771368025151  0.8117529479515682  0.8807227549664844  1.0000
  H   H65       1.0  0.204337399405091  0.20389608583084845  0.5149074371367064  1.0000
  H   H66       1.0  0.7956585063624715  0.7961054919730516  0.48509309321085686  1.0000
  H   H67       1.0  0.18895106340830387  0.19685285408741748  0.6524962935216861  1.0000
  H   H68       1.0  0.8110420761339654  0.8031480258846102  0.3475028111984813  1.0000
  H   H69       1.0  0.27559969929808403  0.4804205008895933  0.6722244112214213  1.0000
  H   H70       1.0  0.724398174978596  0.5195811082354567  0.3277752195004382  1.0000
  H   H71       1.0  0.28789737184815317  0.4750015426917358  0.5343887423625517  1.0000
  H   H72       1.0  0.7121018381963182  0.5249961285390796  0.4656114919783363  1.0000
  C   C1        1.0  0.00300809079686099  0.7331133783400928  0.0016871765171941966  1.0000
  C   C2        1.0  0.9969843250532906  0.2668875014174077  0.9983068477940478  1.0000
  C   C3        1.0  0.9907184011550854  0.6833444418163449  0.9336572130165592  1.0000
  C   C4        1.0  0.009272590933086628  0.31665971165487866  0.06633784966924593  1.0000
  C   C5        1.0  0.9895022422320707  0.5928010316876352  0.933297063561966  1.0000
  C   C6        1.0  0.010497006911059316  0.40719731112861973  0.0666976327174922  1.0000
  C   C7        1.0  0.0008572644511133209  0.5482776559094446  0.00046247497405010256  1.0000
  C   C8        1.0  0.9991521539411393  0.4517267817822911  0.9995284583271412  1.0000
  C   C9        1.0  0.013303798741382909  0.5994747899180836  0.06850200118776681  1.0000
  C   C10       1.0  0.9867071942727392  0.4005270287198215  0.9314912609753563  1.0000
  C   C11       1.0  0.014433297681861726  0.690036165700853  0.06911175713869971  1.0000
  C   C12       1.0  0.9855697053612645  0.30996486770335  0.9308845191963259  1.0000
  C   C13       1.0  0.0015483250234851408  0.8301519536391382  0.001959489241485816  1.0000
  C   C14       1.0  0.9984486425876041  0.16984832796820368  0.9980377884775037  1.0000
  C   C15       1.0  0.7282216837690428  0.9823716482671472  0.9904477151046152  1.0000
  C   C16       1.0  0.2717776280949948  0.017630640277324996  0.009552642305827412  1.0000
  C   C17       1.0  0.6694873195228936  0.9899992404433461  0.9250787990687854  1.0000
  C   C18       1.0  0.33051584849505383  0.009998490256208498  0.0749213057640574  1.0000
  C   C19       1.0  0.5808834837116451  0.9967758089150106  0.9288835264942961  1.0000
  C   C20       1.0  0.4191198186738064  0.003215345994981101  0.0711086510628434  1.0000
  C   C21       1.0  0.5470747509393165  0.9957295962083136  0.9979458163134822  1.0000
  C   C22       1.0  0.4529213984347322  0.004258156315316297  0.002045510706324191  1.0000
  C   C23       1.0  0.6067194399214202  0.9863072254778942  0.06305317809177072  1.0000
  C   C24       1.0  0.39327353508037527  0.013685091452259695  0.9369401424278508  1.0000
  C   C25       1.0  0.6954849098753255  0.9800652441218318  0.05956171723021699  1.0000
  C   C26       1.0  0.3045113368554482  0.0199343593384569  0.9404393576279944  1.0000
  C   C27       1.0  0.8248753294317055  0.9796326456957514  0.9875324090695584  1.0000
  C   C28       1.0  0.17513111031522038  0.0203723715339379  0.012475450101881296  1.0000
  C   C29       1.0  0.9838148719463293  0.915764840365256  0.7649688934339026  1.0000
  C   C30       1.0  0.016184017945370503  0.0842387572844743  0.2350331180406044  1.0000
  C   C31       1.0  0.9864237712882659  0.9148981692117885  0.6880577468739375  1.0000
  C   C32       1.0  0.013574240022933302  0.08510014144000168  0.3119434860212635  1.0000
  C   C33       1.0  0.0008519764057766403  0.995571067187896  0.6532704174198187  1.0000
  C   C34       1.0  0.9991451211099758  0.004429872252877897  0.3467285577923036  1.0000
  C   C35       1.0  0.013770568858028303  0.07443113897993918  0.6973278620947241  1.0000
  C   C36       1.0  0.9862288449703557  0.9255718116293536  0.3026719664843753  1.0000
  C   C37       1.0  0.010324728419021802  0.06961253280420007  0.7737492749806592  1.0000
  C   C38       1.0  0.9896745835898031  0.9303858004914359  0.2262504305288786  1.0000
  C   C39       1.0  0.0008075774742906146  0.9977263691487861  0.5716709501468102  1.0000
  C   C40       1.0  0.9991941807518289  0.002274633148800802  0.4283313062228373  1.0000
  C   C41       1.0  0.5085955184139337  0.35011520328408346  0.3333716679526475  1.0000
  C   C42       1.0  0.4914019269053328  0.6498877160040665  0.6666290602521485  1.0000
  C   C43       1.0  0.5678967933152919  0.34719692764835497  0.3995050257648032  1.0000
  C   C44       1.0  0.4321047956179385  0.6528106557280395  0.6005023749749512  1.0000
  C   C45       1.0  0.6573648505484186  0.3433672147482838  0.3962832053882863  1.0000
  C   C46       1.0  0.342636274646793  0.6566377288315974  0.6037218580279031  1.0000
  C   C47       1.0  0.6908288511903464  0.34127015173235264  0.3271570389774467  1.0000
  C   C48       1.0  0.30917223907948715  0.6587347971367733  0.672845241533146  1.0000
  C   C49       1.0  0.6305440773801648  0.3453311671486999  0.26127213982141473  1.0000
  C   C50       1.0  0.36945407053119783  0.6546757107763596  0.7387326509498635  1.0000
  C   C51       1.0  0.5412961620252191  0.35012396503948656  0.26434365416817235  1.0000
  C   C52       1.0  0.4587081583526924  0.6498803662091743  0.7356617373924692  1.0000
  C   C53       1.0  0.411046693161623  0.34948502321904573  0.3356204485938363  1.0000
  C   C54       1.0  0.588955570857749  0.6505146572791173  0.6643868326851816  1.0000
  C   C55       1.0  0.966653290106535  0.3214818338749125  0.31799045177065466  1.0000
  C   C56       1.0  0.033346492770164125  0.6785151829105374  0.682011495742664  1.0000
  C   C57       1.0  0.912939275833736  0.3447378727214384  0.2548724415817674  1.0000
  C   C58       1.0  0.08706152265798292  0.6552611325886912  0.7451318866841916  1.0000
  C   C59       1.0  0.8245826600792512  0.35302836312399666  0.2583052411151244  1.0000
  C   C60       1.0  0.1754194110249969  0.6469746243102036  0.7416959853416074  1.0000
  C   C61       1.0  0.7855367318016632  0.33471278547438726  0.3239956977744427  1.0000
  C   C62       1.0  0.21446373955220113  0.6652921473125062  0.6760098510440145  1.0000
  C   C63       1.0  0.8399286154251228  0.3095331989819313  0.3865883535059709  1.0000
  C   C64       1.0  0.16007355065839587  0.6904704515749386  0.6134117875382898  1.0000
  C   C65       1.0  0.929244637026713  0.3045566745593575  0.38419783401110413  1.0000
  C   C66       1.0  0.07075187664324291  0.6954402882611034  0.6158065405135744  1.0000
  C   C67       1.0  0.06333037535370069  0.31767008040101524  0.3160879634494265  1.0000
  C   C68       1.0  0.9366687466965758  0.6823269266492814  0.6839139128850391  1.0000
  C   C69       1.0  0.23971635824639753  0.5994843845641212  0.3260889168427354  1.0000
  C   C70       1.0  0.7602842152166004  0.40051725503874985  0.6739154512434666  1.0000
  C   C71       1.0  0.1968733227038584  0.6363187412858977  0.2638368240312658  1.0000
  C   C72       1.0  0.8031281437441393  0.36367631745269335  0.7361674800937409  1.0000
  C   C73       1.0  0.1937104792911271  0.7262119448516626  0.2647288524644082  1.0000
  C   C74       1.0  0.8062832515163691  0.27378104493630673  0.7352634538215881  1.0000
  C   C75       1.0  0.23448465536858987  0.7825813751773154  0.3273937863965628  1.0000
  C   C76       1.0  0.7655156441701579  0.21742290612322526  0.6726067254420514  1.0000
  C   C77       1.0  0.27857303695670776  0.7450188668611304  0.389156559663796  1.0000
  C   C78       1.0  0.7214277615350114  0.2549801384489925  0.6108477686021558  1.0000
  C   C79       1.0  0.2806167453592963  0.6549729822267096  0.38862761009303887  1.0000
  C   C80       1.0  0.7193773961174088  0.34502197788800965  0.6113714584157108  1.0000
  C   C81       1.0  0.24143411018582842  0.5023277785531518  0.3263972903564323  1.0000
  C   C82       1.0  0.7585685967611226  0.4976705896662139  0.6736100066018906  1.0000
  C   C83       1.0  0.2315332775709464  0.06214099697161399  0.32865302068890406  1.0000
  C   C84       1.0  0.7684676899240871  0.9378593377573946  0.6713474670087649  1.0000
  C   C85       1.0  0.237096625746922  0.0183495552097028  0.39612133498332003  1.0000
  C   C86       1.0  0.7629000708964997  0.9816487349139462  0.6038803121353028  1.0000
  C   C87       1.0  0.23707725612092642  0.9278731499732302  0.3956857178248043  1.0000
  C   C88       1.0  0.7629187658707082  0.07212117728212059  0.6043140930518263  1.0000
  C   C89       1.0  0.23235273724742464  0.8782543552986863  0.3278587144866165  1.0000
  C   C90       1.0  0.7676439246153991  0.12173998486535707  0.6721394978255049  1.0000
  C   C91       1.0  0.22617968073210898  0.9229207143194741  0.2605179540665858  1.0000
  C   C92       1.0  0.7738169740008588  0.07707758215125438  0.7394803535653196  1.0000
  C   C93       1.0  0.22549463570041442  0.013240394505665198  0.26085524398445875  1.0000
  C   C94       1.0  0.774505691923423  0.9867599273146509  0.7391468422777194  1.0000
  C   C95       1.0  0.23129120864287964  0.15953732820884167  0.3286411838263419  1.0000
  C   C96       1.0  0.7687114073532869  0.8404650090113817  0.6713595294783374  1.0000
  C   C97       1.0  0.23791600969932603  0.40326274025550635  0.0997550600332104  1.0000
  C   C98       1.0  0.7620861704991312  0.5967369529368296  0.9002455422723799  1.0000
  C   C99       1.0  0.23715065229977478  0.4092755453208524  0.0228738743432189  1.0000
  C   C100      1.0  0.7628539463204548  0.5907228658559801  0.9771264005970864  1.0000
  C   C101      1.0  0.22521745409775215  0.3310747383463735  0.9780420593886561  1.0000
  C   C102      1.0  0.7747867225501325  0.6689249819357102  0.0219598696157135  1.0000
  C   C103      1.0  0.2171858033754432  0.2500426609424764  0.012670513246732205  1.0000
  C   C104      1.0  0.7828165808964942  0.7499544011306583  0.9873283794952528  1.0000
  C   C105      1.0  0.21885508579523363  0.24978648680558982  0.09014096122431432  1.0000
  C   C106      1.0  0.7811449149803167  0.7502118519938107  0.9098610417885453  1.0000
  C   C107      1.0  0.2186658847166569  0.33405179284458336  0.8958946047689764  1.0000
  C   C108      1.0  0.7813371743518616  0.6659452768480065  0.10410547231408879  1.0000
  C   C109      1.0  0.22109641146806783  0.3377660488296002  0.7530542127712679  1.0000
  C   C110      1.0  0.7789085140004417  0.662234345368148  0.24694614541835588  1.0000
  C   C111      1.0  0.21988761266142376  0.26280238193745475  0.5525839739572759  1.0000
  C   C112      1.0  0.7801063107716429  0.7371952114121638  0.4474156909528304  1.0000
  C   C113      1.0  0.21135651460591026  0.2595175171506554  0.6283171712543663  1.0000
  C   C114      1.0  0.7886401398374902  0.7404886898177523  0.371682440179363  1.0000
  C   C115      1.0  0.23109566447509172  0.33849713267700565  0.6728930415276153  1.0000
  C   C116      1.0  0.7689026668440986  0.6614992068047199  0.32710706613487867  1.0000
  C   C117      1.0  0.25966047727718694  0.4178356124486057  0.6394656207831204  1.0000
  C   C118      1.0  0.7403379418914112  0.5821653464624674  0.3605334967866938  1.0000
  C   C119      1.0  0.2667962973490603  0.4151959865985049  0.5632714360719291  1.0000
  C   C120      1.0  0.7332022447391254  0.5848056312038494  0.436728822409897  1.0000
  N   N1        1.0  0.9948102598469647  0.9918256030362257  0.8066941980290495  1.0000
  N   N2        1.0  0.0051903595549874  0.008180662343079301  0.1933058404777626  1.0000
  N   N3        1.0  0.9744698049554047  0.9205496840161017  0.530372933565765  1.0000
  N   N4        1.0  0.025534262743050803  0.07944937525901712  0.469628967688827  1.0000
  N   N5        1.0  0.026439476298911305  0.0770099793721286  0.5428093361539652  1.0000
  N   N6        1.0  0.9735639166029698  0.9229890722835278  0.4571913807595465  1.0000
  N   N7        1.0  0.22802450871732563  0.3250600120060554  0.1326210920639213  1.0000
  N   N8        1.0  0.7719754850731563  0.6749383278511872  0.8673803543678175  1.0000
  N   N9        1.0  0.2334161152386187  0.41408701844303397  0.8656535763792732  1.0000
  N   N10       1.0  0.766587822555181  0.5859113829986524  0.13434662738219322  1.0000
  N   N11       1.0  0.23472164163985812  0.4160518803088065  0.7927095763349996  1.0000
  N   N12       1.0  0.7652822011746712  0.5839458580102104  0.20729171283892364  1.0000
  N   N13       1.0  0.19208124473010463  0.25914200766322887  0.781547979301692  1.0000
  N   N14       1.0  0.8079231359912669  0.7408550814996601  0.2184522401390723  1.0000
  N   N15       1.0  0.1908385260242582  0.25710551711897267  0.8545064319596279  1.0000
  N   N16       1.0  0.8091658546971203  0.7428915720439164  0.14549378748113642  1.0000
  N   N17       1.0  0.24727210816956097  0.3392203710650178  0.5207365430443716  1.0000
  N   N18       1.0  0.7527257661071189  0.6607812380600322  0.47926308767749487  1.0000
  O   O1        1.0  0.9871859377569905  0.8633982874935808  0.9382189689149527  1.0000
  O   O2        1.0  0.012822372707987008  0.13660677586712214  0.06178019849510721  1.0000
  O   O3        1.0  0.013861947251150813  0.8718477664117186  0.06565788233162809  1.0000
  O   O4        1.0  0.9861324189647009  0.1281524699079455  0.9343424501586951  1.0000
  O   O5        1.0  0.8502733933546409  0.975834653767272  0.9229619836275588  1.0000
  O   O6        1.0  0.1497293416773999  0.0241597549718691  0.0770468877543351  1.0000
  O   O7        1.0  0.8749419509043507  0.9813699753234031  0.05031726419758092  1.0000
  O   O8        1.0  0.1250583759955646  0.0186501227411071  0.9496880815691428  1.0000
  O   O9        1.0  0.36256992547063754  0.35545898843140117  0.2731863601578439  1.0000
  O   O10       1.0  0.6374288346611863  0.6445399961360536  0.7268133019226184  1.0000
  O   O11       1.0  0.3837607919915556  0.3413959096220225  0.39935988112455334  1.0000
  O   O12       1.0  0.616238418052916  0.6586017616087927  0.6006403532163347  1.0000
  O   O13       1.0  0.08788451097564122  0.30468322940362913  0.2522415576773867  1.0000
  O   O14       1.0  0.9121138554137148  0.6953091495400158  0.7477606809897921  1.0000
  O   O15       1.0  0.1138286187719615  0.32790104826538874  0.379121511027563  1.0000
  O   O16       1.0  0.8861689354967268  0.6721025320297327  0.6208792449270107  1.0000
  O   O17       1.0  0.2187585521454238  0.45859849096511596  0.26353264140148264  1.0000
  O   O18       1.0  0.7812443309347047  0.5413972503664368  0.7364707196687518  1.0000
  O   O19       1.0  0.264598821965123  0.47083954472095246  0.38945540817905316  1.0000
  O   O20       1.0  0.7354014246495949  0.5291601118609959  0.6105488766578304  1.0000
  O   O21       1.0  0.22878243089029132  0.19493855549736588  0.2651552233863583  1.0000
  O   O22       1.0  0.7712193622612061  0.8050624415109835  0.7348498158888859  1.0000
  O   O23       1.0  0.23309182344809906  0.19971080665545315  0.3917381851530095  1.0000
  O   O24       1.0  0.7669080474227954  0.8002868743105154  0.6082621203667173  1.0000
