data_image0
_chemical_formula_structural       Cu24H48C78N48
_chemical_formula_sum              "Cu24 H48 C78 N48"
_cell_length_a       19.840638358716962
_cell_length_b       19.858987691655948
_cell_length_c       19.851493529184424
_cell_angle_alpha    109.30169335066081
_cell_angle_beta     109.46889626427432
_cell_angle_gamma    109.61741875783747

_space_group_name_H-M_alt    "P 1"
_space_group_IT_number       1

loop_
  _space_group_symop_operation_xyz
  'x, y, z'

loop_
  _atom_site_type_symbol
  _atom_site_label
  _atom_site_symmetry_multiplicity
  _atom_site_fract_x
  _atom_site_fract_y
  _atom_site_fract_z
  _atom_site_occupancy
  Cu  Cu1       1.0  0.6390973741113017  0.53017152915416  0.5655208424732905  1.0000
  Cu  Cu2       1.0  0.56613859778399  0.6417487666239199  0.5278112827626912  1.0000
  Cu  Cu3       1.0  0.5301957893050613  0.5688461858016894  0.6413405935259603  1.0000
  Cu  Cu4       1.0  0.8603966555457135  0.9274805064031783  0.3911141514886793  1.0000
  Cu  Cu5       1.0  0.9343249454818265  0.9620956061335096  0.5752972189908547  1.0000
  Cu  Cu6       1.0  0.9704518476864407  0.11176046918736662  0.539091650400131  1.0000
  Cu  Cu7       1.0  0.5357202448943853  0.9691829462974014  0.10930157373124419  1.0000
  Cu  Cu8       1.0  0.38609890716972484  0.8585204886019541  0.9246936195377129  1.0000
  Cu  Cu9       1.0  0.5725303648397998  0.9317964011181631  0.9617925478403393  1.0000
  Cu  Cu10      1.0  0.9639241870943495  0.5725859581190776  0.9336580179037384  1.0000
  Cu  Cu11      1.0  0.11358553994850247  0.5378045409900525  0.9725729982325999  1.0000
  Cu  Cu12      1.0  0.9275153333171601  0.38839575996603065  0.8588684267546042  1.0000
  Cu  Cu13      1.0  0.1393843799434862  0.06662691906652901  0.030716079436118073  1.0000
  Cu  Cu14      1.0  0.0658238372701305  0.028008713204869203  0.14194872514170237  1.0000
  Cu  Cu15      1.0  0.02907370672186726  0.1407294270237928  0.06841559647951814  1.0000
  Cu  Cu16      1.0  0.36005085101845685  0.8908883857919323  0.4274369499725239  1.0000
  Cu  Cu17      1.0  0.4339032162537606  0.07535589246704431  0.4618932211111328  1.0000
  Cu  Cu18      1.0  0.4711865465460932  0.039058785184998605  0.6116375096753541  1.0000
  Cu  Cu19      1.0  0.03651169228327698  0.6091541507275481  0.4689848826291224  1.0000
  Cu  Cu20      1.0  0.8866307250754559  0.42471417469849376  0.35846038728652724  1.0000
  Cu  Cu21      1.0  0.07294990364177079  0.46120784178278046  0.43232563027450505  1.0000
  Cu  Cu22      1.0  0.4640670083189563  0.4331612898081617  0.0721955914690113  1.0000
  Cu  Cu23      1.0  0.6140112740907427  0.4719762220346056  0.03742668144491284  1.0000
  Cu  Cu24      1.0  0.4275287601556173  0.35897598165882283  0.887878917875291  1.0000
  H   H1        1.0  0.7403223969551079  0.5333298951359141  0.4713478359069967  1.0000
  H   H2        1.0  0.6392242182585335  0.6830377456735024  0.4166237540947649  1.0000
  H   H3        1.0  0.5370429895108586  0.47548849000827437  0.7449779255709642  1.0000
  H   H4        1.0  0.6812787923971941  0.4192108058427382  0.6365704045279016  1.0000
  H   H5        1.0  0.4715857321184631  0.7429301711729652  0.5326012732767821  1.0000
  H   H6        1.0  0.41972334368176  0.6407995984781042  0.6829467689281827  1.0000
  H   H7        1.0  0.758737622443853  0.7323604081449704  0.2924971331051011  1.0000
  H   H8        1.0  0.8622224146906703  0.777886302239722  0.5429859103779577  1.0000
  H   H9        1.0  0.9645867764447402  0.20909199952649973  0.4393902233455549  1.0000
  H   H10       1.0  0.8176483786181095  0.9567726271248491  0.2385680326158877  1.0000
  H   H11       1.0  0.02875988895242902  0.06063779858890682  0.771112569750599  1.0000
  H   H12       1.0  0.08101128099715285  0.2632449912162117  0.7215275895137054  1.0000
  H   H13       1.0  0.4384662624840488  0.9652964660981455  0.20723452909676612  1.0000
  H   H14       1.0  0.23382600826656855  0.8177681932395375  0.9566299911338944  1.0000
  H   H15       1.0  0.7697179478480153  0.025676270830835814  0.06169686017923947  1.0000
  H   H16       1.0  0.7178669962660464  0.07986572772728102  0.2624137357055432  1.0000
  H   H17       1.0  0.2895938238470991  0.7575738465240537  0.7290125447625755  1.0000
  H   H18       1.0  0.5422809066377001  0.8604127367413386  0.7795254548207281  1.0000
  H   H19       1.0  0.060500698031106165  0.7675706595058788  0.027239201765695588  1.0000
  H   H20       1.0  0.26560570084306806  0.7220472385076422  0.08407137105249525  1.0000
  H   H21       1.0  0.7304904236642571  0.29120205766567153  0.7547125394785111  1.0000
  H   H22       1.0  0.7819397198253172  0.543479715812545  0.861615548780577  1.0000
  H   H23       1.0  0.21060655685348456  0.4389176676336818  0.968273350784919  1.0000
  H   H24       1.0  0.9581373055639661  0.23669297641671969  0.8177702029458089  1.0000
  H   H25       1.0  0.24084293247901212  0.9725986403606657  0.0339871894986104  1.0000
  H   H26       1.0  0.1377901078948653  0.9162744451187947  0.182152365603251  1.0000
  H   H27       1.0  0.034340776140993554  0.24321226186329176  0.9736065198903743  1.0000
  H   H28       1.0  0.18214323486459705  0.13862273935121297  0.9204069342177874  1.0000
  H   H29       1.0  0.9714929796022531  0.032675665448124405  0.24368729232347866  1.0000
  H   H30       1.0  0.9182706985572935  0.18151041850845226  0.14029452863868394  1.0000
  H   H31       1.0  0.2580900196549722  0.7924667328110931  0.2320741543571573  1.0000
  H   H32       1.0  0.36106888885035454  0.043280472872773104  0.27808304671951584  1.0000
  H   H33       1.0  0.4662159541763273  0.9395086716365171  0.7092845918840849  1.0000
  H   H34       1.0  0.31763546890405797  0.7382390753765692  0.45726478149403244  1.0000
  H   H35       1.0  0.5288012857882407  0.27126107965386137  0.5603390251277105  1.0000
  H   H36       1.0  0.5822570411759147  0.22170395517718336  0.7628325856766408  1.0000
  H   H37       1.0  0.939465101012104  0.7074990548008203  0.4648829359153552  1.0000
  H   H38       1.0  0.7346368819416824  0.4567004655015055  0.3175477890386133  1.0000
  H   H39       1.0  0.27036479502394445  0.5612116523549775  0.5273869454909176  1.0000
  H   H40       1.0  0.21881058018004762  0.7619908006265919  0.5796742873849112  1.0000
  H   H41       1.0  0.7893882883352461  0.22881051177373735  0.2577369221753329  1.0000
  H   H42       1.0  0.04164886947937423  0.2786132410614429  0.3605469262953349  1.0000
  H   H43       1.0  0.5611408015982207  0.5273483837249558  0.26751665070969477  1.0000
  H   H44       1.0  0.7660173134993543  0.5838641698404816  0.2212626102888464  1.0000
  H   H45       1.0  0.23009833435257582  0.2562985916239669  0.7907770620832152  1.0000
  H   H46       1.0  0.28175323200435554  0.3608728656220706  0.04315328853243024  1.0000
  H   H47       1.0  0.7110353705523311  0.46729085809374754  0.9384591203420882  1.0000
  H   H48       1.0  0.4587405550357105  0.31853760345499904  0.7364205866889363  1.0000
  C   C1        1.0  0.7079846855667286  0.5672507718516756  0.46453150186034275  1.0000
  C   C2        1.0  0.7063324008266677  0.6114481859003222  0.4225286944454182  1.0000
  C   C3        1.0  0.6561896714548398  0.6435619076667295  0.4365615307685217  1.0000
  C   C4        1.0  0.5694668782779361  0.46839872532173393  0.7109945557785551  1.0000
  C   C5        1.0  0.6128083806042072  0.4256957306541695  0.7071154711121252  1.0000
  C   C6        1.0  0.6430484999683942  0.43958958884334015  0.6556030712664338  1.0000
  C   C7        1.0  0.46569854834218927  0.7105918818429303  0.5667599076878531  1.0000
  C   C8        1.0  0.42420851253029934  0.7083054371185116  0.6114346202542721  1.0000
  C   C9        1.0  0.4392035933041997  0.658327261242448  0.643430776828879  1.0000
  C   C10       1.0  0.791506088531172  0.7576230534940225  0.35868183738768505  1.0000
  C   C11       1.0  0.7938949340808676  0.7171522725210553  0.4044022036922355  1.0000
  C   C12       1.0  0.8445615688972623  0.7810684284474619  0.486650333722892  1.0000
  C   C13       1.0  0.9314025987731116  0.1427319438718016  0.3997471738601491  1.0000
  C   C14       1.0  0.8873491089025406  0.09564610581905704  0.3137193965403497  1.0000
  C   C15       1.0  0.8564638424422669  0.013894699147776605  0.29720235065213524  1.0000
  C   C16       1.0  0.03479606329740651  0.1008635338787514  0.7448665279667067  1.0000
  C   C17       1.0  0.07637840912071432  0.18694782591934003  0.7842296649745464  1.0000
  C   C18       1.0  0.06146696143598263  0.204215760085333  0.7194259434671578  1.0000
  C   C19       1.0  0.39769926438605563  0.9318969429084377  0.14104194990718363  1.0000
  C   C20       1.0  0.311481103265244  0.8883580556326224  0.09523307120957714  1.0000
  C   C21       1.0  0.29329864647309745  0.8566795085797028  0.013011386731683729  1.0000
  C   C22       1.0  0.74288171325869  0.032237061651407814  0.10129178555371252  1.0000
  C   C23       1.0  0.781832446300605  0.0744750484541754  0.18732282229532868  1.0000
  C   C24       1.0  0.7164604082847674  0.060013380275329126  0.20379230340655144  1.0000
  C   C25       1.0  0.35612516449004533  0.7900463239207485  0.755474663406879  1.0000
  C   C26       1.0  0.4031760694698222  0.7925504612926562  0.7163766058762917  1.0000
  C   C27       1.0  0.485160662472886  0.8426621093082006  0.7813676297374029  1.0000
  C   C28       1.0  0.10144789744623516  0.7423056796277553  0.034568803462953324  1.0000
  C   C29       1.0  0.1876693447338057  0.7827742791515392  0.07706187678029858  1.0000
  C   C30       1.0  0.20605816622031634  0.7188623911130138  0.0635884598834906  1.0000
  C   C31       1.0  0.7571847771092521  0.3575414987826378  0.7882886931175007  1.0000
  C   C32       1.0  0.7182068356950211  0.40461279530435246  0.7915241522716769  1.0000
  C   C33       1.0  0.7834473304386903  0.48634492677592805  0.8429443246447406  1.0000
  C   C34       1.0  0.14408231141728592  0.39880559463080817  0.9340616972257719  1.0000
  C   C35       1.0  0.09721805765751416  0.31273110082763383  0.8894083394313695  1.0000
  C   C36       1.0  0.015158723597160523  0.2956441948874941  0.8573075103724577  1.0000
  C   C37       1.0  0.20820164457686033  0.9655275616327119  0.06768037193824476  1.0000
  C   C38       1.0  0.20585663538882693  0.9230182568005818  0.11140337487879043  1.0000
  C   C39       1.0  0.1553765486206019  0.9367419118415159  0.14318721411525814  1.0000
  C   C40       1.0  0.06779279825908453  0.21027446940725986  0.9673847266217308  1.0000
  C   C41       1.0  0.11211257066629092  0.20743934465285468  0.9255069678451162  1.0000
  C   C42       1.0  0.14315660684655285  0.15678168849157717  0.9401467035506172  1.0000
  C   C43       1.0  0.9652528490944476  0.06648192921630172  0.21102002744152773  1.0000
  C   C44       1.0  0.9233336553208173  0.11064009036912381  0.2083436948230142  1.0000
  C   C45       1.0  0.938107067688158  0.14238359669904105  0.15808511957884266  1.0000
  C   C46       1.0  0.2907267927636924  0.8587146982422101  0.25746511970651653  1.0000
  C   C47       1.0  0.29298344437622614  0.9046218033871728  0.21712764854407857  1.0000
  C   C48       1.0  0.34350970654006124  0.9868411316068234  0.2811351826680306  1.0000
  C   C49       1.0  0.4325667826653118  0.8997269420608947  0.6429444435521887  1.0000
  C   C50       1.0  0.38819400185163033  0.81360276489513  0.596037461740849  1.0000
  C   C51       1.0  0.3567992583179916  0.7969920658772909  0.5142563465331733  1.0000
  C   C52       1.0  0.5350041138912475  0.24496725756619506  0.6005118501883756  1.0000
  C   C53       1.0  0.576870657414311  0.2843556455945802  0.6865310741077691  1.0000
  C   C54       1.0  0.5622831698920552  0.21954162208521674  0.7038060250952185  1.0000
  C   C55       1.0  0.8985916591202282  0.6412625833829397  0.43147395418493056  1.0000
  C   C56       1.0  0.8123046478170365  0.5953582951890654  0.3880044308650594  1.0000
  C   C57       1.0  0.7941392701609831  0.5131411373023483  0.3563919277683424  1.0000
  C   C58       1.0  0.24358718894334433  0.6008215920173683  0.5333713690681988  1.0000
  C   C59       1.0  0.2826000047219994  0.6869353532779531  0.5750959936108516  1.0000
  C   C60       1.0  0.21724256938007622  0.7033163853933575  0.5601389796161911  1.0000
  C   C61       1.0  0.8558948332801679  0.25517492506988765  0.29016827982587057  1.0000
  C   C62       1.0  0.9026301385219357  0.2158548078190848  0.2925960276298269  1.0000
  C   C63       1.0  0.984723557381898  0.28072027720665477  0.3427785658567403  1.0000
  C   C64       1.0  0.6020126767874104  0.5344352500859629  0.2420620528283308  1.0000
  C   C65       1.0  0.6882761421130541  0.5769456697493001  0.282363442405817  1.0000
  C   C66       1.0  0.7065059358369153  0.5633197144585863  0.21829066278893813  1.0000
  C   C67       1.0  0.2568844096454869  0.289238006771008  0.8571463688518149  1.0000
  C   C68       1.0  0.21789405442775944  0.29205468866892675  0.9043504942014025  1.0000
  C   C69       1.0  0.28327240578635593  0.3427335646089917  0.9859991737398132  1.0000
  C   C70       1.0  0.6445335287349041  0.4335150732582493  0.8984132385057676  1.0000
  C   C71       1.0  0.5977191854208003  0.3894605921526805  0.8123814689585203  1.0000
  C   C72       1.0  0.5156632238703126  0.3576378477862506  0.7953717201071981  1.0000
  C   C73       1.0  0.626432924343959  0.37609232307168844  0.749331124065108  1.0000
  C   C74       1.0  0.8737031330956669  0.12411290503408884  0.25047106664384  1.0000
  C   C75       1.0  0.37450909918468517  0.750356218112728  0.6247052135231569  1.0000
  C   C76       1.0  0.1259790253178394  0.24977982079088434  0.8759512953853701  1.0000
  C   C77       1.0  0.7501990027301632  0.6252035883597814  0.3743023958268168  1.0000
  C   C78       1.0  0.24946983370157508  0.874722888846819  0.12523477393197177  1.0000
  N   N1        1.0  0.6296137375388754  0.6197106917199522  0.48353545122943586  1.0000
  N   N2        1.0  0.6617649828929189  0.5723767448776446  0.5009502592699845  1.0000
  N   N3        1.0  0.6188638760366274  0.48696447326998554  0.6302804059223844  1.0000
  N   N4        1.0  0.5732237768982814  0.5049601703343428  0.6646218892849801  1.0000
  N   N5        1.0  0.486229959453489  0.6324734809903275  0.6191736474115216  1.0000
  N   N6        1.0  0.5027551520052429  0.6648968759010077  0.5715774596463561  1.0000
  N   N7        1.0  0.8707370364423996  0.8546441533760076  0.4895356593696433  1.0000
  N   N8        1.0  0.8378209166709711  0.840129514479401  0.41016985478011486  1.0000
  N   N9        1.0  0.8808704895615732  0.012618986802159806  0.3686643027599955  1.0000
  N   N10       1.0  0.9273301537812914  0.09245760136145986  0.4323786288384071  1.0000
  N   N11       1.0  0.01442445919441581  0.13314154427857972  0.6464883800130748  1.0000
  N   N12       1.0  0.9977804592481762  0.0689021285157594  0.6621635945785868  1.0000
  N   N13       1.0  0.36413340044888554  0.8802140651338919  0.010264332809470034  1.0000
  N   N14       1.0  0.4289298901123147  0.9268434718125037  0.0896647122755425  1.0000
  N   N15       1.0  0.6436883306898692  0.012744366597992501  0.13232277615055202  1.0000
  N   N16       1.0  0.6599167789335569  0.9953920119915628  0.06860977875086158  1.0000
  N   N17       1.0  0.4866851954188577  0.8684004295818685  0.8541906145593003  1.0000
  N   N18       1.0  0.4066071763103737  0.8357543265941987  0.8381986484147389  1.0000
  N   N19       1.0  0.13534190223760595  0.645284758875782  0.016450421756296362  1.0000
  N   N20       1.0  0.07044075852263638  0.6597972620669738  0.9984024175489664  1.0000
  N   N21       1.0  0.8562170931259417  0.4876030966828894  0.8687653126232391  1.0000
  N   N22       1.0  0.8401087995416534  0.4077813117652058  0.8349145075720584  1.0000
  N   N23       1.0  0.013450573931336973  0.366812943296715  0.8815019882328271  1.0000
  N   N24       1.0  0.09345349305535684  0.4309298111243224  0.9291425028197648  1.0000
  N   N25       1.0  0.12930917860985874  0.9840522642328583  0.11967877361919928  1.0000
  N   N26       1.0  0.16206477656237436  0.001988706038631001  0.07282852583568909  1.0000
  N   N27       1.0  0.11869400156932394  0.13107860699290094  0.9872787055349264  1.0000
  N   N28       1.0  0.07193674362294901  0.16425380655044822  0.004307736268614802  1.0000
  N   N29       1.0  0.9853764456487684  0.11846530991003591  0.1323769235476392  1.0000
  N   N30       1.0  0.002302443872466104  0.07134642919436371  0.16522265743149936  1.0000
  N   N31       1.0  0.36974977406667625  0.9895533208565438  0.35458620361895743  1.0000
  N   N32       1.0  0.3370080075591846  0.9100810237553604  0.33998845818856444  1.0000
  N   N33       1.0  0.38113699487975344  0.8684156725132298  0.5127555469241684  1.0000
  N   N34       1.0  0.42814465682017305  0.9322726105721347  0.5925712377758003  1.0000
  N   N35       1.0  0.5150634947409785  0.14653957601521483  0.6327903075495341  1.0000
  N   N36       1.0  0.49804607767051573  0.16222742027339626  0.5685877706973272  1.0000
  N   N37       1.0  0.8649276649324096  0.5104371645952669  0.37984807491178435  1.0000
  N   N38       1.0  0.9297970121008279  0.5899164656353408  0.4264231840100551  1.0000
  N   N39       1.0  0.1444034185060091  0.6317886239501295  0.5129594601784362  1.0000
  N   N40       1.0  0.16059429128004882  0.5680673936060219  0.4962270009074601  1.0000
  N   N41       1.0  0.986622370509238  0.3536914015082999  0.3685860098100945  1.0000
  N   N42       1.0  0.9066611136342785  0.3379305969453982  0.335933510525429  1.0000
  N   N43       1.0  0.6357413065520133  0.5160293338053278  0.14485939960091082  1.0000
  N   N44       1.0  0.5708307164471408  0.49803375717415604  0.15952586666935528  1.0000
  N   N45       1.0  0.356096800490164  0.3684703578471372  0.9871563269732347  1.0000
  N   N46       1.0  0.33987064122649  0.33529787843139053  0.9072314881812246  1.0000
  N   N47       1.0  0.5138365505363538  0.3814274238652615  0.8665183718044246  1.0000
  N   N48       1.0  0.5938262626451306  0.42853419353681244  0.9305628561686135  1.0000
