data_image0
_chemical_formula_structural       CdH30C34N6Cl2O4
_chemical_formula_sum              "Cd1 H30 C34 N6 Cl2 O4"
_cell_length_a       4.968049857827693
_cell_length_b       12.048823238559315
_cell_length_c       15.693497761540007
_cell_angle_alpha    82.37780007528818
_cell_angle_beta     80.88961359194076
_cell_angle_gamma    78.10514131814263

_space_group_name_H-M_alt    "P 1"
_space_group_IT_number       1

loop_
  _space_group_symop_operation_xyz
  'x, y, z'

loop_
  _atom_site_type_symbol
  _atom_site_label
  _atom_site_symmetry_multiplicity
  _atom_site_fract_x
  _atom_site_fract_y
  _atom_site_fract_z
  _atom_site_occupancy
  Cd  Cd1       1.0  0.376871281279115  0.9998751501815163  0.9998996217233938  1.0000
  H   H1        1.0  0.007792799176002061  0.2467712063390337  0.9538011878965663  1.0000
  H   H2        1.0  0.20830138216931718  0.7529547291713496  0.0461930632822742  1.0000
  H   H3        1.0  0.6815769798191124  0.3462471760571831  0.8508308949117592  1.0000
  H   H4        1.0  0.878524429384825  0.653556394572746  0.1492055842972562  1.0000
  H   H5        1.0  0.8342237280450107  0.033618313691697196  0.7294460943022686  1.0000
  H   H6        1.0  0.5971711255428859  0.9663923522560082  0.2703618313115328  1.0000
  H   H7        1.0  0.14136661127528047  0.9458443920936762  0.8400762817157243  1.0000
  H   H8        1.0  0.9272120802755023  0.0540707141787422  0.1596316891489309  1.0000
  H   H9        1.0  0.4765782138959834  0.09533506659101929  0.6769799220473658  1.0000
  H   H10       1.0  0.24794739328849857  0.9046758439730739  0.32269077368156474  1.0000
  H   H11       1.0  0.04359153957692997  0.399256779563231  0.5461474620959522  1.0000
  H   H12       1.0  0.9889196225273692  0.6007763858492295  0.45401143096785296  1.0000
  H   H13       1.0  0.5703779391284914  0.42658475471215945  0.7312016639401122  1.0000
  H   H14       1.0  0.7277956170280007  0.5734349717375906  0.2688061089244442  1.0000
  H   H15       1.0  0.5604790956267677  0.2532391710313747  0.44061241027073084  1.0000
  H   H16       1.0  0.25457541627339697  0.7468041979004525  0.5594803382501183  1.0000
  H   H17       1.0  0.4922798416046208  0.26458335332994665  0.2677145451860952  1.0000
  H   H18       1.0  0.024679458061683607  0.7354097178856522  0.7323807011948773  1.0000
  H   H19       1.0  0.6142831759060245  0.13246919572040383  0.3277938172532444  1.0000
  H   H20       1.0  0.07498266759770188  0.8675003418304142  0.6723541632135906  1.0000
  H   H21       1.0  0.009440419139181625  0.23094682729935562  0.3011135143272341  1.0000
  H   H22       1.0  0.5417928315052333  0.7691036957952023  0.6989347493139206  1.0000
  H   H23       1.0  0.20462092961255243  0.09821525914183843  0.27178646691912434  1.0000
  H   H24       1.0  0.5749978088278315  0.9018080871140626  0.72830441804183  1.0000
  H   H25       1.0  0.8860877539898622  0.10398018465642168  0.4329818867091291  1.0000
  H   H26       1.0  0.42337907577672984  0.8961584253584717  0.5671459962745686  1.0000
  H   H27       1.0  0.22865528340554406  0.02396018904449451  0.42569761039673193  1.0000
  H   H28       1.0  0.6788650735011428  0.9761166550690776  0.5744028906236522  1.0000
  H   H29       1.0  0.6278563663769532  0.4206318191195707  0.38099924617241504  1.0000
  H   H30       1.0  0.4298740547544925  0.5794635113118929  0.6189372789637061  1.0000
  C   C1        1.0  0.9626698420264717  0.203297493891796  0.9025059919149356  1.0000
  C   C2        1.0  0.06828912113591204  0.7965152131245861  0.09741958189422208  1.0000
  C   C3        1.0  0.7826527031858033  0.25804245470891374  0.8441337682693089  1.0000
  C   C4        1.0  0.8845290852640202  0.7418133512382212  0.1558117525512586  1.0000
  C   C5        1.0  0.7280716753694283  0.19864194944175037  0.7794773562744126  1.0000
  C   C6        1.0  0.7059768931475503  0.8013083543958929  0.22042462387689452  1.0000
  C   C7        1.0  0.8600996916820873  0.08393489049533538  0.7788773622281653  1.0000
  C   C8        1.0  0.7227286571706343  0.9160391281744394  0.22093498688251859  1.0000
  C   C9        1.0  0.03701254436758458  0.03490732600715061  0.8392920922964038  1.0000
  C   C10       1.0  0.9110930581709765  0.9650048300868975  0.16049005582326709  1.0000
  C   C11       1.0  0.5422932056750158  0.2534364576944412  0.7147297945955841  1.0000
  C   C12       1.0  0.5101861752296343  0.746579535777748  0.2852298593400704  1.0000
  C   C13       1.0  0.43157005713916874  0.18786502668256594  0.6666044025085327  1.0000
  C   C14       1.0  0.2855258014732628  0.8121487140896376  0.3332738552597192  1.0000
  C   C15       1.0  0.26154176815827423  0.23964147366208266  0.6038823287809265  1.0000
  C   C16       1.0  0.10477221822947057  0.7604231128902157  0.3961452319213237  1.0000
  C   C17       1.0  0.18670942731588966  0.35842855890456365  0.5916192712584873  1.0000
  C   C18       1.0  0.1364796338064096  0.6416279605967858  0.40846644746309824  1.0000
  C   C19       1.0  0.2987052298933933  0.42476029851529523  0.6384794663612041  1.0000
  C   C20       1.0  0.3615410649922095  0.5753280799368172  0.3615342550607394  1.0000
  C   C21       1.0  0.4772748790732493  0.3726553568297533  0.6985784011468893  1.0000
  C   C22       1.0  0.548206501321211  0.627384310349761  0.3014399718762917  1.0000
  C   C23       1.0  0.16159603046959597  0.16415656378555352  0.5518703354739642  1.0000
  C   C24       1.0  0.8775937954100498  0.835955865654256  0.448213457836296  1.0000
  C   C25       1.0  0.37266728261545984  0.2584182876734005  0.4103390751272613  1.0000
  C   C26       1.0  0.0416374997256883  0.7416554720482367  0.5897456153281978  1.0000
  C   C27       1.0  0.4386460465535721  0.20425594609518075  0.3234189295556718  1.0000
  C   C28       1.0  0.9666372349970158  0.7957591603103752  0.6766648680018648  1.0000
  C   C29       1.0  0.1742925473953322  0.1599387286642155  0.3194649195429804  1.0000
  C   C30       1.0  0.6540964807608418  0.8401039213333165  0.680617401389121  1.0000
  C   C31       1.0  0.10445972745792906  0.10983003093279818  0.41283035406897983  1.0000
  C   C32       1.0  0.6274612575011392  0.8902678497657631  0.5872751144728027  1.0000
  C   C33       1.0  0.2361603535813188  0.38422911828801176  0.3942252327444322  1.0000
  C   C34       1.0  0.014811871894075386  0.6158411478179175  0.6059013352597731  1.0000
  N   N1        1.0  0.09007969013153881  0.09356232270494051  0.8999240409650326  1.0000
  N   N2        1.0  0.08342885662548108  0.9062728455458925  0.09989391973328307  1.0000
  N   N3        1.0  0.1883027787784428  0.18806632194186082  0.4639693334505495  1.0000
  N   N4        1.0  0.8405364899871941  0.8120298012373012  0.5361238493095826  1.0000
  N   N5        1.0  0.4210368506514827  0.4550145748665315  0.3784980842626382  1.0000
  N   N6        1.0  0.2549361696509182  0.5450594060906012  0.6214703121407296  1.0000
  Cl  Cl1       1.0  0.6486285768740956  0.8389738720311543  0.9266614471684775  1.0000
  Cl  Cl2       1.0  0.4141599731042617  0.16080495444693102  0.0731894347542408  1.0000
  O   O1        1.0  0.06006693576860307  0.080572442798001  0.5876233958854229  1.0000
  O   O2        1.0  0.7283511647650299  0.919610590311635  0.4125258020680107  1.0000
  O   O3        1.0  0.9820355039216507  0.416302560161725  0.3930072715482353  1.0000
  O   O4        1.0  0.7914682463282077  0.58374181575072  0.6072767756713375  1.0000
