data_image0
_chemical_formula_structural       Zn2H42C40N2O14
_chemical_formula_sum              "Zn2 H42 C40 N2 O14"
_cell_length_a       9.949201563410888
_cell_length_b       10.90330682387019
_cell_length_c       17.346479161274747
_cell_angle_alpha    86.07331388957444
_cell_angle_beta     87.45924616435735
_cell_angle_gamma    90.17192707629029

_space_group_name_H-M_alt    "P 1"
_space_group_IT_number       1

loop_
  _space_group_symop_operation_xyz
  'x, y, z'

loop_
  _atom_site_type_symbol
  _atom_site_label
  _atom_site_symmetry_multiplicity
  _atom_site_fract_x
  _atom_site_fract_y
  _atom_site_fract_z
  _atom_site_occupancy
  Zn  Zn1       1.0  0.6402688764868073  0.49771355860253413  0.5022819135193615  1.0000
  Zn  Zn2       1.0  0.3462898834906055  0.4931576043667291  0.5050184384309375  1.0000
  H   H1        1.0  0.349629707043853  0.30595286749125705  0.2952767397426399  1.0000
  H   H2        1.0  0.6446305615279043  0.3694128136487933  0.7372318379496717  1.0000
  H   H3        1.0  0.3011122007153589  0.6023765728542896  0.756910756937259  1.0000
  H   H4        1.0  0.7049276629956935  0.5240562856335346  0.23973314959636838  1.0000
  H   H5        1.0  0.4596142030959172  0.5373161681599259  0.012154284687511594  1.0000
  H   H6        1.0  0.5131873028538294  0.2598300667395321  0.014779195986307095  1.0000
  H   H7        1.0  0.6924525732343838  0.4784040544633116  0.1004603035138061  1.0000
  H   H8        1.0  0.3094503073534369  0.579241547693151  0.9010954086930097  1.0000
  H   H9        1.0  0.26839050421517635  0.8797402100000155  0.5267213390439807  1.0000
  H   H10       1.0  0.6956028408851296  0.1107773618573873  0.4652788581344183  1.0000
  H   H11       1.0  0.2789989943721523  0.1089672310757308  0.5396358015953524  1.0000
  H   H12       1.0  0.6892929194483556  0.8805533423190682  0.46147480583667283  1.0000
  H   H13       1.0  0.8210273446049855  0.3461284164735546  0.8095986790021286  1.0000
  H   H14       1.0  0.7284988476815073  0.20605046583705897  0.8089004767786107  1.0000
  H   H15       1.0  0.8190915698579957  0.1350067970771818  0.9378767560215593  1.0000
  H   H16       1.0  0.9520444185282814  0.16990750713146244  0.8675580706199069  1.0000
  H   H17       1.0  0.9110008188985856  0.27540196721880517  0.9388612969119379  1.0000
  H   H18       1.0  0.1743471401886154  0.3740658385001936  0.1385548162097336  1.0000
  H   H19       1.0  0.1628546025133417  0.28168698792492114  0.22768966588574097  1.0000
  H   H20       1.0  0.09874177061661268  0.09849396674101032  0.157493607708453  1.0000
  H   H21       1.0  0.9860298011163379  0.22236897296627942  0.1378992490113831  1.0000
  H   H22       1.0  0.11414136321824488  0.1880740879633365  0.0675535582781563  1.0000
  H   H23       1.0  0.002904286856370695  0.3724721773323907  0.6962880333254586  1.0000
  H   H24       1.0  0.1551649847643617  0.4633584243948832  0.6905074455545872  1.0000
  H   H25       1.0  0.18032535243184356  0.2852298492992915  0.7859577927552975  1.0000
  H   H26       1.0  0.1397634526200022  0.1806804516821856  0.7153696286281457  1.0000
  H   H27       1.0  0.2907927087433464  0.2701316097719086  0.7037296054013211  1.0000
  H   H28       1.0  0.8707658989293349  0.6051066010857441  0.3042704063541208  1.0000
  H   H29       1.0  0.9646186306675302  0.7427662477439367  0.3168115438003767  1.0000
  H   H30       1.0  0.7487688343654  0.8598365507579543  0.32911112786901947  1.0000
  H   H31       1.0  0.7577043232807982  0.7861551189872883  0.24075248421359416  1.0000
  H   H32       1.0  0.6555338154989415  0.721536667399377  0.3207853938206994  1.0000
  H   H33       1.0  0.9696491894607605  0.19746676529747015  0.5858077363209375  1.0000
  H   H34       1.0  0.8256094370530462  0.21080515955109286  0.5266075556382076  1.0000
  H   H35       1.0  0.6744972892306649  0.17672706261049603  0.6470650763706443  1.0000
  H   H36       1.0  0.7787683525352874  0.0483610777868364  0.6301939027979557  1.0000
  H   H37       1.0  0.8202407418368549  0.1485692030655628  0.7025081724845847  1.0000
  H   H38       1.0  0.0889432340729996  0.5449516660141001  0.2858203823537409  1.0000
  H   H39       1.0  0.2313336665229642  0.4861310670287864  0.3370824321697014  1.0000
  H   H40       1.0  0.35788892085246715  0.6805458351725588  0.3004525908982316  1.0000
  H   H41       1.0  0.3104602886424672  0.6072023552113849  0.2170317933516088  1.0000
  H   H42       1.0  0.22052627974297684  0.7387213129858665  0.2464737816005638  1.0000
  C   C1        1.0  0.4775716267245187  0.7304801047602749  0.49164196228781515  1.0000
  C   C2        1.0  0.4950759422589642  0.2584732259010281  0.5117004137450394  1.0000
  C   C3        1.0  0.3619535216015207  0.9312441562130328  0.5147911400862242  1.0000
  C   C4        1.0  0.6035379395881294  0.05879617379730459  0.48065451366377226  1.0000
  C   C5        1.0  0.367460716173575  0.0577598388394094  0.5213911902342119  1.0000
  C   C6        1.0  0.5996013287311754  0.9320127529870347  0.4770986923899017  1.0000
  C   C7        1.0  0.48846725694452436  0.1223927858364036  0.5045446881690694  1.0000
  C   C8        1.0  0.4786260697635639  0.8674699759436493  0.4939741308929584  1.0000
  C   C9        1.0  0.06087669666207769  0.4275896949138345  0.5485976492011772  1.0000
  C   C10       1.0  0.9233816201168423  0.5826760336342502  0.4513077128609666  1.0000
  C   C11       1.0  0.918895178562664  0.4286894038811154  0.5510871770130592  1.0000
  C   C12       1.0  0.0647448280298093  0.5682327130523461  0.44139087822527046  1.0000
  C   C13       1.0  0.5249663176223152  0.45773527082280197  0.3567421047710795  1.0000
  C   C14       1.0  0.47502524845912564  0.49908410694911254  0.6526177037059071  1.0000
  C   C15       1.0  0.5263460532096501  0.4199280325047638  0.2752860086237732  1.0000
  C   C16       1.0  0.4721743858283958  0.484914290542214  0.7393497573487338  1.0000
  C   C17       1.0  0.42471504864139575  0.34299103746015186  0.2521518214499138  1.0000
  C   C18       1.0  0.5698563740785829  0.4109502487942152  0.7748202076653001  1.0000
  C   C19       1.0  0.4196475512016065  0.31522649257810537  0.1749746726370986  1.0000
  C   C20       1.0  0.5708162302444322  0.39320814960397854  0.8553058909442584  1.0000
  C   C21       1.0  0.5143522574580713  0.3667131141492633  0.11896297661849789  1.0000
  C   C22       1.0  0.47574978556882996  0.45454589971844683  0.9022643421210857  1.0000
  C   C23       1.0  0.6179519190867352  0.4404215326686652  0.14372730218119759  1.0000
  C   C24       1.0  0.3809490519146834  0.530232459482292  0.8649588685975118  1.0000
  C   C25       1.0  0.6251752084172466  0.4659844606499135  0.2209327381496138  1.0000
  C   C26       1.0  0.37601038321228225  0.5439316175004407  0.7847340965514105  1.0000
  C   C27       1.0  0.5027768846701618  0.3516120639719205  0.0357445084060899  1.0000
  C   C28       1.0  0.4799598934997674  0.44967080671282394  0.9866781777441247  1.0000
  C   C29       1.0  0.7710390042720546  0.2718158379173659  0.8469365014884785  1.0000
  C   C30       1.0  0.8687725771192588  0.20943315064267415  0.9012609558230905  1.0000
  C   C31       1.0  0.1846438544229017  0.2795605090514428  0.1648772545038852  1.0000
  C   C32       1.0  0.09052826276697351  0.19165579862238502  0.1298122397511037  1.0000
  C   C33       1.0  0.11134634486533909  0.373351373442553  0.680987762947062  1.0000
  C   C34       1.0  0.18473595691656192  0.270672493705824  0.7238277983562043  1.0000
  C   C35       1.0  0.8686901341606938  0.6944245355429359  0.3302387985131361  1.0000
  C   C36       1.0  0.7500865210271286  0.7701061012122564  0.30407641926860407  1.0000
  C   C37       1.0  0.8621877596128014  0.22058673998053993  0.5846398580942207  1.0000
  C   C38       1.0  0.7789472195230758  0.14467876338201793  0.6450933244649448  1.0000
  C   C39       1.0  0.1787136012710135  0.5696018265313185  0.3167136911073527  1.0000
  C   C40       1.0  0.2720924072512148  0.6547247552438764  0.26727061803014607  1.0000
  N   N1        1.0  0.8535077237316814  0.5082242025034845  0.5040522956514977  1.0000
  N   N2        1.0  0.13063410091486818  0.49401315206032603  0.4921049651714141  1.0000
  O   O1        1.0  0.5899537511706754  0.6778850173336296  0.501805226955419  1.0000
  O   O2        1.0  0.3865508445687382  0.31107104723655965  0.5322554380436486  1.0000
  O   O3        1.0  0.3662991212754818  0.6780280230046998  0.4801638341036564  1.0000
  O   O4        1.0  0.6089807836609609  0.31079279662361614  0.4966680815660212  1.0000
  O   O5        1.0  0.6334668645041147  0.4992268440664347  0.38146053414630626  1.0000
  O   O6        1.0  0.3655664299248541  0.5282583068577297  0.6204535170764911  1.0000
  O   O7        1.0  0.41246070674867497  0.4471295431941869  0.3948797743017067  1.0000
  O   O8        1.0  0.5874506266978373  0.47866976484750257  0.6182998358826808  1.0000
  O   O9        1.0  0.6641839104401726  0.3224076874929338  0.892953227542378  1.0000
  O   O10       1.0  0.3210494846791078  0.23985255627520272  0.1499346868429043  1.0000
  O   O11       1.0  0.13160672757788922  0.35610382293070586  0.5980832414657229  1.0000
  O   O12       1.0  0.8513179061571704  0.6696061595531617  0.41394194061296463  1.0000
  O   O13       1.0  0.8452621731366392  0.3508588633306147  0.5999521903572073  1.0000
  O   O14       1.0  0.13311597316726417  0.6349274287355159  0.3843088083958577  1.0000
