data_image0
_chemical_formula_structural       Cd4H32C24N8O28
_chemical_formula_sum              "Cd4 H32 C24 N8 O28"
_cell_length_a       5.659719624104683
_cell_length_b       10.888903718197554
_cell_length_c       15.295414233060683
_cell_angle_alpha    89.99978549845613
_cell_angle_beta     89.99978058245593
_cell_angle_gamma    90.00066228167331

_space_group_name_H-M_alt    "P 1"
_space_group_IT_number       1

loop_
  _space_group_symop_operation_xyz
  'x, y, z'

loop_
  _atom_site_type_symbol
  _atom_site_label
  _atom_site_symmetry_multiplicity
  _atom_site_fract_x
  _atom_site_fract_y
  _atom_site_fract_z
  _atom_site_occupancy
  Cd  Cd1       1.0  0.5527438766912169  0.9068450180127954  0.3511481387556402  1.0000
  Cd  Cd2       1.0  0.947256924637884  0.093153239626325  0.8511478403458312  1.0000
  Cd  Cd3       1.0  0.4472519486334575  0.4068444875010897  0.1488509786931189  1.0000
  Cd  Cd4       1.0  0.0527422370519517  0.5931554877260368  0.6488524826968672  1.0000
  H   H1        1.0  0.2312647046164926  0.10229366629221912  0.4065719020030727  1.0000
  H   H2        1.0  0.26873363735764844  0.8977067782259952  0.9065729773081089  1.0000
  H   H3        1.0  0.7687367728288949  0.6022913626274972  0.09342801986029772  1.0000
  H   H4        1.0  0.7312581053762984  0.3977100991778428  0.5934271951069905  1.0000
  H   H5        1.0  0.08936716647794898  0.05450352570881021  0.32207287387426936  1.0000
  H   H6        1.0  0.410628596237771  0.9454946120571038  0.8220716788978069  1.0000
  H   H7        1.0  0.9106279565140412  0.554505306814889  0.1779297893795047  1.0000
  H   H8        1.0  0.5893677340563954  0.4454975433660949  0.6779277135014325  1.0000
  H   H9        1.0  0.2686761286112968  0.7243875722987171  0.4269248692786221  1.0000
  H   H10       1.0  0.23132551727076126  0.2756164377166145  0.9269204441896408  1.0000
  H   H11       1.0  0.7313227406084476  0.22438549139953068  0.0730793066328204  1.0000
  H   H12       1.0  0.7686759011794847  0.7756133232927315  0.5730767817530804  1.0000
  H   H13       1.0  0.14140429176295297  0.8492435909428552  0.4489516497171664  1.0000
  H   H14       1.0  0.3585882709265534  0.1507621388863356  0.948953928467603  1.0000
  H   H15       1.0  0.8585955639165732  0.34924056126852326  0.0510489274572308  1.0000
  H   H16       1.0  0.6414050936211452  0.650759288693699  0.551044281050153  1.0000
  H   H17       1.0  0.8522049535933364  0.6719178083968489  0.33882364723860553  1.0000
  H   H18       1.0  0.6478012876085373  0.32808326975429486  0.8388218062630417  1.0000
  H   H19       1.0  0.14779629233447616  0.1719144798743031  0.16117347556409817  1.0000
  H   H20       1.0  0.3522030547257343  0.8280817565189693  0.6611759348850086  1.0000
  H   H21       1.0  0.7012969510141431  0.6759510446085812  0.2523350712850956  1.0000
  H   H22       1.0  0.7987031996678056  0.32404957406273394  0.7523330466814002  1.0000
  H   H23       1.0  0.2987026169636593  0.17594633471309612  0.2476626946581959  1.0000
  H   H24       1.0  0.20129398622622574  0.8240476060349525  0.7476640513353914  1.0000
  H   H25       1.0  0.03234024781129819  0.7804595859944287  0.0615847274186265  1.0000
  H   H26       1.0  0.4676602242454991  0.21954085227935147  0.5615873378675715  1.0000
  H   H27       1.0  0.9676545573436287  0.28045883518736753  0.4384127624825709  1.0000
  H   H28       1.0  0.5323470251277128  0.7195426328839646  0.9384172278762009  1.0000
  H   H29       1.0  0.12599951864402206  0.7869183077319875  0.2239431251406572  1.0000
  H   H30       1.0  0.37400265306038694  0.21307300378584432  0.723945873241206  1.0000
  H   H31       1.0  0.8739812939457465  0.28691601418520213  0.27605434771206927  1.0000
  H   H32       1.0  0.625999153114094  0.7130789683595609  0.7760587095841629  1.0000
  C   C1        1.0  0.772003939382621  0.027146918258594603  0.1829614947232869  1.0000
  C   C2        1.0  0.7279952280286393  0.9728522317591061  0.6829637315742689  1.0000
  C   C3        1.0  0.2279941140807651  0.5271465806336695  0.31703797183516264  1.0000
  C   C4        1.0  0.27201053989427487  0.4728552573312685  0.8170395113030509  1.0000
  C   C5        1.0  0.5656649024200957  0.952909922318895  0.14754913775488634  1.0000
  C   C6        1.0  0.9343399656293555  0.04708849725260222  0.647548977649258  1.0000
  C   C7        1.0  0.4343372393084194  0.45290823324818774  0.3524537807637955  1.0000
  C   C8        1.0  0.06566524771711359  0.5470906617023276  0.8524534284333144  1.0000
  C   C9        1.0  0.5196241423180864  0.9421660566641208  0.057547042441470395  1.0000
  C   C10       1.0  0.9803870430163995  0.057833758836167704  0.5575481022585296  1.0000
  C   C11       1.0  0.48037246190370564  0.44216600570506176  0.4424532892936313  1.0000
  C   C12       1.0  0.0196307753762852  0.5578351668076638  0.9424549292260452  1.0000
  C   C13       1.0  0.18832714643827586  0.8270376841702858  0.0864678405842909  1.0000
  C   C14       1.0  0.31167657826382816  0.17296078535342477  0.5864701210949264  1.0000
  C   C15       1.0  0.8116616184064964  0.32704071216204517  0.4135301800791282  1.0000
  C   C16       1.0  0.6883349445438681  0.6729627246522725  0.9135345676784894  1.0000
  C   C17       1.0  0.23766483455147377  0.8323953446731452  0.1757102360632814  1.0000
  C   C18       1.0  0.2623378820355383  0.1675998962331562  0.6757125942496387  1.0000
  C   C19       1.0  0.7623240484156284  0.3323957921741397  0.3242871166614735  1.0000
  C   C20       1.0  0.737668221956589  0.6676035263145009  0.8242921086848229  1.0000
  C   C21       1.0  0.6783940906690019  0.9918375758755861  0.9868881650060503  1.0000
  C   C22       1.0  0.821608711148528  0.008166390100456103  0.4868885295968113  1.0000
  C   C23       1.0  0.321608562120268  0.4918333309046261  0.5131104512015199  1.0000
  C   C24       1.0  0.17840659244004087  0.5081627727908327  0.0131109870884032  1.0000
  N   N1        1.0  0.42492551937811385  0.8949576882018776  0.2048481780426741  1.0000
  N   N2        1.0  0.0750821687136991  0.10504015321390635  0.7048502887662735  1.0000
  N   N3        1.0  0.5750665100099254  0.39495164560746326  0.2951496632325218  1.0000
  N   N4        1.0  0.9249296231603169  0.6050395622036007  0.7951532718286033  1.0000
  N   N5        1.0  0.33067963751734897  0.8801143211764925  0.0278089209837376  1.0000
  N   N6        1.0  0.1693282835671113  0.11988629633614069  0.5278102173704299  1.0000
  N   N7        1.0  0.6693067639893612  0.3801134203864579  0.47218830570356835  1.0000
  N   N8        1.0  0.830689136334641  0.6198869500939496  0.9721913426336642  1.0000
  O   O1        1.0  0.24737693024319904  0.08083717715273053  0.3434255425448214  1.0000
  O   O2        1.0  0.2526185912578498  0.9191590105867745  0.8434233129739184  1.0000
  O   O3        1.0  0.7526187734387974  0.5808371958948725  0.15657705115544474  1.0000
  O   O4        1.0  0.7473736245803194  0.4191639308461036  0.6565728800323001  1.0000
  O   O5        1.0  0.3014524802708394  0.8111034344512476  0.4410250382794915  1.0000
  O   O6        1.0  0.19854017196929874  0.18890141908045882  0.9410234995997089  1.0000
  O   O7        1.0  0.698543000603763  0.31110122978991234  0.058976293427512906  1.0000
  O   O8        1.0  0.8014540336393735  0.6888994964590865  0.5589739553877281  1.0000
  O   O9        1.0  0.7063042733117798  0.7076382027922534  0.3129348887530981  1.0000
  O   O10       1.0  0.7937022603407937  0.2923639310906339  0.8129329542856923  1.0000
  O   O11       1.0  0.293704827750787  0.20762919230190144  0.1870614859125297  1.0000
  O   O12       1.0  0.2062924600153409  0.7923669067290433  0.6870622660457215  1.0000
  O   O13       1.0  0.8227549760910193  0.014671772562337497  0.2637693586670125  1.0000
  O   O14       1.0  0.6772503461155565  0.9853333772947722  0.7637637824057536  1.0000
  O   O15       1.0  0.17725163660499985  0.5146724746014542  0.23623667874261403  1.0000
  O   O16       1.0  0.3227592307981765  0.48533622067648013  0.7362368123398186  1.0000
  O   O17       1.0  0.8804449892323876  0.09483097030720702  0.1293380738446999  1.0000
  O   O18       1.0  0.6195636182767714  0.9051675459041206  0.6293373601235359  1.0000
  O   O19       1.0  0.11955985740917188  0.5948324462802932  0.3706657904672  1.0000
  O   O20       1.0  0.38044419077628083  0.405166352048184  0.8706634463716797  1.0000
  O   O21       1.0  0.6215988903627405  0.09349086560805382  0.9508903629326043  1.0000
  O   O22       1.0  0.8783972506209707  0.9065160464447859  0.4508922043312253  1.0000
  O   O23       1.0  0.3783843768308159  0.5934809220367399  0.5491027675466569  1.0000
  O   O24       1.0  0.12160740181712977  0.4065159089726579  0.049106260189518  1.0000
  O   O25       1.0  0.847896599232726  0.9260133459012678  0.9624331006596878  1.0000
  O   O26       1.0  0.6521082458635445  0.07400544369578202  0.4624335095921738  1.0000
  O   O27       1.0  0.15210283500047686  0.42599876057043673  0.5375683045890157  1.0000
  O   O28       1.0  0.34792087759574025  0.5739917031884119  0.0375664869865986  1.0000
