data_image0
_chemical_formula_structural       Mg4H56C20O32
_chemical_formula_sum              "Mg4 H56 C20 O32"
_cell_length_a       6.870759450040405
_cell_length_b       7.303368431180335
_cell_length_c       21.020386356917733
_cell_angle_alpha    84.87178985594656
_cell_angle_beta     80.6007122458143
_cell_angle_gamma    61.910159251902215

_space_group_name_H-M_alt    "P 1"
_space_group_IT_number       1

loop_
  _space_group_symop_operation_xyz
  'x, y, z'

loop_
  _atom_site_type_symbol
  _atom_site_label
  _atom_site_symmetry_multiplicity
  _atom_site_fract_x
  _atom_site_fract_y
  _atom_site_fract_z
  _atom_site_occupancy
  Mg  Mg1       1.0  0.7332441540916927  0.6076296575631802  0.6845801832691124  1.0000
  Mg  Mg2       1.0  0.9744423164527731  0.10797647968599478  0.18456533275686846  1.0000
  Mg  Mg3       1.0  0.26675408130241607  0.3923740684903477  0.31542070533420496  1.0000
  Mg  Mg4       1.0  0.025557649783841792  0.8920257178400063  0.8154346084600945  1.0000
  H   H1        1.0  0.46080819802256917  0.6753035756160628  0.9059801031328548  1.0000
  H   H2        1.0  0.9578960924241925  0.17594725792569924  0.405857668048654  1.0000
  H   H3        1.0  0.539193459986585  0.3246970554892528  0.09402039818532164  1.0000
  H   H4        1.0  0.04210108409326088  0.8240549444921328  0.5941421098700275  1.0000
  H   H5        1.0  0.7078842102209176  0.43893405792393736  0.906951654539043  1.0000
  H   H6        1.0  0.9469471300510507  0.9394501894591797  0.4068543169144122  1.0000
  H   H7        1.0  0.2921213483797941  0.5610634900489161  0.0930479842145147  1.0000
  H   H8        1.0  0.053052371134832396  0.06054735648157109  0.5931454705220602  1.0000
  H   H9        1.0  0.6646963272798414  0.8621819498718891  0.9355977460669678  1.0000
  H   H10       1.0  0.5376032373235303  0.36252503681073  0.435598977750729  1.0000
  H   H11       1.0  0.33530859842498717  0.1378186881573527  0.06440244327001213  1.0000
  H   H12       1.0  0.4623976587219333  0.6374725066841122  0.5644008913348914  1.0000
  H   H13       1.0  0.9039092730365963  0.6229058593099952  0.9386916273420738  1.0000
  H   H14       1.0  0.5350124686224971  0.12307715003753833  0.438606236601359  1.0000
  H   H15       1.0  0.09609051213647034  0.377094762425486  0.061309267606439705  1.0000
  H   H16       1.0  0.4649864125932833  0.876918846190101  0.5613934723585744  1.0000
  H   H17       1.0  0.4628435617461619  0.7486562747370088  0.029016952006799133  1.0000
  H   H18       1.0  0.7597341273610635  0.2487534849888533  0.5290205862450038  1.0000
  H   H19       1.0  0.5371590522160187  0.25134437999980724  0.9709825987524213  1.0000
  H   H20       1.0  0.24026350098873184  0.751244051582063  0.47097959482180585  1.0000
  H   H21       1.0  0.7026221564385294  0.5084412196542232  0.032293178502094136  1.0000
  H   H22       1.0  0.7573165634923948  0.008483606563117996  0.5321913887852504  1.0000
  H   H23       1.0  0.29738214929619744  0.49155786866190704  0.9677069323583467  1.0000
  H   H24       1.0  0.2426834156699938  0.9915139511933831  0.46780792337174404  1.0000
  H   H25       1.0  0.6343429254555277  0.3077361846940221  0.654806585378033  1.0000
  H   H26       1.0  0.40334837716158456  0.8078844392995919  0.15485626298730892  1.0000
  H   H27       1.0  0.3656552070149458  0.6922660413553035  0.34519224198169246  1.0000
  H   H28       1.0  0.5966475464898835  0.19211930346151712  0.8451439870382417  1.0000
  H   H29       1.0  0.8478817806078066  0.1900404256769974  0.6917101683630948  1.0000
  H   H30       1.0  0.27035597108813664  0.690353389546388  0.19162203306701295  1.0000
  H   H31       1.0  0.15211881852469122  0.8099586817926221  0.3082892222704388  1.0000
  H   H32       1.0  0.7296401074827087  0.3096472513425751  0.8083781416546004  1.0000
  H   H33       1.0  0.20453194454479715  0.397888976035503  0.6685500745297049  1.0000
  H   H34       1.0  0.7291294142462516  0.8981490850786641  0.16858520956802184  1.0000
  H   H35       1.0  0.7954686936576538  0.6021101693272684  0.33144780861626094  1.0000
  H   H36       1.0  0.27087319971592894  0.1018515696581517  0.8314143411911985  1.0000
  H   H37       1.0  0.11546106778352769  0.5223202923653574  0.7341678738144922  1.0000
  H   H38       1.0  0.6280707473444237  0.022691246893643293  0.23416423763274002  1.0000
  H   H39       1.0  0.8845387564594913  0.47768036726328233  0.2658315136464467  1.0000
  H   H40       1.0  0.37193123372186665  0.9773124978995612  0.7658358637099029  1.0000
  H   H41       1.0  0.5792286470446367  0.02849447243050209  0.6657251782918436  1.0000
  H   H42       1.0  0.7262568089314384  0.5288271341378846  0.16574709398758367  1.0000
  H   H43       1.0  0.4207685294728167  0.9715077299873228  0.33427459962683775  1.0000
  H   H44       1.0  0.2737442291076133  0.47117194725432654  0.8342533288540538  1.0000
  H   H45       1.0  0.7786359330245101  0.9287979476808986  0.7078414477620641  1.0000
  H   H46       1.0  0.5842712522351687  0.429277428785369  0.20780075299676076  1.0000
  H   H47       1.0  0.22136245728898263  0.0712026765004978  0.29215936553730876  1.0000
  H   H48       1.0  0.41572948889091743  0.5707232165816051  0.7921991913927969  1.0000
  H   H49       1.0  0.7823183756687867  0.6382931080818323  0.5470665467151863  1.0000
  H   H50       1.0  0.03221265183954359  0.13834589828861973  0.0470773636380883  1.0000
  H   H51       1.0  0.21768050554699409  0.361702888145807  0.4529331622447473  1.0000
  H   H52       1.0  0.967787004558324  0.8616625029816518  0.9529227281867564  1.0000
  H   H53       1.0  0.012128810408284804  0.5097180433522936  0.5728644039658947  1.0000
  H   H54       1.0  0.9050181759364263  0.010053138122870597  0.07286556535568423  1.0000
  H   H55       1.0  0.9878705097140492  0.4902779267979369  0.42713633720213556  1.0000
  H   H56       1.0  0.09497726973852841  0.9899505928224883  0.9271351599493515  1.0000
  C   C1        1.0  0.7182739180815355  0.6475983937136505  0.830506283680606  1.0000
  C   C2        1.0  0.8035685246361126  0.147971747806686  0.33044226453318976  1.0000
  C   C3        1.0  0.2817238913318007  0.352400718647786  0.16949294365465312  1.0000
  C   C4        1.0  0.19643332736237765  0.8520258193196497  0.6695566539934745  1.0000
  C   C5        1.0  0.6438582967211485  0.6076440828221621  0.899913841953648  1.0000
  C   C6        1.0  0.8487716156508396  0.10811758651657748  0.39983446593331  1.0000
  C   C7        1.0  0.3561452470498807  0.39235191788348794  0.10008563667422983  1.0000
  C   C8        1.0  0.15122788553504313  0.8918799594241735  0.6001653215031695  1.0000
  C   C9        1.0  0.7211614686898854  0.6967563813018601  0.9470737459725385  1.0000
  C   C10       1.0  0.6352812062211581  0.19705171990398904  0.44703099193184676  1.0000
  C   C11       1.0  0.278841920161774  0.30324272127592883  0.05292580795928362  1.0000
  C   C12       1.0  0.36471737808165716  0.8029458402984276  0.5529682385760141  1.0000
  C   C13       1.0  0.6459948326508423  0.6725563485317353  0.01794480582199753  1.0000
  C   C14       1.0  0.6639001694115835  0.1726461868036822  0.5179109703522684  1.0000
  C   C15       1.0  0.3540080782243036  0.3274427422303106  0.9820552233893026  1.0000
  C   C16       1.0  0.3360979369147186  0.8273513615829842  0.4820887354350631  1.0000
  C   C17       1.0  0.7310629709779659  0.7658653119294883  0.061544229646152436  1.0000
  C   C18       1.0  0.4418363939482503  0.26574969613917426  0.5615192717089599  1.0000
  C   C19       1.0  0.26893930700128976  0.23413686888893886  0.9384563501485702  1.0000
  C   C20       1.0  0.5581624872675234  0.7342463000884647  0.43848043725097346  1.0000
  O   O1        1.0  0.6753536718690322  0.5647404349143628  0.7860953237667163  1.0000
  O   O2        1.0  0.9737538315664549  0.0651483678932223  0.2860334057126935  1.0000
  O   O3        1.0  0.3246440216948869  0.435261817212364  0.21390247138491253  1.0000
  O   O4        1.0  0.026245514700050734  0.934852279919667  0.7139664570277234  1.0000
  O   O5        1.0  0.816593702832584  0.7568510718764616  0.8178587424356679  1.0000
  O   O6        1.0  0.6084817555930113  0.25713753713719  0.31781017713952053  1.0000
  O   O7        1.0  0.18340344754069798  0.24314645287870462  0.18214191391062684  1.0000
  O   O8        1.0  0.39151946350958844  0.7428631200455342  0.6821892919705591  1.0000
  O   O9        1.0  0.8512811509762698  0.8490092406949616  0.03668740757105843  1.0000
  O   O10       1.0  0.2632398059155107  0.3486746888968498  0.5366823031751835  1.0000
  O   O11       1.0  0.14871738133081155  0.15099292138378925  0.9633139594843315  1.0000
  O   O12       1.0  0.7367601471027072  0.6513181911969923  0.4633178874094242  1.0000
  O   O13       1.0  0.6752213014757729  0.7572568375589556  0.12297516670165724  1.0000
  O   O14       1.0  0.4449294327334029  0.2571897799945048  0.6229509260732159  1.0000
  O   O15       1.0  0.3247769339183433  0.24274688849457252  0.8770257219016601  1.0000
  O   O16       1.0  0.5550702104460753  0.7428093038436074  0.37704941511928075  1.0000
  O   O17       1.0  0.7448143947843204  0.32700936180865636  0.6745906450111151  1.0000
  O   O18       1.0  0.25368622826319864  0.8272750461128097  0.17455084377268557  1.0000
  O   O19       1.0  0.2551880771842718  0.6729897550307911  0.3254083519920883  1.0000
  O   O20       1.0  0.7463103282841531  0.17272560659190364  0.8254488556694498  1.0000
  O   O21       1.0  0.06624630353217484  0.48723094738745926  0.6978815605226459  1.0000
  O   O22       1.0  0.7486906956629794  0.9875543461304661  0.19788978058534923  1.0000
  O   O23       1.0  0.9337550966339663  0.5127712855857921  0.30211695485588314  1.0000
  O   O24       1.0  0.25131191829920113  0.012446308606349998  0.8021097701738712  1.0000
  O   O25       1.0  0.6475405102150942  0.9179312612084375  0.6981611279566595  1.0000
  O   O26       1.0  0.7360306015503042  0.4181647742510889  0.19812993011838392  1.0000
  O   O27       1.0  0.35245883605141154  0.0820693866044522  0.3018387347837574  1.0000
  O   O28       1.0  0.2639698035928716  0.5818373971975035  0.8018710433066759  1.0000
  O   O29       1.0  0.8542505004983241  0.6163925324630242  0.5861595818312182  1.0000
  O   O30       1.0  0.9429236528709095  0.1166735209267031  0.08615147905681653  1.0000
  O   O31       1.0  0.14574932374469532  0.38360812716560827  0.41383980562972067  1.0000
  O   O32       1.0  0.05707973598074998  0.8833255816510857  0.9138480748750056  1.0000
