data_image0
_chemical_formula_structural       Hg4H24C12N4Cl8
_chemical_formula_sum              "Hg4 H24 C12 N4 Cl8"
_cell_length_a       6.2634328883728765
_cell_length_b       6.263455827851849
_cell_length_c       14.91472295905206
_cell_angle_alpha    90.00028881355128
_cell_angle_beta     89.9999305377673
_cell_angle_gamma    92.63308508267917

_space_group_name_H-M_alt    "P 1"
_space_group_IT_number       1

loop_
  _space_group_symop_operation_xyz
  'x, y, z'

loop_
  _atom_site_type_symbol
  _atom_site_label
  _atom_site_symmetry_multiplicity
  _atom_site_fract_x
  _atom_site_fract_y
  _atom_site_fract_z
  _atom_site_occupancy
  Hg  Hg1       1.0  0.7373768866125516  0.7373712142935319  0.5139015133271558  1.0000
  Hg  Hg2       1.0  0.26261593597470784  0.26263130112251787  0.013901236995728504  1.0000
  Hg  Hg3       1.0  0.7373699084061585  0.7373741026826294  0.9861006966059451  1.0000
  Hg  Hg4       1.0  0.26263754616066143  0.262630973989971  0.4861017612212495  1.0000
  H   H1        1.0  0.6203146836244215  0.42563592150022334  0.6705129124202502  1.0000
  H   H2        1.0  0.37967021046993915  0.5743781018352864  0.17051121070634426  1.0000
  H   H3        1.0  0.4256405999007029  0.6203171678102706  0.8294876173681163  1.0000
  H   H4        1.0  0.5743824678442097  0.3796700026289059  0.3294887742979499  1.0000
  H   H5        1.0  0.379682634309404  0.5743758679197486  0.3294917030989738  1.0000
  H   H6        1.0  0.6203293322685256  0.4256129082149158  0.8294920638341029  1.0000
  H   H7        1.0  0.5743720129246483  0.37968022672789903  0.17050694095622287  1.0000
  H   H8        1.0  0.4256125087812136  0.6203258053095836  0.670509136421103  1.0000
  H   H9        1.0  0.5313233948074442  0.9939812917379597  0.6715406917177449  1.0000
  H   H10       1.0  0.4686688834687374  0.0060199528732311994  0.17153978873186307  1.0000
  H   H11       1.0  0.9939950224845404  0.5313390786626258  0.8284622287010066  1.0000
  H   H12       1.0  0.006014945310738504  0.4686752590105813  0.3284631694856444  1.0000
  H   H13       1.0  0.46868078853637485  0.006006518612309701  0.3284578894693055  1.0000
  H   H14       1.0  0.5313077541937332  0.993993448520136  0.828461474401813  1.0000
  H   H15       1.0  0.006006936044556705  0.46866951110656174  0.1715457392059534  1.0000
  H   H16       1.0  0.9939843739843752  0.5313109563107687  0.6715434574420557  1.0000
  H   H17       1.0  0.807281632550691  0.074378588487491  0.6712922726158228  1.0000
  H   H18       1.0  0.19271810759370575  0.925611460029927  0.17128736043495252  1.0000
  H   H19       1.0  0.0743789449860301  0.8072998350780268  0.8287061157957825  1.0000
  H   H20       1.0  0.9256199955166268  0.1927177094890169  0.32870940212749394  1.0000
  H   H21       1.0  0.1927197301558081  0.9256172152097547  0.3287036266664246  1.0000
  H   H22       1.0  0.8072682161244914  0.0743699689057991  0.8287038454870841  1.0000
  H   H23       1.0  0.925610464834378  0.19271355785334526  0.1712944768564172  1.0000
  H   H24       1.0  0.0743775783052953  0.8072653103613519  0.6712925314483442  1.0000
  C   C1        1.0  0.5808646512392741  0.580828287570462  0.698118689908334  1.0000
  C   C2        1.0  0.4191490178934174  0.41915408794105957  0.19812201361842346  1.0000
  C   C3        1.0  0.5808359747633034  0.5808672994272898  0.8018812609567691  1.0000
  C   C4        1.0  0.419159467585466  0.41914192827587726  0.3018778798205659  1.0000
  C   C5        1.0  0.6885898132808491  0.9573146197648864  0.6981096651191268  1.0000
  C   C6        1.0  0.31141646911493126  0.0426805469163796  0.19811226502658036  1.0000
  C   C7        1.0  0.9573337627401699  0.6886102525078356  0.8018873163954581  1.0000
  C   C8        1.0  0.04266639466761291  0.31139737387212557  0.3018879158613786  1.0000
  C   C9        1.0  0.31138845335776477  0.04266521621544679  0.3018828817600508  1.0000
  C   C10       1.0  0.6886294147338605  0.957345594993498  0.8018856457115648  1.0000
  C   C11       1.0  0.04267458187252521  0.31139833300782266  0.19811662863941146  1.0000
  C   C12       1.0  0.9573323708323044  0.6886112179623894  0.6981120063052231  1.0000
  N   N1        1.0  0.7426155008844333  0.7426238704887208  0.6641926094596686  1.0000
  N   N2        1.0  0.2573738262212117  0.2573820812187079  0.1641909838590365  1.0000
  N   N3        1.0  0.7426198518059692  0.7426201207638458  0.8358049154316307  1.0000
  N   N4        1.0  0.2573878307352402  0.2573799234247502  0.3358073127009008  1.0000
  Cl  Cl1       1.0  0.2848751679292505  0.7151235770557847  0.5000005690968267  1.0000
  Cl  Cl2       1.0  0.7151239266403169  0.28487556781869466  1.227356704999999e-07  1.0000
  Cl  Cl3       1.0  0.7151277912901578  0.28487222561698644  0.5000006940124566  1.0000
  Cl  Cl4       1.0  0.2848714968608946  0.7151298296307474  0.9999997994284302  1.0000
  Cl  Cl5       1.0  0.8023386582086474  0.8023364692379078  0.3593281270252434  1.0000
  Cl  Cl6       1.0  0.19766128066427774  0.19767026056184986  0.8593255380859618  1.0000
  Cl  Cl7       1.0  0.8023357393557263  0.8023351358344469  0.14067505455619062  1.0000
  Cl  Cl8       1.0  0.1976626300122462  0.19765773623823435  0.6406724656043679  1.0000
