data_image0
_chemical_formula_structural       Ag2H20C14N6O6
_chemical_formula_sum              "Ag2 H20 C14 N6 O6"
_cell_length_a       7.532676727362385
_cell_length_b       7.75755023355156
_cell_length_c       8.200120521959773
_cell_angle_alpha    95.70058146443111
_cell_angle_beta     108.35763946855398
_cell_angle_gamma    99.82475124365584

_space_group_name_H-M_alt    "P 1"
_space_group_IT_number       1

loop_
  _space_group_symop_operation_xyz
  'x, y, z'

loop_
  _atom_site_type_symbol
  _atom_site_label
  _atom_site_symmetry_multiplicity
  _atom_site_fract_x
  _atom_site_fract_y
  _atom_site_fract_z
  _atom_site_occupancy
  Ag  Ag1       1.0  0.35359656867593975  0.10769939245090401  0.4181022161033354  1.0000
  Ag  Ag2       1.0  0.6464086088746939  0.892295268182366  0.5819082818805157  1.0000
  H   H1        1.0  0.10755900943952672  0.3028988754350124  0.5573378636289803  1.0000
  H   H2        1.0  0.892430888083368  0.6970958189678741  0.44266074505480907  1.0000
  H   H3        1.0  0.13516562228809909  0.5833300463365065  0.7541265102595817  1.0000
  H   H4        1.0  0.8648505719967476  0.4166806298341612  0.24586441952255467  1.0000
  H   H5        1.0  0.46339646172219773  0.7647612411586237  0.9285692870942557  1.0000
  H   H6        1.0  0.5366029663273225  0.23524408681750233  0.07142708971814928  1.0000
  H   H7        1.0  0.7479418319351936  0.6617077329902089  0.8965583624362453  1.0000
  H   H8        1.0  0.2520691947641113  0.3382935936665918  0.10344598447727553  1.0000
  H   H9        1.0  0.8609569848263378  0.47845674151284373  0.7021969707408077  1.0000
  H   H10       1.0  0.13904527986687043  0.5215312938979011  0.29781080467287074  1.0000
  H   H11       1.0  0.7090859342843672  0.2854658714574327  0.5598587686607956  1.0000
  H   H12       1.0  0.2909121694527174  0.7145221750408413  0.4401453228032396  1.0000
  H   H13       1.0  0.9595715144257329  0.22013060158344902  0.8178397249723592  1.0000
  H   H14       1.0  0.04042820726748894  0.779858744971719  0.18217107264116095  1.0000
  H   H15       1.0  0.8634886023707867  0.3295991913699368  0.9594776782133255  1.0000
  H   H16       1.0  0.13650876158641984  0.6703981127132154  0.040533171173244446  1.0000
  H   H17       1.0  0.7399720111690302  0.0246799417377517  0.9179605457624122  1.0000
  H   H18       1.0  0.26002216837986236  0.9753094213219601  0.0820449352894387  1.0000
  H   H19       1.0  0.5589640488292673  0.10429399723149402  0.8081978744954625  1.0000
  H   H20       1.0  0.44103737777748364  0.8956966751980674  0.19181355983526777  1.0000
  C   C1        1.0  0.2466124278924938  0.38709445805545073  0.6351198814680148  1.0000
  C   C2        1.0  0.7533929590263994  0.612905620940005  0.36486436425473573  1.0000
  C   C3        1.0  0.2629999952976051  0.5409397421789707  0.7459979701410335  1.0000
  C   C4        1.0  0.7370007744558222  0.4590828724385006  0.2539894781332849  1.0000
  C   C5        1.0  0.4446037593305477  0.6426375399857633  0.8415526077184483  1.0000
  C   C6        1.0  0.555412094507986  0.3573771561301555  0.15842884622134787  1.0000
  C   C7        1.0  0.6037577153523801  0.5857119404002092  0.8235627266401481  1.0000
  C   C8        1.0  0.39623466829471715  0.4142987297531207  0.17642351258012923  1.0000
  C   C9        1.0  0.5786449566819982  0.4298834853662827  0.7094418978356886  1.0000
  C   C10       1.0  0.421369006308531  0.5701178820915089  0.2905535754373362  1.0000
  C   C11       1.0  0.7475985854722041  0.3636041800106966  0.6902904268972351  1.0000
  C   C12       1.0  0.2524002004984923  0.6363865393973996  0.3097092450042355  1.0000
  C   C13       1.0  0.8268168790418715  0.2520877354978381  0.828740992905786  1.0000
  C   C14       1.0  0.17318238046466666  0.7479055948580609  0.17126882607059463  1.0000
  N   N1        1.0  0.4013418113786997  0.33355344323488373  0.6156518731058045  1.0000
  N   N2        1.0  0.5986658583384641  0.6664506035637814  0.384335873090322  1.0000
  N   N3        1.0  0.6908220096810709  0.0833187592941442  0.8097489032202105  1.0000
  N   N4        1.0  0.3091766719407475  0.9166719291329387  0.19025805199999724  1.0000
  N   N5        1.0  0.15352503103638782  0.9361839685956924  0.7382148022056826  1.0000
  N   N6        1.0  0.8464624739675344  0.06381867300817849  0.2617862860240621  1.0000
  O   O1        1.0  0.159216282230041  0.8982407479579922  0.5866896375773935  1.0000
  O   O2        1.0  0.8407562604291529  0.10176984829195132  0.4133089477816725  1.0000
  O   O3        1.0  0.01517910785358371  0.8576091787177376  0.7793795891684496  1.0000
  O   O4        1.0  0.9848162220929311  0.1423974141848063  0.2206303160963331  1.0000
  O   O5        1.0  0.28744605765999154  0.052304259497901705  0.8517513417281821  1.0000
  O   O6        1.0  0.712547267081462  0.9476930918172856  0.14824732650355815  1.0000
