data_image0
_chemical_formula_structural       Al4H26C50I2O24
_chemical_formula_sum              "Al4 H26 C50 I2 O24"
_cell_length_a       6.63143876644734
_cell_length_b       16.961118898371957
_cell_length_c       19.678767951030956
_cell_angle_alpha    71.38199749397612
_cell_angle_beta     91.72971669055467
_cell_angle_gamma    91.72402783742238

_space_group_name_H-M_alt    "P 1"
_space_group_IT_number       1

loop_
  _space_group_symop_operation_xyz
  'x, y, z'

loop_
  _atom_site_type_symbol
  _atom_site_label
  _atom_site_symmetry_multiplicity
  _atom_site_fract_x
  _atom_site_fract_y
  _atom_site_fract_z
  _atom_site_occupancy
  Al  Al1       1.0  0.1130282582149249  0.5018533169383232  0.4989767367184044  1.0000
  Al  Al2       1.0  0.6133277202702203  0.500549298178953  0.5003505073293226  1.0000
  Al  Al3       1.0  0.6222385811286059  0.0006147172949226992  0.0007970129147380994  1.0000
  Al  Al4       1.0  0.12218615661290495  0.9994430776319658  0.001673208527627406  1.0000
  H   H1        1.0  0.563034689622846  0.18700089312969234  0.8025152239730103  1.0000
  H   H2        1.0  0.0694475248981163  0.8021370196686988  0.1862883025984488  1.0000
  H   H3        1.0  0.025153134143174296  0.2110852593189135  0.8075797106051253  1.0000
  H   H4        1.0  0.5304859930399316  0.810568419510915  0.20937348254663143  1.0000
  H   H5        1.0  0.5628055083506425  0.3114723724924957  0.6948096471999463  1.0000
  H   H6        1.0  0.06263652103320541  0.7017237116905406  0.30985818875926435  1.0000
  H   H7        1.0  0.019437471517321104  0.28572159402785496  0.688258969012061  1.0000
  H   H8        1.0  0.5243003369986852  0.6956913876899619  0.2982522175124203  1.0000
  H   H9        1.0  0.29053773306208097  0.2005820203098949  0.37584363202785903  1.0000
  H   H10       1.0  0.9382664547622709  0.8006906934598061  0.6270084684527434  1.0000
  H   H11       1.0  0.3010396526041603  0.11553099087443994  0.2957823792922484  1.0000
  H   H12       1.0  0.9345032469445014  0.8859858124713682  0.7070362520733156  1.0000
  H   H13       1.0  0.16347606304207568  0.07954559175050238  0.18954333140870014  1.0000
  H   H14       1.0  0.0785536408759171  0.9217863217814751  0.8126495123516476  1.0000
  H   H15       1.0  0.6065454494545078  0.1840871597855411  0.08815604568192728  1.0000
  H   H16       1.0  0.6351879106499467  0.8144575115620468  0.9121317610051989  1.0000
  H   H17       1.0  0.4409650015122537  0.29295380283782174  0.1252683019587764  1.0000
  H   H18       1.0  0.7948792764511836  0.7051197492250624  0.874436613605141  1.0000
  H   H19       1.0  0.4440233151008498  0.3867959861081046  0.1985156000120156  1.0000
  H   H20       1.0  0.7851440960393532  0.6111512959000931  0.8011940823110208  1.0000
  H   H21       1.0  0.4468755149734989  0.3471506626120372  0.4359307981473678  1.0000
  H   H22       1.0  0.778619323730375  0.6526309102401767  0.5667827236753523  1.0000
  H   H23       1.0  0.3507725236810515  0.39363949424694056  0.5393743186671073  1.0000
  H   H24       1.0  0.8706814624269796  0.6087786479702756  0.4599498171837979  1.0000
  H   H25       1.0  0.3737935340300639  0.11030661706862332  0.968175915630823  1.0000
  H   H26       1.0  0.8640822011727635  0.8923465221554422  0.008174794319508297  1.0000
  C   C1        1.0  0.36713472936974495  0.5759229570150239  0.5873148324796842  1.0000
  C   C2        1.0  0.8584103331757618  0.42578293251661137  0.4124063967195397  1.0000
  C   C3        1.0  0.3690307049428938  0.6177164585510296  0.39149980385204936  1.0000
  C   C4        1.0  0.859188306688914  0.38207164119882003  0.6062993395260037  1.0000
  C   C5        1.0  0.708722709394408  0.2151680490099962  0.7820680424386025  1.0000
  C   C6        1.0  0.2130990692978614  0.7837967125295363  0.21493661131435718  1.0000
  C   C7        1.0  0.8743584559259361  0.1850367201035823  0.822559972968797  1.0000
  C   C8        1.0  0.38213083513561935  0.8231341345810889  0.18320471428714308  1.0000
  C   C9        1.0  0.7076328239900462  0.2826917967189572  0.7146176857374228  1.0000
  C   C10       1.0  0.20905529187028551  0.720358741781915  0.2849086548944939  1.0000
  C   C11       1.0  0.8702731341266627  0.31220620825279605  0.6737003504650828  1.0000
  C   C12       1.0  0.3741658767163969  0.6820071237503669  0.32081532465420537  1.0000
  C   C13       1.0  0.7222949147486234  0.38991443696191647  0.30278897399865917  1.0000
  C   C14       1.0  0.5039076571526095  0.6098045177674009  0.6975434018923322  1.0000
  C   C15       1.0  0.8602073436105471  0.3770022637830905  0.3606407679070287  1.0000
  C   C16       1.0  0.3654494265001275  0.6237651950711084  0.6397508236995221  1.0000
  C   C17       1.0  0.011294902886461998  0.31723808236834117  0.37118285919442673  1.0000
  C   C18       1.0  0.2152282370150544  0.6837032421683419  0.6300013515235392  1.0000
  C   C19       1.0  0.019871465396107593  0.26703152704331495  0.3264515357564548  1.0000
  C   C20       1.0  0.20966517541600638  0.7337979112808385  0.6749268375818004  1.0000
  C   C21       1.0  0.8671489586757771  0.27545652299139073  0.2718203725190804  1.0000
  C   C22       1.0  0.36445149908487906  0.7249237502246543  0.7289498984326953  1.0000
  C   C23       1.0  0.7150234582472165  0.3370834895680446  0.25988526296082876  1.0000
  C   C24       1.0  0.5142881318306394  0.6624676426322366  0.7405288582597293  1.0000
  C   C25       1.0  0.1743734370800141  0.207068633174039  0.334230011769499  1.0000
  C   C26       1.0  0.056414574165188476  0.7940314343509839  0.6680005220029415  1.0000
  C   C27       1.0  0.18063743069806998  0.15986296627411178  0.2897051879174199  1.0000
  C   C28       1.0  0.0539362799626417  0.8413684994893982  0.7125194227266859  1.0000
  C   C29       1.0  0.031172561623662894  0.16718903975616678  0.2340790248921891  1.0000
  C   C30       1.0  0.20587710741293816  0.8337879760803515  0.7674260593087184  1.0000
  C   C31       1.0  0.8711819166461794  0.22436188319878875  0.22671542181801388  1.0000
  C   C32       1.0  0.3641586258195987  0.7760466975448848  0.7740913422280044  1.0000
  C   C33       1.0  0.7173983150442496  0.2310446140494165  0.17285714516872017  1.0000
  C   C34       1.0  0.5195884626428082  0.7685257436086416  0.827535259256237  1.0000
  C   C35       1.0  0.5613373257911718  0.28986976961230937  0.16504034230715797  1.0000
  C   C36       1.0  0.673317090213963  0.7088214819128279  0.8349746119084429  1.0000
  C   C37       1.0  0.5627263294519622  0.34168642938611526  0.20565060181908726  1.0000
  C   C38       1.0  0.6682187166647747  0.6569463919307522  0.7943988313988583  1.0000
  C   C39       1.0  0.038705681203829584  0.12122625273644869  0.18617718089440416  1.0000
  C   C40       1.0  0.20207310321089267  0.8796902458993683  0.8154958136572715  1.0000
  C   C41       1.0  0.8863099279071632  0.12792002496908586  0.1340051262598223  1.0000
  C   C42       1.0  0.3561202264036395  0.8722282417132873  0.8672719668762312  1.0000
  C   C43       1.0  0.724904129140441  0.18098111039291348  0.12855320801054398  1.0000
  C   C44       1.0  0.5156174076711649  0.8185357413877479  0.8719721119702798  1.0000
  C   C45       1.0  0.38177183911498247  0.8874908449198669  0.11213523807492011  1.0000
  C   C46       1.0  0.8640148647299312  0.1158167080968298  0.8908033777736719  1.0000
  C   C47       1.0  0.3522406557141267  0.9197430282814307  0.9193036987602381  1.0000
  C   C48       1.0  0.89255361835945  0.07980107103780647  0.08255261581243899  1.0000
  C   C49       1.0  0.1691683085381257  0.3098981853461709  0.4296357747104977  1.0000
  C   C50       1.0  0.05525784646655298  0.6914582974422173  0.5721113086824161  1.0000
  I   I1        1.0  0.5486447923554465  0.498778800039915  0.2704980171296967  1.0000
  I   I2        1.0  0.6716108936199844  0.4993791511023318  0.7295921687741398  1.0000
  O   O1        1.0  0.5399420880996787  0.5862899918529718  0.415896606215341  1.0000
  O   O2        1.0  0.024993616634574802  0.4057855050772757  0.574162257477191  1.0000
  O   O3        1.0  0.1979761991581199  0.5472602824821492  0.5734390306420422  1.0000
  O   O4        1.0  0.6922855811146391  0.43012506487256985  0.44211642010017016  1.0000
  O   O5        1.0  0.2021776797822099  0.5970475839481253  0.42346119294241197  1.0000
  O   O6        1.0  0.6877792309028835  0.4144066302050504  0.5845477781166366  1.0000
  O   O7        1.0  0.027252896382257998  0.45589045484422286  0.42491628523899283  1.0000
  O   O8        1.0  0.5343985292813045  0.5708160406365221  0.5585784960269393  1.0000
  O   O9        1.0  0.3599099305749434  0.44977054001957123  0.5056754968294613  1.0000
  O   O10       1.0  0.8657542559843064  0.5526620165887621  0.49378797275159053  1.0000
  O   O11       1.0  0.1840730408392446  0.9482020493895928  0.9293824803478046  1.0000
  O   O12       1.0  0.7275423468029983  0.07398508330374648  0.049382234352023595  1.0000
  O   O13       1.0  0.5531533666780462  0.9214530404325388  0.09142162241748508  1.0000
  O   O14       1.0  0.03144832250650611  0.09610824280684944  0.9253240131605551  1.0000
  O   O15       1.0  0.5191501274406534  0.9267008031625819  0.9511492348935916  1.0000
  O   O16       1.0  0.05965175435584058  0.0495972573495251  0.0739417411849104  1.0000
  O   O17       1.0  0.6922820865647593  0.08166964266219158  0.9104521000785724  1.0000
  O   O18       1.0  0.21556951816573638  0.9043417652774011  0.07665156778635657  1.0000
  O   O19       1.0  0.37441369394595375  0.05109520089408895  0.99336717183359  1.0000
  O   O20       1.0  0.8689705214517999  0.9493862550674664  0.008164201189110494  1.0000
  O   O21       1.0  0.1378403351446309  0.2836084779852611  0.4939450705113586  1.0000
  O   O22       1.0  0.3502712805362904  0.3363816659749758  0.4005668507968423  1.0000
  O   O23       1.0  0.083619463703279  0.7194961447136663  0.5076980285383712  1.0000
  O   O24       1.0  0.8761196527000409  0.6631246586945422  0.6020379293835846  1.0000
