data_image0
_chemical_formula_structural       Al2H4C20S2Cl4O10F2
_chemical_formula_sum              "Al2 H4 C20 S2 Cl4 O10 F2"
_cell_length_a       6.628797131110286
_cell_length_b       11.192185316570313
_cell_length_c       12.754059890445193
_cell_angle_alpha    81.46368901718347
_cell_angle_beta     74.69225120039245
_cell_angle_gamma    71.72331000136039

_space_group_name_H-M_alt    "P 1"
_space_group_IT_number       1

loop_
  _space_group_symop_operation_xyz
  'x, y, z'

loop_
  _atom_site_type_symbol
  _atom_site_label
  _atom_site_symmetry_multiplicity
  _atom_site_fract_x
  _atom_site_fract_y
  _atom_site_fract_z
  _atom_site_occupancy
  Al  Al1       1.0  0.4942397814630227  0.49993452047456094  0.5015619013996188  1.0000
  Al  Al2       1.0  0.9942213437307361  0.5020234758180209  0.5000498007940166  1.0000
  H   H1        1.0  0.2849365920825735  0.3511099351465034  0.5726772022848791  1.0000
  H   H2        1.0  0.7667821266622284  0.5799761986858273  0.37117232695872104  1.0000
  H   H3        1.0  0.22544459444190315  0.2383910714328721  0.3551712045488955  1.0000
  H   H4        1.0  0.45323564342437084  0.7698820248500767  0.3656208040281541  1.0000
  C   C1        1.0  0.8561136844441252  0.2738769450156865  0.49652305226906185  1.0000
  C   C2        1.0  0.6541741166271251  0.5031278058473063  0.6937689582696508  1.0000
  C   C3        1.0  0.13317851067517253  0.7246220474604783  0.5080867623242895  1.0000
  C   C4        1.0  0.3351329846382428  0.5052443829260581  0.303893345390712  1.0000
  C   C5        1.0  0.4146858944482689  0.47459683753766774  0.8848267276130101  1.0000
  C   C6        1.0  0.5732496936728853  0.5384291060205156  0.1129235049866182  1.0000
  C   C7        1.0  0.5899886293037967  0.5062178011685603  0.8124831635677269  1.0000
  C   C8        1.0  0.39783050586110147  0.5066328794469757  0.18511799505093757  1.0000
  C   C9        1.0  0.5811811931637366  0.5276551428386399  0.002998587626727598  1.0000
  C   C10       1.0  0.40662146564629603  0.4864886832131674  0.9944941336697822  1.0000
  C   C11       1.0  0.9300797822303081  0.1325107583334102  0.4989575809141442  1.0000
  C   C12       1.0  0.1331383205303567  0.06934426494470358  0.43040979222239173  1.0000
  C   C13       1.0  0.8010455448810205  0.0637044799510988  0.5689462918244389  1.0000
  C   C14       1.0  0.2715786125172314  0.1359282837382949  0.3589402663523558  1.0000
  C   C15       1.0  0.46897362914096874  0.07271175402278367  0.29505212705223033  1.0000
  C   C16       1.0  0.06195311658636631  0.8660376714698047  0.5054744153673099  1.0000
  C   C17       1.0  0.8670962842324884  0.9294765519927497  0.57234811145468  1.0000
  C   C18       1.0  0.19938492225136187  0.9342726781673106  0.433659722501865  1.0000
  C   C19       1.0  0.4001238734989842  0.8720981142548965  0.36479940732220933  1.0000
  C   C20       1.0  0.5340067417497494  0.9386789839866196  0.29777746493556384  1.0000
  S   S1        1.0  0.750447166560228  0.5509765329695214  0.8786937670546423  1.0000
  S   S2        1.0  0.23717990529036836  0.46288105642023686  0.11845242797759428  1.0000
  Cl  Cl1       1.0  0.7078802211339978  0.8474671018190065  0.6635017982130336  1.0000
  Cl  Cl2       1.0  0.5644628393892077  0.1379327737789211  0.6587274759917535  1.0000
  Cl  Cl3       1.0  0.6364426896502807  0.156865736909765  0.21258946421909286  1.0000
  Cl  Cl4       1.0  0.779786081992775  0.8578151655380138  0.21861874500623202  1.0000
  O   O1        1.0  0.6710224272472873  0.32844140982811604  0.4750688689763294  1.0000
  O   O2        1.0  0.834619619258781  0.5265274535102833  0.6469006691470227  1.0000
  O   O3        1.0  0.008948166082852671  0.672329268287001  0.4837566666789924  1.0000
  O   O4        1.0  0.46165908525605914  0.5295683040942762  0.3523123598033564  1.0000
  O   O5        1.0  0.31712959020099873  0.6687624560543314  0.530479625090564  1.0000
  O   O6        1.0  0.15465368586985323  0.4800952577458232  0.3493665453142611  1.0000
  O   O7        1.0  0.9845150849136958  0.32718018492689543  0.51644862659402  1.0000
  O   O8        1.0  0.5282258639551358  0.47617424058351804  0.6470725644512996  1.0000
  O   O9        1.0  0.2529663496744591  0.43937316180108615  0.5461629571281321  1.0000
  O   O10       1.0  0.7400236632787057  0.5578082095434597  0.4491187619546224  1.0000
  F   F1        1.0  0.2674803594451661  0.43437202969600713  0.856032401465356  1.0000
  F   F2        1.0  0.7214059264674687  0.5771349049834099  0.1427472596647519  1.0000
