data_image0
_chemical_formula_structural       Al2H18C48Br6O12
_chemical_formula_sum              "Al2 H18 C48 Br6 O12"
_cell_length_a       4.015981780405136
_cell_length_b       29.01419911730692
_cell_length_c       29.014764091802256
_cell_angle_alpha    119.99656768887036
_cell_angle_beta     89.99888490126068
_cell_angle_gamma    89.99741980411778

_space_group_name_H-M_alt    "P 1"
_space_group_IT_number       1

loop_
  _space_group_symop_operation_xyz
  'x, y, z'

loop_
  _atom_site_type_symbol
  _atom_site_label
  _atom_site_symmetry_multiplicity
  _atom_site_fract_x
  _atom_site_fract_y
  _atom_site_fract_z
  _atom_site_occupancy
  Al  Al1       1.0  0.005987130307587999  0.499984690551294  0.49999571808140075  1.0000
  Al  Al2       1.0  0.0060618139753785  0.16665053851145456  0.8333513525551125  1.0000
  H   H1        1.0  0.2067470877153568  0.1785902073501619  0.698441147477773  1.0000
  H   H2        1.0  0.2136999006851852  0.22804095796377777  0.6483788145047313  1.0000
  H   H3        1.0  0.781821547478245  0.3034505637659564  0.8237602466314582  1.0000
  H   H4        1.0  0.7808320592810886  0.3631110284361583  0.509499153432827  1.0000
  H   H5        1.0  0.20754220714827204  0.48813934764245204  0.6349911852332041  1.0000
  H   H6        1.0  0.21452621098919172  0.438685712964734  0.6850514470734197  1.0000
  H   H7        1.0  0.20680103576751924  0.019806917791093864  0.8214069687394527  1.0000
  H   H8        1.0  0.2137332654535697  0.9202975330870231  0.771954608028281  1.0000
  H   H9        1.0  0.7817271784768353  0.02027687170382111  0.6965240450140796  1.0000
  H   H10       1.0  0.7808417477588919  0.6463553262991156  0.636852921254892  1.0000
  H   H11       1.0  0.2075256362185272  0.6468332433698052  0.511837670739183  1.0000
  H   H12       1.0  0.2145312933185934  0.7463403416538837  0.5612790266169226  1.0000
  H   H13       1.0  0.2067690343208213  0.301577440790915  0.9801559973618267  1.0000
  H   H14       1.0  0.21360624238485568  0.3516673573761651  0.07966368137893909  1.0000
  H   H15       1.0  0.7816891016646395  0.17626079401708955  0.9797686138047721  1.0000
  H   H16       1.0  0.780182578077941  0.4905705649473975  0.35362563397183777  1.0000
  H   H17       1.0  0.20772447418503506  0.3650098564096211  0.3531663158833424  1.0000
  H   H18       1.0  0.21447195645461647  0.31497721238712023  0.25365609229678643  1.0000
  C   C1        1.0  0.5045519523969445  0.4591860452912115  0.4183393821706359  1.0000
  C   C2        1.0  0.5045886687575704  0.45915211203408307  0.5408234252270248  1.0000
  C   C3        1.0  0.5045695837231959  0.5816455941633194  0.5408248017915438  1.0000
  C   C4        1.0  0.5046635033839734  0.20749429132172995  0.7925272759448632  1.0000
  C   C5        1.0  0.5046701417469491  0.08498881886599456  0.7924999799586203  1.0000
  C   C6        1.0  0.5046628663284167  0.2074766816847528  0.9150129171720137  1.0000
  C   C7        1.0  0.4972204217688585  0.23779202536598376  0.7636548060780796  1.0000
  C   C8        1.0  0.33350360391806794  0.2167284260895457  0.7145274530555881  1.0000
  C   C9        1.0  0.3359339119657321  0.24432192612980685  0.6869301799541603  1.0000
  C   C10       1.0  0.4892320812794395  0.2948069831395088  0.7085796579633977  1.0000
  C   C11       1.0  0.6418182397272005  0.3161019448176603  0.7591382610219738  1.0000
  C   C12       1.0  0.653578951048658  0.28751972089127514  0.7857707190091502  1.0000
  C   C13       1.0  0.4874169376979013  0.322312409191568  0.6798973715562795  1.0000
  C   C14       1.0  0.4873629681970614  0.34432780249296974  0.653441922414224  1.0000
  C   C15       1.0  0.4891085970006798  0.371836457145605  0.6247632668713691  1.0000
  C   C16       1.0  0.6412424546774675  0.3505072276843038  0.5741643991519112  1.0000
  C   C17       1.0  0.6529703979014629  0.3790783236462759  0.5475256176286578  1.0000
  C   C18       1.0  0.4970839747573734  0.4288491560824924  0.5696874712628244  1.0000
  C   C19       1.0  0.3338371481619404  0.449955440761805  0.6188579077295344  1.0000
  C   C20       1.0  0.33628982979601574  0.42236512339157184  0.6464567774813403  1.0000
  C   C21       1.0  0.497196272826578  0.025823161298717527  0.7621944679722503  1.0000
  C   C22       1.0  0.3335018685851452  0.9977555008654878  0.7832609792858704  1.0000
  C   C23       1.0  0.3359102128876756  0.9425706909214496  0.755666724909595  1.0000
  C   C24       1.0  0.48917073555110585  0.9137384477142234  0.7051754786514123  1.0000
  C   C25       1.0  0.6417554283786443  0.9430109505171911  0.6838822732456503  1.0000
  C   C26       1.0  0.6535054463955136  0.9982167501388447  0.7124610393693371  1.0000
  C   C27       1.0  0.4873486330169996  0.857555311037089  0.6776642120331359  1.0000
  C   C28       1.0  0.4873178025733935  0.8090837596552306  0.65563893888131  1.0000
  C   C29       1.0  0.48909880409465967  0.7529000069682752  0.6281282545745765  1.0000
  C   C30       1.0  0.6412241570997638  0.7236258535100929  0.6494567936535772  1.0000
  C   C31       1.0  0.6529827112799752  0.6684193285100195  0.6208888720977582  1.0000
  C   C32       1.0  0.4970757557930626  0.6408111749781042  0.5711222592728191  1.0000
  C   C33       1.0  0.3338300066995927  0.6688829344544588  0.5500208658725683  1.0000
  C   C34       1.0  0.33629718404030484  0.7240641308611089  0.5776007672731749  1.0000
  C   C35       1.0  0.49716188441554715  0.23636320125540786  0.9741780273117726  1.0000
  C   C36       1.0  0.33345539045830463  0.2854966242875392  0.0022244052942779835  1.0000
  C   C37       1.0  0.3358179633843008  0.3131080292778918  0.05740817787788185  1.0000
  C   C38       1.0  0.48904472144245403  0.2914677136765463  0.08626141103302833  1.0000
  C   C39       1.0  0.6416349094266282  0.24090380334578754  0.05701644090886049  1.0000
  C   C40       1.0  0.6534505393483839  0.2142548840347303  0.001808172893220154  1.0000
  C   C41       1.0  0.4871092317348555  0.3201576702754778  0.1424469062143458  1.0000
  C   C42       1.0  0.48698237787156984  0.3466169786862565  0.1909120735667215  1.0000
  C   C43       1.0  0.48869232405002094  0.375300683716759  0.24709689338537538  1.0000
  C   C44       1.0  0.6406428519311831  0.4259109280897633  0.2763623005015886  1.0000
  C   C45       1.0  0.6524528309811757  0.4525368222594963  0.3315678692735274  1.0000
  C   C46       1.0  0.49683373368345934  0.4303502216605679  0.3591767934589  1.0000
  C   C47       1.0  0.33375486527254583  0.3811672687738223  0.33111378811278047  1.0000
  C   C48       1.0  0.3360910146773151  0.3535830638760659  0.27592896452939186  1.0000
  Br  Br1       1.0  0.8371150560650733  0.3847870577804288  0.7913591643014826  1.0000
  Br  Br2       1.0  0.8360519983179416  0.2817836007438785  0.541909436274949  1.0000
  Br  Br3       1.0  0.8370329777599466  0.9065485404928921  0.6151911082254312  1.0000
  Br  Br4       1.0  0.8360654085114732  0.7600843218134657  0.7181751354363753  1.0000
  Br  Br5       1.0  0.8368301297769777  0.20869767612674653  0.0935087657810456  1.0000
  Br  Br6       1.0  0.8351729933183805  0.4581856942477458  0.23989212588943323  1.0000
  O   O1        1.0  0.7420487064344314  0.5585610045703079  0.5506579724312032  1.0000
  O   O2        1.0  0.7420911976871664  0.4920825390419027  0.44141483038488616  1.0000
  O   O3        1.0  0.7420685568917521  0.4493213692470234  0.5079083752584167  1.0000
  O   O4        1.0  0.27268951084818144  0.5579322440283789  0.5069212468028892  1.0000
  O   O5        1.0  0.2726842485138262  0.493059790696357  0.5510140671048376  1.0000
  O   O6        1.0  0.27274066101609407  0.44898076100239603  0.4420607911869253  1.0000
  O   O7        1.0  0.7421232906481592  0.1745556429280769  0.891928624710573  1.0000
  O   O8        1.0  0.7421110691051782  0.21732269633211126  0.8254457390654223  1.0000
  O   O9        1.0  0.7421408818314819  0.1080788660350008  0.782674833924311  1.0000
  O   O10       1.0  0.2727394868910197  0.21766124771362866  0.8912945032532774  1.0000
  O   O11       1.0  0.27276075959125734  0.1087016476408279  0.8264056337731844  1.0000
  O   O12       1.0  0.2727560574102057  0.17359114417043747  0.7823378159987442  1.0000
