data_image0
_chemical_formula_structural       Zn2H28C48N8O8
_chemical_formula_sum              "Zn2 H28 C48 N8 O8"
_cell_length_a       7.888858519899027
_cell_length_b       11.372605051923642
_cell_length_c       11.60296404816577
_cell_angle_alpha    66.88163097474585
_cell_angle_beta     88.75414742177949
_cell_angle_gamma    81.38550711106427

_space_group_name_H-M_alt    "P 1"
_space_group_IT_number       1

loop_
  _space_group_symop_operation_xyz
  'x, y, z'

loop_
  _atom_site_type_symbol
  _atom_site_label
  _atom_site_symmetry_multiplicity
  _atom_site_fract_x
  _atom_site_fract_y
  _atom_site_fract_z
  _atom_site_occupancy
  Zn  Zn1       1.0  0.3600878207082162  0.3714289536556308  0.03661952297900228  1.0000
  Zn  Zn2       1.0  0.6399123571926993  0.6285721953287791  0.9633799100679922  1.0000
  H   H1        1.0  0.06386708514475711  0.41715763882254453  0.18050934281324515  1.0000
  H   H2        1.0  0.9361334678933345  0.5828415790150957  0.8194899590328147  1.0000
  H   H3        1.0  0.7469099473449107  0.3544485352648649  0.16679252724973992  1.0000
  H   H4        1.0  0.25309423252920044  0.6455516261301214  0.833208076457467  1.0000
  H   H5        1.0  0.20354402823009826  0.7386001414648719  0.5844953993927646  1.0000
  H   H6        1.0  0.7964552657956363  0.26139907385073263  0.41550564856929373  1.0000
  H   H7        1.0  0.4429166898720638  0.824170982377737  0.6465538827823067  1.0000
  H   H8        1.0  0.55708424826787  0.17582629642456737  0.3534470144251358  1.0000
  H   H9        1.0  0.728542208510163  0.81100709612096  0.5503572166616949  1.0000
  H   H10       1.0  0.2714583445279288  0.1889921217166801  0.4496420851843652  1.0000
  H   H11       1.0  0.7752314620889537  0.7102672294707019  0.39481634773214586  1.0000
  H   H12       1.0  0.2247674468349317  0.28973392488023825  0.6051831048685373  1.0000
  H   H13       1.0  0.09375340453240003  0.6281513730149086  0.46090125593060793  1.0000
  H   H14       1.0  0.9062469634282737  0.3718488084239765  0.5390985431564985  1.0000
  H   H15       1.0  0.6643974235509732  0.6075567760273018  0.2672316270413333  1.0000
  H   H16       1.0  0.3356012903308141  0.39244534981345675  0.7327665962380793  1.0000
  H   H17       1.0  0.550370558610446  0.9984800108812308  0.8184506469311331  1.0000
  H   H18       1.0  0.44962911055245774  0.0015172732876109997  0.18155026982999808  1.0000
  H   H19       1.0  0.6900566387246061  0.9163571688000686  0.6677473124978094  1.0000
  H   H20       1.0  0.3099455783570378  0.083640096747132  0.332255291718262  1.0000
  H   H21       1.0  0.993735848389399  0.9431296897743238  0.6115816291270946  1.0000
  H   H22       1.0  0.006263250594237499  0.05687049703109891  0.38841818951370044  1.0000
  H   H23       1.0  0.15677326629614902  0.056035997123480306  0.7055456025837756  1.0000
  H   H24       1.0  0.8432252625082273  0.943967092318516  0.29445311793668344  1.0000
  H   H25       1.0  0.5630945560221721  0.11394121930584329  0.9620129579806403  1.0000
  H   H26       1.0  0.43690123978604595  0.886062852359039  0.03798457232592502  1.0000
  H   H27       1.0  0.16885787539087005  0.17197779842147298  0.847695032382326  1.0000
  H   H28       1.0  0.8311410335330154  0.828023355929467  0.152304420218357  1.0000
  C   C1        1.0  0.3277308031772037  0.7358881909369615  0.541576523653319  1.0000
  C   C2        1.0  0.6722695647834701  0.2641119905019238  0.4584232754337876  1.0000
  C   C3        1.0  0.4607257141427611  0.7834189621904386  0.575384599480607  1.0000
  C   C4        1.0  0.5392748388953309  0.21658025564720867  0.42461470236545307  1.0000
  C   C5        1.0  0.6228313144107177  0.7759175356874478  0.5209840110653233  1.0000
  C   C6        1.0  0.3771703225269931  0.2240826403848999  0.47901576846809496  1.0000
  C   C7        1.0  0.6495597015569745  0.7213850450302813  0.4337981738963705  1.0000
  C   C8        1.0  0.3504408514811175  0.2786141728073588  0.5662011279496966  1.0000
  C   C9        1.0  0.5143547906818143  0.6727767364705528  0.396037452255122  1.0000
  C   C10       1.0  0.48564596238070135  0.32722150593298943  0.6039639421933599  1.0000
  C   C11       1.0  0.3498471061390589  0.6796067420142152  0.45137813549664674  1.0000
  C   C12       1.0  0.6501519978269175  0.3203934408469209  0.5486225464253067  1.0000
  C   C13       1.0  0.21664443670137964  0.6284765524011106  0.4162195693750377  1.0000
  C   C14       1.0  0.783356121319045  0.371522661492243  0.5837805957521809  1.0000
  C   C15       1.0  0.24305100832282997  0.5723400412768951  0.32956866579049665  1.0000
  C   C16       1.0  0.7569495447152619  0.4276591765607448  0.6704306360555634  1.0000
  C   C17       1.0  0.40599902611405286  0.5668994224532753  0.2742844659193295  1.0000
  C   C18       1.0  0.594002615805991  0.4331007496747857  0.7257161768952473  1.0000
  C   C19       1.0  0.5392232046335437  0.615916049414551  0.3075267151771897  1.0000
  C   C20       1.0  0.46077589933243257  0.38408413344658493  0.6924739667447639  1.0000
  C   C21       1.0  0.4303658062844705  0.5081828668406912  0.1830733057596916  1.0000
  C   C22       1.0  0.569633292699166  0.4918173199647313  0.8169265128811035  1.0000
  C   C23       1.0  0.10521864902372613  0.5158686198309254  0.295515632952835  1.0000
  C   C24       1.0  0.8947819040143585  0.48413059800672203  0.7044836688932321  1.0000
  C   C25       1.0  0.6819388616389264  0.012526895669999795  0.7931869389512585  1.0000
  C   C26       1.0  0.3180604373691409  0.9874723157013252  0.20681497229195853  1.0000
  C   C27       1.0  0.7606628294713503  0.966152105455606  0.7093695518397071  1.0000
  C   C28       1.0  0.23933900250844434  0.0338470991269304  0.2906314570149817  1.0000
  C   C29       1.0  0.9328225500262096  0.9818566109104481  0.6773187437351993  1.0000
  C   C30       1.0  0.0671778179344642  0.0181435705284372  0.3226810553519073  1.0000
  C   C31       1.0  0.023988515064658596  0.044275918330576806  0.7293954219466627  1.0000
  C   C32       1.0  0.9760080459649104  0.9557242792079136  0.27060443580150206  1.0000
  C   C33       1.0  0.9470057528607329  0.09362801610117089  0.8166063581324751  1.0000
  C   C34       1.0  0.05299207714587342  0.9063721760707891  0.18339348006200135  1.0000
  C   C35       1.0  0.7720025402880923  0.07698995189296198  0.8495109046234859  1.0000
  C   C36       1.0  0.22799528971851404  0.9230102402789908  0.15048893357099766  1.0000
  C   C37       1.0  0.6957474956656782  0.1241316129243799  0.9369088860421543  1.0000
  C   C38       1.0  0.3042521070736441  0.8758724426408905  0.06308858560335281  1.0000
  C   C39       1.0  0.7880814498272599  0.18573632081954364  0.9908342382465207  1.0000
  C   C40       1.0  0.21191599507750425  0.8142658103877524  0.009164004586580137  1.0000
  C   C41       1.0  0.9598787654484227  0.20373779288993182  0.9574027126870845  1.0000
  C   C42       1.0  0.04012033851755353  0.7962623899711971  0.04259796923486185  1.0000
  C   C43       1.0  0.037159377360410396  0.1574633918941188  0.8717984610712577  1.0000
  C   C44       1.0  0.9628397166408931  0.8425367988555836  0.12820049428837865  1.0000
  C   C45       1.0  0.7116039565872615  0.23850042731243093  0.07815727171444556  1.0000
  C   C46       1.0  0.2883960312539033  0.7615016892175035  0.9218417952924439  1.0000
  C   C47       1.0  0.051027395251445326  0.2724261166892176  0.013566781733352708  1.0000
  C   C48       1.0  0.9489731627689793  0.7275730972041359  0.986433383393873  1.0000
  N   N1        1.0  0.30445812346839324  0.45727051050488415  0.15530213331881976  1.0000
  N   N2        1.0  0.6955411655749943  0.542728708755007  0.8446980513620801  1.0000
  N   N3        1.0  0.15006962280596534  0.45946602240808687  0.21195581565780236  1.0000
  N   N4        1.0  0.8499309352144593  0.5405331914852739  0.7880443494694233  1.0000
  N   N5        1.0  0.8102814637962795  0.30013140527235294  0.12136200192078658  1.0000
  N   N6        1.0  0.18971852902722472  0.6998707073132948  0.8786379283672545  1.0000
  N   N7        1.0  0.9760122435861192  0.3207951327653121  0.09268698423884561  1.0000
  N   N8        1.0  0.023989583411335513  0.6792040757615041  0.9073131613346918  1.0000
  O   O1        1.0  0.5750809384339777  0.5019524403978792  0.1274959717013999  1.0000
  O   O2        1.0  0.42492050844397516  0.4980487032200002  0.8725034417919134  1.0000
  O   O3        1.0  0.9584260378906607  0.5155978365192198  0.3373173822656383  1.0000
  O   O4        1.0  0.04157451514742412  0.4844013813184204  0.6626819195804218  1.0000
  O   O5        1.0  0.5567215808375681  0.2299162690316976  0.11359226666466073  1.0000
  O   O6        1.0  0.4432798710227247  0.7700848706418881  0.886408010109804  1.0000
  O   O7        1.0  0.20712458685785157  0.2858825014157205  0.9816059039890134  1.0000
  O   O8        1.0  0.7928774351817014  0.7141157356212845  0.018395470905794156  1.0000
