data_image0
_chemical_formula_structural       Zn2H38C64S2N2O14
_chemical_formula_sum              "Zn2 H38 C64 S2 N2 O14"
_cell_length_a       12.697940184799348
_cell_length_b       13.656356997070002
_cell_length_c       17.163021314720627
_cell_angle_alpha    89.32940956777043
_cell_angle_beta     87.25997250738364
_cell_angle_gamma    85.67551584399708

_space_group_name_H-M_alt    "P 1"
_space_group_IT_number       1

loop_
  _space_group_symop_operation_xyz
  'x, y, z'

loop_
  _atom_site_type_symbol
  _atom_site_label
  _atom_site_symmetry_multiplicity
  _atom_site_fract_x
  _atom_site_fract_y
  _atom_site_fract_z
  _atom_site_occupancy
  Zn  Zn1       1.0  0.3922325193875124  0.483912499109728  0.5000317807087455  1.0000
  Zn  Zn2       1.0  0.6101369330906508  0.504802871862765  0.505053244224321  1.0000
  H   H1        1.0  0.6801289455644834  0.47571749801501545  0.255487913308123  1.0000
  H   H2        1.0  0.3183924021194641  0.5796236019826111  0.7379449612111274  1.0000
  H   H3        1.0  0.6248289268413812  0.5587305890478049  0.9973869535170864  1.0000
  H   H4        1.0  0.3822599475401062  0.5894489521116313  0.005387884067481304  1.0000
  H   H5        1.0  0.31600194383450025  0.6183177135197155  0.8803193244659938  1.0000
  H   H6        1.0  0.6934692582167867  0.5032286401204971  0.11101528014179252  1.0000
  H   H7        1.0  0.7495243547004333  0.4829504692623203  0.7311796025756863  1.0000
  H   H8        1.0  0.8821875023746769  0.363152703234384  0.6676032644372896  1.0000
  H   H9        1.0  0.8363195171424421  0.19213625781080887  0.6438036616328803  1.0000
  H   H10       1.0  0.6578361618276174  0.1413305299162175  0.686711629864874  1.0000
  H   H11       1.0  0.5267284887075476  0.2609566011996521  0.7522827530429836  1.0000
  H   H12       1.0  0.4324904358396607  0.7952612322541983  0.2989747442387198  1.0000
  H   H13       1.0  0.2776815197342656  0.8791253019860293  0.37126480335558654  1.0000
  H   H14       1.0  0.11136877363244926  0.7952010361208863  0.3922444864316148  1.0000
  H   H15       1.0  0.10103136830401378  0.6262110477020643  0.3407338072147184  1.0000
  H   H16       1.0  0.2578823171167953  0.5408245584250083  0.272289944571277  1.0000
  H   H17       1.0  0.24231318190476256  0.6345169170386599  0.1367868772915486  1.0000
  H   H18       1.0  0.12628417603632863  0.7627481818277603  0.0736215463249152  1.0000
  H   H19       1.0  0.2011514791394902  0.9137191454375542  0.01833232927305771  1.0000
  H   H20       1.0  0.39384264149944653  0.934329485332718  0.026382970195356806  1.0000
  H   H21       1.0  0.5101459967352255  0.8043327378148889  0.08811003879588951  1.0000
  H   H22       1.0  0.4976285165352365  0.3344886806252704  0.9739646495574235  1.0000
  H   H23       1.0  0.6175631427923989  0.23948963962209294  0.06209128671770973  1.0000
  H   H24       1.0  0.8101578865187591  0.2649191433759626  0.05624940871740589  1.0000
  H   H25       1.0  0.8816205187696724  0.3844312486871999  0.960208761864415  1.0000
  H   H26       1.0  0.7616197376494539  0.4782219346709836  0.8719624956759092  1.0000
  H   H27       1.0  0.2748826174221151  0.9545576581497955  0.5569703485815296  1.0000
  H   H28       1.0  0.10528556581919449  0.05686996138735619  0.5493805674374032  1.0000
  H   H29       1.0  0.08938662704779428  0.19589661489608554  0.45473558896640753  1.0000
  H   H30       1.0  0.24827083206815098  0.23311516028927307  0.3684050265055347  1.0000
  H   H31       1.0  0.41575575908122175  0.1333366908347458  0.3779503346117394  1.0000
  H   H32       1.0  0.7271275633979072  0.039359294405230116  0.5566144074143936  1.0000
  H   H33       1.0  0.8962954275291465  0.9347254082926356  0.5581471270665546  1.0000
  H   H34       1.0  0.9247094441048842  0.7883749309528059  0.4723987777556927  1.0000
  H   H35       1.0  0.7816627491419085  0.7459213610788068  0.3861490716840735  1.0000
  H   H36       1.0  0.612704494331659  0.8483373205113766  0.3867153078727696  1.0000
  H   H37       1.0  0.8675130839769378  0.6655890275646071  0.6499420370654364  1.0000
  H   H38       1.0  0.12836619811710648  0.3423684110372349  0.341841231422606  1.0000
  C   C1        1.0  0.4586835915670662  0.6821033908612366  0.5059258571783829  1.0000
  C   C2        1.0  0.549321972431322  0.308351021003169  0.4944394208923201  1.0000
  C   C3        1.0  0.5654119142694114  0.2032241405008719  0.4878661070377319  1.0000
  C   C4        1.0  0.44433320469480003  0.787547665302789  0.5010000170021911  1.0000
  C   C5        1.0  0.5573815949579668  0.012851721039140802  0.47388025416307755  1.0000
  C   C6        1.0  0.4578672357635227  0.9760687561158009  0.47538508148249997  1.0000
  C   C7        1.0  0.44984663000283825  0.8751374360543238  0.48840987571680466  1.0000
  C   C8        1.0  0.563994595448527  0.1147382718779539  0.47969922499012807  1.0000
  C   C9        1.0  0.03686245698013118  0.4804790265946792  0.47229324459362243  1.0000
  C   C10       1.0  0.9647347913215112  0.523128518266745  0.5269247822794298  1.0000
  C   C11       1.0  0.8557758084224715  0.5262109395477809  0.519180617633097  1.0000
  C   C12       1.0  0.1457611605993705  0.47338444012586234  0.48105050103153957  1.0000
  C   C13       1.0  0.4754707969282421  0.4874619577380201  0.6524522286853411  1.0000
  C   C14       1.0  0.519455177894322  0.5214836420275475  0.35352788700372173  1.0000
  C   C15       1.0  0.4681201501021235  0.49474762765182595  0.7395539413443759  1.0000
  C   C16       1.0  0.5266556815113288  0.5523978634264852  0.2694667931471529  1.0000
  C   C17       1.0  0.5487660998090006  0.45082693360681253  0.7852478349599892  1.0000
  C   C18       1.0  0.44731491054333355  0.6142282024426962  0.2343449360703929  1.0000
  C   C19       1.0  0.5460032173036566  0.4693625821177605  0.8657954622646928  1.0000
  C   C20       1.0  0.4575842439975091  0.6350178171383476  0.1537744894223323  1.0000
  C   C21       1.0  0.4644284064199837  0.5358948001028024  0.8994144535023523  1.0000
  C   C22       1.0  0.5429868850977043  0.5879880857472628  0.108139034891515  1.0000
  C   C23       1.0  0.38069439646294967  0.5714730304917452  0.8531681233313864  1.0000
  C   C24       1.0  0.6259232442185335  0.5354124192989573  0.14610862778149422  1.0000
  C   C25       1.0  0.3820309025393342  0.5509960485114931  0.7742503985998682  1.0000
  C   C26       1.0  0.617831392008412  0.5181804941089609  0.2256277193599701  1.0000
  C   C27       1.0  0.4611665045486148  0.5690221281075695  0.9797240079552978  1.0000
  C   C28       1.0  0.546101461044948  0.5766060353449802  0.024009211479480517  1.0000
  C   C29       1.0  0.6301936348803707  0.37943718776345753  0.7476990542172217  1.0000
  C   C30       1.0  0.7304615417164725  0.4073703013846384  0.723019408985202  1.0000
  C   C31       1.0  0.8043212684599865  0.3402951223630453  0.6862799941284764  1.0000
  C   C32       1.0  0.7788043492992356  0.24425086705984714  0.6732502437177885  1.0000
  C   C33       1.0  0.6789802729082905  0.2158642572846503  0.6972070426974426  1.0000
  C   C34       1.0  0.605028867091356  0.28310344823453454  0.734140447863517  1.0000
  C   C35       1.0  0.35533181333776287  0.6625695048989684  0.280568446023743  1.0000
  C   C36       1.0  0.35992842430525934  0.7578909149373702  0.30865014605554114  1.0000
  C   C37       1.0  0.2726465091355266  0.8052923973585282  0.3489406962718178  1.0000
  C   C38       1.0  0.17951903298775557  0.758093364670131  0.3609563850186461  1.0000
  C   C39       1.0  0.17417832493391217  0.6630367100634516  0.3327211840019757  1.0000
  C   C40       1.0  0.26155245137537964  0.6155149244040317  0.29325769412534447  1.0000
  C   C41       1.0  0.38441910663127027  0.7101967243079343  0.11658774420969562  1.0000
  C   C42       1.0  0.27572327761686927  0.6999769314408653  0.11233953742248562  1.0000
  C   C43       1.0  0.2104607722396565  0.7723773190710262  0.07678701451747123  1.0000
  C   C44       1.0  0.25241978283273164  0.8569364533923932  0.045683286720674204  1.0000
  C   C45       1.0  0.3603857381479756  0.868317734426249  0.050041773082710996  1.0000
  C   C46       1.0  0.42584061498176606  0.7952798969004036  0.08472298601131462  1.0000
  C   C47       1.0  0.6212956803151426  0.4128242390154425  0.916690321687291  1.0000
  C   C48       1.0  0.582068006349786  0.3449934916099338  0.9708457810589266  1.0000
  C   C49       1.0  0.6494594867322974  0.291852691413311  0.020461561521393896  1.0000
  C   C50       1.0  0.7574800198138476  0.3059343878571781  0.017130388200719406  1.0000
  C   C51       1.0  0.7974619359558447  0.3728719751424806  0.9632938719648009  1.0000
  C   C52       1.0  0.7300244613787397  0.42545583500589157  0.9132517178560846  1.0000
  C   C53       1.0  0.357634714070457  0.038051912972669306  0.4692876501986163  1.0000
  C   C54       1.0  0.26836252939457234  0.01647017497485591  0.5163165136997634  1.0000
  C   C55       1.0  0.17323552181456847  0.07366393073363041  0.5116238475175905  1.0000
  C   C56       1.0  0.164530076029628  0.15219052930037696  0.4587073175751115  1.0000
  C   C57       1.0  0.2524051327323136  0.1727176302231683  0.4108344173550549  1.0000
  C   C58       1.0  0.3481984280837338  0.11667368735281511  0.4159009139388417  1.0000
  C   C59       1.0  0.6576303370487365  0.9498191285127576  0.47294944509047104  1.0000
  C   C60       1.0  0.739275919512849  0.9741641203920894  0.5201424309400906  1.0000
  C   C61       1.0  0.8340005279659547  0.9155685475915903  0.5206948161598604  1.0000
  C   C62       1.0  0.8496881804119809  0.8330462171348286  0.4727287346659352  1.0000
  C   C63       1.0  0.7697989325046352  0.8093766165527113  0.4244518365915084  1.0000
  C   C64       1.0  0.6743632072962668  0.8670132159419452  0.4247369724503471  1.0000
  S   S1        1.0  0.009709887273672299  0.581533702892486  0.6120993093595786  1.0000
  S   S2        1.0  0.9897322076937555  0.42652870822711014  0.3858604599661888  1.0000
  N   N1        1.0  0.23697022305184837  0.4646971274522683  0.48712391518632353  1.0000
  N   N2        1.0  0.7643312241350628  0.5295404866121771  0.5148048522132882  1.0000
  O   O1        1.0  0.3785647297910941  0.6333569364026702  0.5209212740882238  1.0000
  O   O2        1.0  0.6272450603690984  0.3555464382136435  0.5123207213756586  1.0000
  O   O3        1.0  0.5543525508791376  0.6486356782472454  0.4929378716823223  1.0000
  O   O4        1.0  0.45583875548260266  0.34325946683090797  0.4810635866013442  1.0000
  O   O5        1.0  0.39583923901000156  0.4610914243288421  0.6182315590122869  1.0000
  O   O6        1.0  0.6065670831970704  0.500135973149149  0.3859674535773935  1.0000
  O   O7        1.0  0.5613328804490294  0.5136537809815422  0.6201910692611747  1.0000
  O   O8        1.0  0.42751013361599627  0.5168356982778235  0.3855615350745154  1.0000
  O   O9        1.0  0.07272664424436207  0.509202408223679  0.6534933470703025  1.0000
  O   O10       1.0  0.047056150484252206  0.6739749749951045  0.5870731195235166  1.0000
  O   O11       1.0  0.9008684541382692  0.6005035435065268  0.6626544156267684  1.0000
  O   O12       1.0  0.9520710096164535  0.3331541442900062  0.40791935885054903  1.0000
  O   O13       1.0  0.9260293547910619  0.501572577880296  0.34775957529982554  1.0000
  O   O14       1.0  0.09721594520498657  0.4095108788728724  0.3335170002112023  1.0000
