data_image0
_chemical_formula_structural       Zn8H96C164S8N8O32F24
_chemical_formula_sum              "Zn8 H96 C164 S8 N8 O32 F24"
_cell_length_a       10.98642171815876
_cell_length_b       21.84511618457173
_cell_length_c       23.638583914026146
_cell_angle_alpha    67.95747499665043
_cell_angle_beta     78.45763485014801
_cell_angle_gamma    75.06434886956406

_space_group_name_H-M_alt    "P 1"
_space_group_IT_number       1

loop_
  _space_group_symop_operation_xyz
  'x, y, z'

loop_
  _atom_site_type_symbol
  _atom_site_label
  _atom_site_symmetry_multiplicity
  _atom_site_fract_x
  _atom_site_fract_y
  _atom_site_fract_z
  _atom_site_occupancy
  Zn  Zn1       1.0  0.8913782313008769  0.4387375548739954  0.8064138968920033  1.0000
  Zn  Zn2       1.0  0.10862546748181502  0.5612632126451373  0.19358540093985968  1.0000
  Zn  Zn3       1.0  0.8576923549834421  0.3917316335232641  0.9391364151255884  1.0000
  Zn  Zn4       1.0  0.14231093278930732  0.6082676277671553  0.0608642851381518  1.0000
  Zn  Zn5       1.0  0.8799644452612373  0.8891599005244755  0.9333971238436405  1.0000
  Zn  Zn6       1.0  0.12002622432021333  0.11084345747021022  0.06660326462930748  1.0000
  Zn  Zn7       1.0  0.9127729621807816  0.9399926246691096  0.7996349128811601  1.0000
  Zn  Zn8       1.0  0.0872225510534932  0.060007685952172096  0.20036483556444296  1.0000
  H   H1        1.0  0.8716544082128692  0.07055403188115149  0.9714925412229078  1.0000
  H   H2        1.0  0.1283550485520308  0.9294487164456484  0.028506837968116403  1.0000
  H   H3        1.0  0.8975046865837798  0.6874792374801117  0.9593638523681703  1.0000
  H   H4        1.0  0.10249898923967755  0.3125215309315124  0.04063629330060789  1.0000
  H   H5        1.0  0.9054759531965928  0.1423364310237076  0.7744166929443779  1.0000
  H   H6        1.0  0.09453815159510282  0.8576612582222649  0.2255823352351385  1.0000
  H   H7        1.0  0.9130738659104196  0.2580467975747709  0.7724196370925611  1.0000
  H   H8        1.0  0.08694106917943864  0.7419513873887169  0.2275761857414409  1.0000
  H   H9        1.0  0.8885053646454822  0.762026127999036  0.7641478165206337  1.0000
  H   H10       1.0  0.11149586893078826  0.23797364847501978  0.2358533084762086  1.0000
  H   H11       1.0  0.8783053752097988  0.5738253130248336  0.9645727898885141  1.0000
  H   H12       1.0  0.12169826617480348  0.42617545672553797  0.03542862753563011  1.0000
  H   H13       1.0  0.876787673079285  0.18508951828150086  0.969491185541791  1.0000
  H   H14       1.0  0.12322241007948533  0.8149142307952886  0.030505677801315238  1.0000
  H   H15       1.0  0.8650002858625001  0.6474013425992381  0.7698262816875853  1.0000
  H   H16       1.0  0.1349992554074079  0.35259794077850865  0.23017558472101027  1.0000
  H   H17       1.0  0.7994545821543398  0.22299055317634497  0.15768301549459093  1.0000
  H   H18       1.0  0.20053364197855242  0.777009296587124  0.8423183757431332  1.0000
  H   H19       1.0  0.7618337995612947  0.431290362822658  0.14251333736164173  1.0000
  H   H20       1.0  0.23816968063613325  0.5687083938815435  0.8574870973229661  1.0000
  H   H21       1.0  0.8037829601266111  0.45906304068793696  0.029563038355526306  1.0000
  H   H22       1.0  0.1962264672763397  0.5409346759440721  0.9704372355458233  1.0000
  H   H23       1.0  0.8391880911893209  0.2601656034437312  0.04415619134613987  1.0000
  H   H24       1.0  0.1608034339976072  0.7398327193424521  0.9558467079339789  1.0000
  H   H25       1.0  0.27201713479342265  0.4634158439992717  0.7777967844651384  1.0000
  H   H26       1.0  0.7279934815964708  0.536578843776674  0.22220062420606712  1.0000
  H   H27       1.0  0.2798890277841438  0.8537859025420573  0.9635457441177948  1.0000
  H   H28       1.0  0.7201014952910968  0.1462179582538496  0.0364532142604546  1.0000
  H   H29       1.0  0.2525083384936552  0.35987383116273725  0.9724968717646049  1.0000
  H   H30       1.0  0.7474932946129444  0.6401274519862808  0.027503274718817704  1.0000
  H   H31       1.0  0.4966795896301335  0.4728208355278412  0.77585897683538  1.0000
  H   H32       1.0  0.5033311503067283  0.5271733503393747  0.22414070976743253  1.0000
  H   H33       1.0  0.47326294776666356  0.37308041433898603  0.9712476122432107  1.0000
  H   H34       1.0  0.5267377512526821  0.626918357815093  0.028752637253901942  1.0000
  H   H35       1.0  0.29269556289870025  0.964016176534912  0.7699185434100002  1.0000
  H   H36       1.0  0.7073029781350756  0.035981095525386315  0.2300790284883902  1.0000
  H   H37       1.0  0.09587949220754413  0.05298018635374292  0.5718640081758578  1.0000
  H   H38       1.0  0.9041174717885808  0.9470186074414146  0.42813698354764523  1.0000
  H   H39       1.0  0.7321677916794372  0.3995928269639322  0.242768573268151  1.0000
  H   H40       1.0  0.2678207713843506  0.6004060154120978  0.7572339824851323  1.0000
  H   H41       1.0  0.09315503979473058  0.9611752214660779  0.6735952963885694  1.0000
  H   H42       1.0  0.9068365772291431  0.03882309775011811  0.3264042115438882  1.0000
  H   H43       1.0  0.7423051006972445  0.05440530248591812  0.7356664815537356  1.0000
  H   H44       1.0  0.25768857372446524  0.945595017840283  0.26433257820891487  1.0000
  H   H45       1.0  0.7132792736220638  0.22446387130340628  0.5488553256653718  1.0000
  H   H46       1.0  0.2867197330909193  0.7755344077543639  0.4511456652434945  1.0000
  H   H47       1.0  0.7306204644885028  0.15157962004196435  0.6383287242768247  1.0000
  H   H48       1.0  0.26937745655411055  0.8484216838556334  0.3616713165960802  1.0000
  H   H49       1.0  0.49791027252898373  0.8703607006422726  0.9624130898456045  1.0000
  H   H50       1.0  0.5020757573039348  0.12964519969334987  0.03758724915709881  1.0000
  H   H51       1.0  0.5131597130160872  0.9788231481661781  0.7685356820260907  1.0000
  H   H52       1.0  0.4868367196244705  0.021177157602643597  0.23146441076097804  1.0000
  H   H53       1.0  0.10451789023024818  0.2743925645697799  0.3644940054847368  1.0000
  H   H54       1.0  0.8954790967251115  0.7256062283328786  0.6355061384018583  1.0000
  H   H55       1.0  0.9637180291688522  0.3376495199675773  0.3528429746078387  1.0000
  H   H56       1.0  0.03627918465004142  0.6623487670101157  0.6471556319442512  1.0000
  H   H57       1.0  0.9798750936492129  0.26597444130276676  0.3319180285091362  1.0000
  H   H58       1.0  0.020123547972296853  0.7340223297413003  0.6680826691577761  1.0000
  H   H59       1.0  0.6648179313542499  0.1483020654516594  0.3965112232924212  1.0000
  H   H60       1.0  0.3351873500155308  0.8516941665927219  0.6034911952672104  1.0000
  H   H61       1.0  0.6387510835786898  0.20816500055328652  0.433911690765342  1.0000
  H   H62       1.0  0.3612553555405286  0.7918307202674268  0.5660891108827996  1.0000
  H   H63       1.0  0.7937036565362591  0.16226245240021336  0.42197726796655377  1.0000
  H   H64       1.0  0.20629986957963822  0.8377363025189908  0.5780214710442236  1.0000
  H   H65       1.0  0.7996070797963597  0.711569509667683  0.14549463190075332  1.0000
  H   H66       1.0  0.2003949381596044  0.2884307643088846  0.8545049834244054  1.0000
  H   H67       1.0  0.7591252035721399  0.9158837419277005  0.14187046583452909  1.0000
  H   H68       1.0  0.24088346561171647  0.08411599260294618  0.8581304464648909  1.0000
  H   H69       1.0  0.06973478836841454  0.5327419116308149  0.5750929864707287  1.0000
  H   H70       1.0  0.9302648217791972  0.46725736906944343  0.42490633642712783  1.0000
  H   H71       1.0  0.07111947496172628  0.44902675266362735  0.681191950003317  1.0000
  H   H72       1.0  0.9288801581451267  0.5509725271441326  0.31880652505761725  1.0000
  H   H73       1.0  0.6981969949268747  0.6320829000157316  0.634532789529338  1.0000
  H   H74       1.0  0.30180347722892986  0.3679163780633131  0.3654689973022727  1.0000
  H   H75       1.0  0.7149454595149578  0.5431859995813396  0.7368332099145647  1.0000
  H   H76       1.0  0.2850559779656053  0.45681327186024834  0.2631672255846951  1.0000
  H   H77       1.0  0.683220248943016  0.7012009971683284  0.545038485776324  1.0000
  H   H78       1.0  0.316781930200122  0.29880128985440985  0.45496211228836353  1.0000
  H   H79       1.0  0.855068400077265  0.7537514085338088  0.0326284227933371  1.0000
  H   H80       1.0  0.14492657032182177  0.24625041450738652  0.9673708506342819  1.0000
  H   H81       1.0  0.8165252995332608  0.9490211978223965  0.029090850215546023  1.0000
  H   H82       1.0  0.1834757645775582  0.05097908234538549  0.9709096925235058  1.0000
  H   H83       1.0  0.07941088929590025  0.7481332424575553  0.363054047383649  1.0000
  H   H84       1.0  0.9205864085542004  0.2518695769836938  0.6369484859004686  1.0000
  H   H85       1.0  0.9545511179332569  0.7414828263641767  0.3293862950877084  1.0000
  H   H86       1.0  0.04545569775705627  0.2585144020239908  0.6706143758839289  1.0000
  H   H87       1.0  0.9403780687386246  0.812653504623157  0.3508048640625033  1.0000
  H   H88       1.0  0.05961675195290182  0.1873463049256117  0.649193002707122  1.0000
  H   H89       1.0  0.7173961957270123  0.8803859558679645  0.24058391069422674  1.0000
  H   H90       1.0  0.28261061168503687  0.11961378926009303  0.7594171607591562  1.0000
  H   H91       1.0  0.6438357478611324  0.6263715103595899  0.3840979701402459  1.0000
  H   H92       1.0  0.3561569644371758  0.37363133289770906  0.6159024175180576  1.0000
  H   H93       1.0  0.76443645549044  0.6406602221467992  0.4151233397979154  1.0000
  H   H94       1.0  0.23555303018098084  0.3593411316704119  0.5848795368601357  1.0000
  H   H95       1.0  0.606798234103948  0.6850361662969109  0.4235064083649647  1.0000
  H   H96       1.0  0.39319474269810684  0.3149686859903227  0.5764911467667629  1.0000
  C   C1        1.0  0.8790158054380652  0.11198955069212962  0.9280633758114546  1.0000
  C   C2        1.0  0.12099894042847137  0.8880116551512244  0.0719326891649814  1.0000
  C   C3        1.0  0.8897119167694572  0.6785558062258374  0.9180289615937055  1.0000
  C   C4        1.0  0.11028911290250684  0.32144447528069253  0.0819728529007193  1.0000
  C   C5        1.0  0.8993123589202909  0.15285330587207818  0.8165819530943209  1.0000
  C   C6        1.0  0.10070251877147746  0.847144881322663  0.18341598933196934  1.0000
  C   C7        1.0  0.9034402731142422  0.21631668104393495  0.815444873884246  1.0000
  C   C8        1.0  0.09657654670665751  0.7836814924296364  0.1845499419588775  1.0000
  C   C9        1.0  0.8854742273202235  0.7202095045910964  0.8076062161409254  1.0000
  C   C10       1.0  0.11452365928353463  0.27979180064524906  0.1923950964873455  1.0000
  C   C11       1.0  0.2491760790167988  0.41125122733149055  0.8750778792842767  1.0000
  C   C12       1.0  0.7508307711123695  0.5887459997179291  0.12492151993198769  1.0000
  C   C13       1.0  0.4972994242151075  0.4239314250370541  0.873507297945153  1.0000
  C   C14       1.0  0.5027060840182074  0.5760643010823685  0.12649358327997356  1.0000
  C   C15       1.0  0.8787726985822957  0.6154997111631745  0.9209972416229206  1.0000
  C   C16       1.0  0.1212328160537268  0.3845010475435302  0.079003592728796  1.0000
  C   C17       1.0  0.8817022098203895  0.17567541673278697  0.926931919884076  1.0000
  C   C18       1.0  0.11831049332927542  0.8243263038479538  0.07306414590699724  1.0000
  C   C19       1.0  0.8725129772543952  0.6573088570014319  0.8107513540899304  1.0000
  C   C20       1.0  0.12749176448156166  0.34269140375651125  0.18925056601501206  1.0000
  C   C21       1.0  0.8973894149396602  0.2963001051889193  0.869671928973986  1.0000
  C   C22       1.0  0.10262072241584264  0.7037011253629828  0.13032283821354443  1.0000
  C   C23       1.0  0.6519545286563473  0.9314898748933655  0.864362878235454  1.0000
  C   C24       1.0  0.3480346672040184  0.0685150008199429  0.135637114796495  1.0000
  C   C25       1.0  0.8585392308766732  0.536541599584659  0.8707106216637184  1.0000
  C   C26       1.0  0.14145971843822025  0.4634566817043577  0.12929248883742867  1.0000
  C   C27       1.0  0.5180262380312755  0.9257391473006534  0.8654310935335373  1.0000
  C   C28       1.0  0.481964420070554  0.07426421114028162  0.13456971885786828  1.0000
  C   C29       1.0  0.27323632582651664  0.9079216449975079  0.8665950773309986  1.0000
  C   C30       1.0  0.7267601182936547  0.09207866032506469  0.13340459153761225  1.0000
  C   C31       1.0  0.14128589914693634  0.9001373106208347  0.8666871658371135  1.0000
  C   C32       1.0  0.8587089445038248  0.09986249803544209  0.13330985309559648  1.0000
  C   C33       1.0  0.9050280752973378  0.7986397081585891  0.8592642377442488  1.0000
  C   C34       1.0  0.09496239865807612  0.2013616381286738  0.1407364397445292  1.0000
  C   C35       1.0  0.776875099266583  0.3239214848357507  0.16087590456410075  1.0000
  C   C36       1.0  0.2231211377479384  0.6760768092256482  0.8391244772388048  1.0000
  C   C37       1.0  0.6325038782149833  0.42733713885038316  0.8722449278493373  1.0000
  C   C38       1.0  0.367501980428841  0.5726575794353366  0.12775669397290557  1.0000
  C   C39       1.0  0.8691081685575526  0.6046518332814512  0.8674831999181691  1.0000
  C   C40       1.0  0.13089266868973232  0.39534895281129684  0.13251888015538782  1.0000
  C   C41       1.0  0.7977356245598985  0.2762292395616086  0.13146548833797306  1.0000
  C   C42       1.0  0.20225856973775816  0.7237695692371772  0.8685348942795766  1.0000
  C   C43       1.0  0.8851945050278688  0.0318971825937098  0.8738098936333074  1.0000
  C   C44       1.0  0.11480447044761638  0.9681036140964564  0.12619234559421946  1.0000
  C   C45       1.0  0.7556296744541555  0.30491729018280717  0.2275231420651664  1.0000
  C   C46       1.0  0.2443684160539023  0.6950835100210638  0.7724774810655148  1.0000
  C   C47       1.0  0.11611557757294128  0.40543628296395423  0.8750744863905595  1.0000
  C   C48       1.0  0.8838899944611783  0.5945644735115038  0.1249242283688758  1.0000
  C   C49       1.0  0.8871492788047348  0.100374463951546  0.8729401893769333  1.0000
  C   C50       1.0  0.1128670987687102  0.899624720925722  0.12705727721673543  1.0000
  C   C51       1.0  0.8935740485652631  0.7311122014916122  0.8613819994603347  1.0000
  C   C52       1.0  0.10642716205176582  0.2688875758749489  0.13861997337341586  1.0000
  C   C53       1.0  0.7778667420085559  0.39132432657940086  0.12330560080052069  1.0000
  C   C54       1.0  0.22213599972765513  0.6086739308372842  0.8766946478819477  1.0000
  C   C55       1.0  0.8010644744312857  0.40755022185206957  0.060150848087090564  1.0000
  C   C56       1.0  0.19894063747305082  0.5924465138860383  0.9398509882147578  1.0000
  C   C57       1.0  0.820440870303557  0.2964645155520103  0.06787448937048172  1.0000
  C   C58       1.0  0.17955571712146692  0.7035327706756931  0.9321266330295329  1.0000
  C   C59       1.0  0.31765689051965035  0.4436569510989513  0.819668089989655  1.0000
  C   C60       1.0  0.6823519991250253  0.5563372449194331  0.18033133184867722  1.0000
  C   C61       1.0  0.6890572804747283  0.343864496734767  0.37228195557333527  1.0000
  C   C62       1.0  0.3109357643517612  0.6561323065477965  0.6277196434739449  1.0000
  C   C63       1.0  0.7246553491269978  0.24118872841513192  0.34071881509819946  1.0000
  C   C64       1.0  0.27534568882322935  0.7588090363515007  0.6592825989144728  1.0000
  C   C65       1.0  0.33082917952138746  0.8815845884299239  0.9210009546579483  1.0000
  C   C66       1.0  0.6691627943156959  0.11841775553986615  0.07899924699820822  1.0000
  C   C67       1.0  0.3055955478103841  0.3854992370729207  0.9297328590965961  1.0000
  C   C68       1.0  0.6944064669442157  0.614498520610006  0.07026677966526765  1.0000
  C   C69       1.0  0.4412683330785399  0.44932181645949504  0.8187571237743612  1.0000
  C   C70       1.0  0.5587403182229808  0.5506728859301048  0.1812442593169266  1.0000
  C   C71       1.0  0.42835860978489393  0.39251836366469217  0.9290882209998869  1.0000
  C   C72       1.0  0.5716439165673889  0.6074803992307165  0.07091314109862171  1.0000
  C   C73       1.0  0.33891741394080555  0.9436152875163798  0.8116984290357081  1.0000
  C   C74       1.0  0.6610779413076385  0.05638552635237199  0.18830031323364685  1.0000
  C   C75       1.0  0.015048828873780503  0.0560169190999673  0.6066147140222427  1.0000
  C   C76       1.0  0.9849479656569003  0.9439823783889169  0.3933856954434772  1.0000
  C   C77       1.0  0.7343394877703133  0.3456477963984383  0.2625779617446468  1.0000
  C   C78       1.0  0.2656514831018129  0.654352039253908  0.7374248864359455  1.0000
  C   C79       1.0  0.013953423164615203  0.0041615764971112  0.6631912926567408  1.0000
  C   C80       1.0  0.9860415325535001  0.9958377306966854  0.3368084281260337  1.0000
  C   C81       1.0  0.912401307161595  0.11145996383132228  0.5951275084092414  1.0000
  C   C82       1.0  0.08759771423236634  0.8885408310738471  0.40487303514446155  1.0000
  C   C83       1.0  0.8943137381795767  0.2279822432841812  0.8706886589322166  1.0000
  C   C84       1.0  0.10570124603010819  0.7720184561879576  0.1293054447912567  1.0000
  C   C85       1.0  0.818336026914402  0.0566202447272133  0.6979114685113925  1.0000
  C   C86       1.0  0.18165892880371376  0.943379062466583  0.30208825227138186  1.0000
  C   C87       1.0  0.660882435786803  0.3731256077940373  0.4616988626843225  1.0000
  C   C88       1.0  0.3391145396889429  0.6268731855548707  0.5383017051207233  1.0000
  C   C89       1.0  0.726125213155356  0.3233322649313024  0.4296444932973174  1.0000
  C   C90       1.0  0.27386766220568853  0.6766650420449878  0.5703565234921796  1.0000
  C   C91       1.0  0.7179275999442822  0.3100893966134349  0.32722221075894004  1.0000
  C   C92       1.0  0.2820645286772746  0.6899099278152363  0.6727790205101628  1.0000
  C   C93       1.0  0.8023696991119422  0.2197576217384238  0.5195786731124485  1.0000
  C   C94       1.0  0.19762874180661794  0.7802421706317586  0.48042269061534876  1.0000
  C   C95       1.0  0.8130460846328519  0.11056092596029998  0.6432141918124614  1.0000
  C   C96       1.0  0.186950144103406  0.8894398848409963  0.3567865904721898  1.0000
  C   C97       1.0  0.6053251034949698  0.41328779613319  0.357842186703941  1.0000
  C   C98       1.0  0.3946701305545872  0.5867079896107655  0.6421608416233936  1.0000
  C   C99       1.0  0.9048498474262985  0.16751037913261513  0.536992681506888  1.0000
  C   C100      1.0  0.09515005893508291  0.8324904122588421  0.4630094781436539  1.0000
  C   C101      1.0  0.45196394279786034  0.8907352623181098  0.92049974539227  1.0000
  C   C102      1.0  0.548025207144029  0.10926961518018888  0.07950194331350961  1.0000
  C   C103      1.0  0.5550866583452105  0.42089502788471833  0.4216476456770835  1.0000
  C   C104      1.0  0.44491059866332716  0.5791027603079968  0.5783562062358172  1.0000
  C   C105      1.0  0.460440081400144  0.9521994951208295  0.8110569207501969  1.0000
  C   C106      1.0  0.5395572706466965  0.04780080579553209  0.1889435163783446  1.0000
  C   C107      1.0  0.0010546948540266293  0.28305832314468654  0.36653253872230346  1.0000
  C   C108      1.0  0.9989432344668503  0.7169404640130209  0.6334671016688489  1.0000
  C   C109      1.0  0.9425202981324929  0.24765657838251087  0.4293081862856453  1.0000
  C   C110      1.0  0.057476473438953304  0.7523427199988645  0.57069307101699  1.0000
  C   C111      1.0  0.7045877393971057  0.18717975179989568  0.40121229169207595  1.0000
  C   C112      1.0  0.29541613712929393  0.8128179952856202  0.5987871879158176  1.0000
  C   C113      1.0  0.8216771237928171  0.2650859181373164  0.4584398210779525  1.0000
  C   C114      1.0  0.17832170197510785  0.7349128650604227  0.5415610114915808  1.0000
  C   C115      1.0  0.8006863466404752  0.7649110231056256  0.12181408666906177  1.0000
  C   C116      1.0  0.1993165792421436  0.2350892464647387  0.878186296916027  1.0000
  C   C117      1.0  0.745180130303929  0.7878829224950223  0.2208833933783793  1.0000
  C   C118      1.0  0.2548276539124998  0.21211681554933648  0.7791159028241949  1.0000
  C   C119      1.0  0.7788860937654011  0.8778350800620841  0.12012166407034632  1.0000
  C   C120      1.0  0.2211190557791483  0.12216417063092419  0.8798788770394239  1.0000
  C   C121      1.0  0.7744989292099832  0.8098992349368219  0.15435442825644682  1.0000
  C   C122      1.0  0.2255069702754042  0.1901005145974466  0.8456458749370126  1.0000
  C   C123      1.0  0.9884247848090482  0.5374861679937055  0.6092225645321817  1.0000
  C   C124      1.0  0.011575552320167048  0.4625136124403184  0.39077736828627246  1.0000
  C   C125      1.0  0.9898059866026329  0.49028145549454644  0.6683254940890392  1.0000
  C   C126      1.0  0.01019345407954123  0.5097183288994386  0.33167324655103414  1.0000
  C   C127      1.0  0.7828703266512707  0.5924766039221936  0.64195500049739  1.0000
  C   C128      1.0  0.21712964858782155  0.4075241847917681  0.35804461564241297  1.0000
  C   C129      1.0  0.8832876113591085  0.5911087320110865  0.594682960692502  1.0000
  C   C130      1.0  0.11671367961524487  0.4088910422317227  0.4053160447120518  1.0000
  C   C131      1.0  0.7909358096476283  0.5431669205817612  0.6993606488846494  1.0000
  C   C132      1.0  0.2090650964773673  0.45683386283349137  0.3006388876781684  1.0000
  C   C133      1.0  0.7727527450744986  0.6959612366036864  0.5162290156008994  1.0000
  C   C134      1.0  0.22724848022350133  0.3040410566102665  0.48377250987769566  1.0000
  C   C135      1.0  0.8752794547365286  0.6442271336620351  0.5348374992102123  1.0000
  C   C136      1.0  0.12471938571237477  0.3557741653830958  0.4651628860041582  1.0000
  C   C137      1.0  0.8320415295356798  0.7880416656552428  0.05859061340030527  1.0000
  C   C138      1.0  0.16795732239283723  0.21195963294364614  0.9414093478956148  1.0000
  C   C139      1.0  0.81083995939386  0.897048159960093  0.05712716400318401  1.0000
  C   C140      1.0  0.18916388589504865  0.1029521047578115  0.9428735639233777  1.0000
  C   C141      1.0  0.7934348786126435  0.7406395621275977  0.4549973358940063  1.0000
  C   C142      1.0  0.20656264610099134  0.2593627513886929  0.5450036600556132  1.0000
  C   C143      1.0  0.9152045103458378  0.7229184992403077  0.42680309735668237  1.0000
  C   C144      1.0  0.08479229886581412  0.2770833140959681  0.5731968647538821  1.0000
  C   C145      1.0  0.5789661810163552  0.8900996416371781  0.35444593871589797  1.0000
  C   C146      1.0  0.421029708789014  0.10990217655155736  0.6455536790531936  1.0000
  C   C147      1.0  0.6635831795949159  0.8209406112203295  0.3683155402952779  1.0000
  C   C148      1.0  0.3364171722152776  0.17906168506108594  0.6316839451680138  1.0000
  C   C149      1.0  0.9759184578303817  0.7578985148110534  0.364412834035619  1.0000
  C   C150      1.0  0.024080417057369626  0.24210278289533702  0.6355862794233856  1.0000
  C   C151      1.0  0.632569336548258  0.8483977242436965  0.45870844064349103  1.0000
  C   C152      1.0  0.3674310873410036  0.15160708565387182  0.5412884778723565  1.0000
  C   C153      1.0  0.5268758849146948  0.8962390123922076  0.4186264085784473  1.0000
  C   C154      1.0  0.4731183814620295  0.10376231002272356  0.5813714070916588  1.0000
  C   C155      1.0  0.7187692300432006  0.8265133014489336  0.2581032237510499  1.0000
  C   C156      1.0  0.2812383502689215  0.17348694162788553  0.7418967619491141  1.0000
  C   C157      1.0  0.7031510178202183  0.7206158540876472  0.3327263286698923  1.0000
  C   C158      1.0  0.2968543503096016  0.2793854074202855  0.6672730755871257  1.0000
  C   C159      1.0  0.6986318038560739  0.799155425536263  0.4261402950588362  1.0000
  C   C160      1.0  0.30136945588078135  0.20084686633893503  0.5738599586643857  1.0000
  C   C161      1.0  0.6784370226024237  0.6652777736588219  0.3916577314095235  1.0000
  C   C162      1.0  0.32155740496148166  0.334725561802287  0.6083410670001115  1.0000
  C   C163      1.0  0.6962227226291233  0.7889211790126325  0.3219143470803161  1.0000
  C   C164      1.0  0.30378004526767916  0.21107959380520916  0.6780850303285247  1.0000
  S   S1        1.0  0.02764381777468122  0.17617192272977894  0.47739611590552034  1.0000
  S   S2        1.0  0.9723548072903015  0.8238298817940759  0.5226053827248974  1.0000
  S   S3        1.0  0.7530846311677024  0.22213539525543521  0.27470650015127507  1.0000
  S   S4        1.0  0.2469164182621456  0.7778623690649482  0.7252944899429394  1.0000
  S   S5        1.0  0.739160584626653  0.7045586503800861  0.2650046212817045  1.0000
  S   S6        1.0  0.2608411835065354  0.2954421304139458  0.7349973792148673  1.0000
  S   S7        1.0  0.999420615177272  0.6520023620234952  0.47594591391318614  1.0000
  S   S8        1.0  0.0005760328471993107  0.34799743826661  0.5240530654578421  1.0000
  N   N1        1.0  0.8228686217122956  0.3610687497595676  0.032616429474451536  1.0000
  N   N2        1.0  0.17713241623793172  0.638929015007065  0.9673849845382279  1.0000
  N   N3        1.0  0.9172601959377716  0.0037781569445484962  0.7082601376766391  1.0000
  N   N4        1.0  0.08273513315008786  0.9962201415230608  0.2917394758663363  1.0000
  N   N5        1.0  0.8379779743650746  0.8530101384203377  0.026627538791544208  1.0000
  N   N6        1.0  0.16202183140858042  0.14699115398734364  0.9733714950904684  1.0000
  N   N7        1.0  0.893252344813732  0.49277575032887455  0.7129887013851858  1.0000
  N   N8        1.0  0.10674783432966008  0.5072245333526125  0.2870102252570277  1.0000
  O   O1        1.0  0.8662043740340692  0.4895791232152433  0.9227949497747259  1.0000
  O   O2        1.0  0.13379572475199808  0.5104211635899887  0.07720694429668383  1.0000
  O   O3        1.0  0.8679013396976388  0.3063752580229035  0.9208062680620015  1.0000
  O   O4        1.0  0.13210845872698232  0.693626979916445  0.07918733460996215  1.0000
  O   O5        1.0  0.8920521555495072  0.8065436633827119  0.9109696121878343  1.0000
  O   O6        1.0  0.10792740079921968  0.19345975596522888  0.08902961161665252  1.0000
  O   O7        1.0  0.928732751574408  0.3390055325657571  0.817808792125895  1.0000
  O   O8        1.0  0.0712761044846886  0.6609967111185497  0.18218531404150443  1.0000
  O   O9        1.0  0.8818704023013881  0.9850137190837247  0.9259026604499211  1.0000
  O   O10       1.0  0.11813102690091173  0.014988069097761096  0.0740981755310841  1.0000
  O   O11       1.0  0.8450920967554015  0.5303147951156076  0.8210830814466944  1.0000
  O   O12       1.0  0.15490879788997355  0.4696859887458942  0.17891687903457412  1.0000
  O   O13       1.0  0.9262199177784611  0.8426047256427794  0.806599321413209  1.0000
  O   O14       1.0  0.07377591462881841  0.15739709477720254  0.19340241594816376  1.0000
  O   O15       1.0  0.6695383308939071  0.4184193979882948  0.9228103808027653  1.0000
  O   O16       1.0  0.3304669504758735  0.5815768340560865  0.0771920377568662  1.0000
  O   O17       1.0  0.0572314947978186  0.37527520536823994  0.9261412066409633  1.0000
  O   O18       1.0  0.9427703996111704  0.6247255705170572  0.07385613075258146  1.0000
  O   O19       1.0  0.8887435776932338  0.025597772717581797  0.8221507931563394  1.0000
  O   O20       1.0  0.11125428274993979  0.9744010171176138  0.17785139074555198  1.0000
  O   O21       1.0  0.7165606824718439  0.9495802478142821  0.8116913751373286  1.0000
  O   O22       1.0  0.2834338883969139  0.05042006855195069  0.18830887680370978  1.0000
  O   O23       1.0  0.7001031833484107  0.43752052285237397  0.8201665325839471  1.0000
  O   O24       1.0  0.29990158962503694  0.5624772202731735  0.17983413920232746  1.0000
  O   O25       1.0  0.07942540140270198  0.8749629558744586  0.9185933516258727  1.0000
  O   O26       1.0  0.920569634672745  0.125036348195593  0.08140340172771228  1.0000
  O   O27       1.0  0.10065357964601422  0.9201143242764047  0.8143549838630122  1.0000
  O   O28       1.0  0.899343668611735  0.0798839613625404  0.18564235093371195  1.0000
  O   O29       1.0  0.6915540758443013  0.9162923429733639  0.9157988698643039  1.0000
  O   O30       1.0  0.3084390359843355  0.08371200695889061  0.08420053928058018  1.0000
  O   O31       1.0  0.07216934153050406  0.43170400489204025  0.8231781480786821  1.0000
  O   O32       1.0  0.9278317602205279  0.5682987902306349  0.17682109946829888  1.0000
  F   F1        1.0  0.4440748184162758  0.3974039375031139  0.4435343417183759  1.0000
  F   F2        1.0  0.5559212808428242  0.602594361913269  0.5564711271060077  1.0000
  F   F3        1.0  0.6115144924359869  0.3435421921560716  0.521706393813659  1.0000
  F   F4        1.0  0.38848988420848246  0.6564565605881681  0.47829523304933735  1.0000
  F   F5        1.0  0.5318768479581807  0.4855044191629219  0.4205880385128751  1.0000
  F   F6        1.0  0.46812196633012354  0.5144943644810738  0.5794132179751229  1.0000
  F   F7        1.0  0.5078633631602187  0.42269894592978113  0.3252723398235701  1.0000
  F   F8        1.0  0.49212778865697265  0.5773003855825962  0.6747306666963482  1.0000
  F   F9        1.0  0.7425048616490814  0.41061213206751995  0.4645556547365786  1.0000
  F   F10       1.0  0.257495133347902  0.5893861394603022  0.535443137003014  1.0000
  F   F11       1.0  0.6741366746792679  0.4631304518275884  0.3237779556692573  1.0000
  F   F12       1.0  0.32585614008232977  0.5368643410863  0.676225204149233  1.0000
  F   F13       1.0  0.4167642655370401  0.8716358558985386  0.4395899684614052  1.0000
  F   F14       1.0  0.583234232779617  0.12836393424039727  0.560409275674111  1.0000
  F   F15       1.0  0.4828759694990838  0.8997031102679358  0.3210064537724264  1.0000
  F   F16       1.0  0.5171255483388036  0.10029615804990746  0.6789910142976365  1.0000
  F   F17       1.0  0.5827884350568553  0.8184787958552986  0.518560846043819  1.0000
  F   F18       1.0  0.4172121385399663  0.1815280275346822  0.4814374791300224  1.0000
  F   F19       1.0  0.6472822786673407  0.9403965837952556  0.32158172542703767  1.0000
  F   F20       1.0  0.3527152804851497  0.0596057283822802  0.678417998767209  1.0000
  F   F21       1.0  0.5012574841956979  0.9603618506330417  0.4188724677392131  1.0000
  F   F22       1.0  0.4987336620720556  0.03964049461921349  0.5811239982278167  1.0000
  F   F23       1.0  0.7138041654843903  0.8857992903366282  0.4620468938117666  1.0000
  F   F24       1.0  0.2861894262319141  0.11420656314683697  0.5379485693904938  1.0000
