data_image0
_chemical_formula_structural       Co2H20C28N6O10
_chemical_formula_sum              "Co2 H20 C28 N6 O10"
_cell_length_a       7.571261297229667
_cell_length_b       7.681049779830639
_cell_length_c       11.744199990340872
_cell_angle_alpha    98.34970446432932
_cell_angle_beta     95.30339192817402
_cell_angle_gamma    96.72403024145807

_space_group_name_H-M_alt    "P 1"
_space_group_IT_number       1

loop_
  _space_group_symop_operation_xyz
  'x, y, z'

loop_
  _atom_site_type_symbol
  _atom_site_label
  _atom_site_symmetry_multiplicity
  _atom_site_fract_x
  _atom_site_fract_y
  _atom_site_fract_z
  _atom_site_occupancy
  Co  Co1       1.0  0.4771112174385124  0.0840097240704125  0.6844862928184908  1.0000
  Co  Co2       1.0  0.565889667561791  0.9054595456113859  0.3161698170840452  1.0000
  H   H1        1.0  0.723950489168331  0.09695415917189366  0.8927653081255542  1.0000
  H   H2        1.0  0.26243736565987763  0.9146201673975795  0.11450890584481502  1.0000
  H   H3        1.0  0.21494538569067612  0.4800177880355889  0.12311879972688193  1.0000
  H   H4        1.0  0.764167728255764  0.5198820493428187  0.8774542541089616  1.0000
  H   H5        1.0  0.7315313575400925  0.21237711796865708  0.104641980089049  1.0000
  H   H6        1.0  0.24288520589882273  0.7887369196482154  0.9030567084800296  1.0000
  H   H7        1.0  0.4322429999673148  0.19627588481873198  0.4875592060001992  1.0000
  H   H8        1.0  0.5850847215434314  0.8030883782112496  0.5134893118976861  1.0000
  H   H9        1.0  0.2681241676234407  0.0409568707971459  0.4974492219750744  1.0000
  H   H10       1.0  0.7524837351085767  0.9598290982550068  0.5130070349896485  1.0000
  H   H11       1.0  0.4735636170464589  0.36098440272056104  0.1739608659601686  1.0000
  H   H12       1.0  0.4943968375777105  0.6355648651139845  0.8290102567381936  1.0000
  H   H13       1.0  0.21491436907229663  0.23355072486528164  0.823125220215978  1.0000
  H   H14       1.0  0.7801719955736957  0.7901738069292178  0.170579150008912  1.0000
  H   H15       1.0  0.00601788294383  0.10108928227779759  0.5923650451679094  1.0000
  H   H16       1.0  0.020498186369927358  0.8959194082262055  0.4086147313059527  1.0000
  H   H17       1.0  0.44477865693568225  0.5056571479712203  0.5834675824311617  1.0000
  H   H18       1.0  0.568011826343799  0.5031827234265762  0.41584124486739427  1.0000
  H   H19       1.0  0.9441457884408065  0.6517054767875691  0.6871310408817735  1.0000
  H   H20       1.0  0.0608325244438035  0.34091306833192897  0.3084086040272354  1.0000
  C   C1        1.0  0.6119227550765629  0.1547728632106598  0.927802509065792  1.0000
  C   C2        1.0  0.3722932664286986  0.8558004023525781  0.0775653163395802  1.0000
  C   C3        1.0  0.6160368201843838  0.22253580289761024  0.044552379048326395  1.0000
  C   C4        1.0  0.36179556660489715  0.7814331115980552  0.9610601160979257  1.0000
  C   C5        1.0  0.47312917792843484  0.30337437850735677  0.0835304719840906  1.0000
  C   C6        1.0  0.5015325036311539  0.6980995973103818  0.9190902203634792  1.0000
  C   C7        1.0  0.32601346402737624  0.31286994652528927  0.003310950451172809  1.0000
  C   C8        1.0  0.6540940811347087  0.6938867779763385  0.996125765206571  1.0000
  C   C9        1.0  0.32745295657734635  0.2353874322988218  0.8877305692187676  1.0000
  C   C10       1.0  0.6608587546550738  0.7815439930008878  0.11011654577124827  1.0000
  C   C11       1.0  0.03867405396429291  0.4268441131000316  0.9731511350238905  1.0000
  C   C12       1.0  0.9406025728257464  0.5774400051985467  0.02589056762042934  1.0000
  C   C13       1.0  0.9544426898145772  0.3708953714805502  0.638919339865005  1.0000
  C   C14       1.0  0.061382432392960595  0.622895028616554  0.35751429300039916  1.0000
  C   C15       1.0  0.0581125662996982  0.24068375810344375  0.5991945216042751  1.0000
  C   C16       1.0  0.9625618343309342  0.7572869393516796  0.398955481496678  1.0000
  C   C17       1.0  0.23295356798686126  0.2884709540702558  0.5763580638904742  1.0000
  C   C18       1.0  0.7856985252740145  0.7144524708395537  0.4225478775851315  1.0000
  C   C19       1.0  0.3056335963763602  0.46696912354440195  0.5951555466807577  1.0000
  C   C20       1.0  0.7073882150355219  0.5373108266417149  0.40262759075110927  1.0000
  C   C21       1.0  0.20104733023616464  0.5969155416070889  0.6343982625928533  1.0000
  C   C22       1.0  0.8057520560327661  0.40155050591577185  0.36241196895763045  1.0000
  C   C23       1.0  0.024618816774612626  0.5499909153661947  0.6558553853447364  1.0000
  C   C24       1.0  0.9830010485268093  0.4445949563254458  0.3403647202165915  1.0000
  C   C25       1.0  0.7723840685900214  0.31475211947021353  0.6693167069321717  1.0000
  C   C26       1.0  0.24834291815958662  0.6629544035748365  0.3239989577368049  1.0000
  C   C27       1.0  0.2810125011053657  0.7856467680387526  0.6560164855927226  1.0000
  C   C28       1.0  0.7121318179640497  0.21603353998354888  0.34450689256520667  1.0000
  N   N1        1.0  0.4692777010751854  0.161772376290088  0.8517130281890246  1.0000
  N   N2        1.0  0.5204233662036232  0.8558213067879521  0.15062087902697394  1.0000
  N   N3        1.0  0.19006623894051705  0.40872360172308925  0.039760743578256104  1.0000
  N   N4        1.0  0.788848766486062  0.5959644602617687  0.9590438971995852  1.0000
  N   N5        1.0  0.3409900318564497  0.15548222374514611  0.5418662083922001  1.0000
  N   N6        1.0  0.6791630383116498  0.8493159515419962  0.46277647738278205  1.0000
  O   O1        1.0  0.9809190078426157  0.3355524840333359  0.8786266409098927  1.0000
  O   O2        1.0  0.9988167632212851  0.6691231474759645  0.1202904503668094  1.0000
  O   O3        1.0  0.7187622425800342  0.14500976958553474  0.6451131618671511  1.0000
  O   O4        1.0  0.32875691448239047  0.8244296065131563  0.3532328942332015  1.0000
  O   O5        1.0  0.6788975602403441  0.4238136221813916  0.7158830753096125  1.0000
  O   O6        1.0  0.31739110694017114  0.5402604098018171  0.2693350312419369  1.0000
  O   O7        1.0  0.1927302671217035  0.9090239243008252  0.6894680101176149  1.0000
  O   O8        1.0  0.7884074697281421  0.07907204486915019  0.3096461736935652  1.0000
  O   O9        1.0  0.44928825299988523  0.8213835064170922  0.6415796861231087  1.0000
  O   O10       1.0  0.5481952807948504  0.1888986410445597  0.3627740314165706  1.0000
