data_image0
_chemical_formula_structural       Cd3H62C72S2N16O14
_chemical_formula_sum              "Cd3 H62 C72 S2 N16 O14"
_cell_length_a       10.207534946836343
_cell_length_b       13.106456920079461
_cell_length_c       17.44887950932728
_cell_angle_alpha    79.67280026260119
_cell_angle_beta     85.61703717387938
_cell_angle_gamma    78.05080914674043

_space_group_name_H-M_alt    "P 1"
_space_group_IT_number       1

loop_
  _space_group_symop_operation_xyz
  'x, y, z'

loop_
  _atom_site_type_symbol
  _atom_site_label
  _atom_site_symmetry_multiplicity
  _atom_site_fract_x
  _atom_site_fract_y
  _atom_site_fract_z
  _atom_site_occupancy
  Cd  Cd1       1.0  0.953867727641061  0.9014100671891826  0.7993970999208883  1.0000
  Cd  Cd2       1.0  0.04613176046281349  0.0985887282302613  0.2006035466612843  1.0000
  Cd  Cd3       1.0  0.49999853539824113  0.5000002022617664  0.5000022677660496  1.0000
  H   H1        1.0  0.5973345988958911  0.19414882953026338  0.6965132866040378  1.0000
  H   H2        1.0  0.46788343220571704  0.9055714262157224  0.7995632629590332  1.0000
  H   H3        1.0  0.17764761272778876  0.18042654319241783  0.7092190968919924  1.0000
  H   H4        1.0  0.22313454037939115  0.7390868296545744  0.7272335640375048  1.0000
  H   H5        1.0  0.19470032977350377  0.5655573276808781  0.6612348028524196  1.0000
  H   H6        1.0  0.8147448266484645  0.7200708326274993  0.7397400645463462  1.0000
  H   H7        1.0  0.8261610881160806  0.5840751915987141  0.641993876962985  1.0000
  H   H8        1.0  0.9872019669959187  0.5175151549928714  0.6152003957458305  1.0000
  H   H9        1.0  0.07890095251998733  0.4596242452752007  0.7924495638334365  1.0000
  H   H10       1.0  0.06108998056064513  0.3011526312149043  0.888287036010766  1.0000
  H   H11       1.0  0.7288549527127444  0.2557495167417727  0.7689219106674301  1.0000
  H   H12       1.0  0.741264512525987  0.4196323012137313  0.6746532346451986  1.0000
  H   H13       1.0  0.9050069578388076  0.09970054398115734  0.8548884421446346  1.0000
  H   H14       1.0  0.7829970298610787  0.16700226606891985  0.9152552620152222  1.0000
  H   H15       1.0  0.16539560586998897  0.09510216424121863  0.890311777855139  1.0000
  H   H16       1.0  0.2619734725359067  0.07161821932243129  0.0394590461368196  1.0000
  H   H17       1.0  0.8415167051119854  0.1674296472102838  0.0514433659320446  1.0000
  H   H18       1.0  0.4026657367602552  0.8058467744895308  0.3034837515148539  1.0000
  H   H19       1.0  0.5321166405872261  0.09442499991911996  0.20043825804012982  1.0000
  H   H20       1.0  0.8223521030417233  0.8195674941536168  0.2907804736576978  1.0000
  H   H21       1.0  0.7768714217865664  0.26091355240337316  0.2727671762548169  1.0000
  H   H22       1.0  0.8053069611789709  0.4344414956523579  0.3387695362251222  1.0000
  H   H23       1.0  0.18526274862620803  0.27993506380195027  0.2602564154892164  1.0000
  H   H24       1.0  0.17384310367064157  0.41593230607787046  0.3580053859229864  1.0000
  H   H25       1.0  0.012800463003195355  0.48248759607335495  0.3847995893648033  1.0000
  H   H26       1.0  0.9210977150731663  0.5403816813846732  0.207551857286532  1.0000
  H   H27       1.0  0.9389112774868665  0.6988509069324778  0.11171231542443386  1.0000
  H   H28       1.0  0.2711465055232695  0.7442571818379873  0.23107642610744963  1.0000
  H   H29       1.0  0.2587371351690352  0.5803736101927726  0.3253457755502254  1.0000
  H   H30       1.0  0.09499926976382515  0.9003029674497964  0.1451067001088759  1.0000
  H   H31       1.0  0.2170074196418952  0.8329965065165156  0.08474174830757158  1.0000
  H   H32       1.0  0.8346111574855755  0.904899001199666  0.10968767634923182  1.0000
  H   H33       1.0  0.7380287516921558  0.928385326681891  0.9605414113978982  1.0000
  H   H34       1.0  0.158485581790778  0.8325699162466195  0.9485536233827219  1.0000
  H   H35       1.0  0.8430532506724548  0.5130015896564757  0.4777434877363333  1.0000
  H   H36       1.0  0.043528418293170994  0.3453190370257316  0.5451665286468312  1.0000
  H   H37       1.0  0.6717947530127545  0.2466933215464947  0.5619363178714565  1.0000
  H   H38       1.0  0.034671201581510006  0.1699992189965798  0.6242784353793311  1.0000
  H   H39       1.0  0.8784747616535711  0.1351995386134419  0.6511559565806451  1.0000
  H   H40       1.0  0.03465790462217202  0.9532218276587299  0.6418825528810359  1.0000
  H   H41       1.0  0.9164731709534878  0.18680299574856457  0.4395773459220321  1.0000
  H   H42       1.0  0.6454927276795176  0.7067832998922511  0.5075673213453982  1.0000
  H   H43       1.0  0.5195725266245435  0.7155060672284106  0.743971494073719  1.0000
  H   H44       1.0  0.4555795684055964  0.5379397769901216  0.6977455748531654  1.0000
  H   H45       1.0  0.7505578203568816  0.8273382845132459  0.6051259720705602  1.0000
  H   H46       1.0  0.6259385342151589  0.8620464689975407  0.677037577892662  1.0000
  H   H47       1.0  0.3709160520976767  0.9002847645941399  0.6029929986707501  1.0000
  H   H48       1.0  0.7489729881174013  0.963082054733526  0.4983551353593896  1.0000
  H   H49       1.0  0.15694564201285743  0.4869956274419421  0.5222579725097063  1.0000
  H   H50       1.0  0.9564712730082762  0.6546750119675692  0.4548347606698044  1.0000
  H   H51       1.0  0.32819958423301204  0.7533062838802066  0.43806729154955804  1.0000
  H   H52       1.0  0.9653291259186078  0.8299963889056411  0.3757191756618711  1.0000
  H   H53       1.0  0.12152551691041676  0.8647960925833048  0.34884509199443414  1.0000
  H   H54       1.0  0.9653361163802858  0.04677536956705101  0.3581162414789532  1.0000
  H   H55       1.0  0.08352065243393988  0.8131949925328924  0.5604213479397302  1.0000
  H   H56       1.0  0.35450714749839557  0.29321391729826723  0.4924340991555384  1.0000
  H   H57       1.0  0.48042281457281183  0.28450143350165286  0.2560286994404848  1.0000
  H   H58       1.0  0.5444159377826948  0.462066948213959  0.302257010848507  1.0000
  H   H59       1.0  0.249442468936607  0.172661294289135  0.3948733884236617  1.0000
  H   H60       1.0  0.3740629296033973  0.13795627421174567  0.3229613011184469  1.0000
  H   H61       1.0  0.6290866218791179  0.0997132206338378  0.3970047645627872  1.0000
  H   H62       1.0  0.25102829182470293  0.0369175202785357  0.5016436124674186  1.0000
  C   C1        1.0  0.3841402838187236  0.19871182704038395  0.698714304921161  1.0000
  C   C2        1.0  0.5169650848551868  0.15051169211301385  0.7136463479938868  1.0000
  C   C3        1.0  0.5473970007135378  0.04457040054910519  0.7503652351550444  1.0000
  C   C4        1.0  0.6890955348367883  0.9908269603296628  0.7672073718982233  1.0000
  C   C5        1.0  0.4445437530069399  0.9879145929451238  0.7712437883685439  1.0000
  C   C6        1.0  0.3115913755098489  0.036153683800819195  0.7561915323560839  1.0000
  C   C7        1.0  0.2027943681905313  0.9729372109825078  0.7768490492509982  1.0000
  C   C8        1.0  0.2813226932125659  0.1423997882248571  0.7203928213245376  1.0000
  C   C9        1.0  0.13443411686635193  0.7099376538496072  0.71846364206273  1.0000
  C   C10       1.0  0.12155256948677363  0.6255643718874495  0.6848962921703787  1.0000
  C   C11       1.0  0.921652351228019  0.7035500659539268  0.7262829700661726  1.0000
  C   C12       1.0  0.9246259030689856  0.5444747821402132  0.6644938169732271  1.0000
  C   C13       1.0  0.9113057246905357  0.4508690761418136  0.7269353357689354  1.0000
  C   C14       1.0  0.9996930292994364  0.4170154045938546  0.7876620898480339  1.0000
  C   C15       1.0  0.9903899132885742  0.32612661159776474  0.8416273247184378  1.0000
  C   C16       1.0  0.894057992219672  0.26693518697300783  0.8349954085776402  1.0000
  C   C17       1.0  0.8043332908880033  0.3016614726881244  0.7744638360390041  1.0000
  C   C18       1.0  0.8121791254247697  0.39315527743696066  0.7212883969850666  1.0000
  C   C19       1.0  0.8846635636771155  0.16446200764926283  0.8889351530757068  1.0000
  C   C20       1.0  0.11452852496176293  0.1059028602895395  0.9459064456286299  1.0000
  C   C21       1.0  0.1604201159526326  0.0948696641976241  0.0195101712776378  1.0000
  C   C22       1.0  0.94326986821374  0.1459129813782241  0.028170469756780395  1.0000
  C   C23       1.0  0.6158588391057053  0.8012845834726718  0.3012849641338562  1.0000
  C   C24       1.0  0.4830326521905732  0.849486304301706  0.2863533327320908  1.0000
  C   C25       1.0  0.45260209774283316  0.9554260216112096  0.24963575266691151  1.0000
  C   C26       1.0  0.3109035309954892  0.009169477360344997  0.23279590761298147  1.0000
  C   C27       1.0  0.5554563442540683  0.012081821542459199  0.22875601386368768  1.0000
  C   C28       1.0  0.6884079287175666  0.963841943421407  0.24380898304178797  1.0000
  C   C29       1.0  0.7972051418079362  0.0270576213016156  0.2231509937227827  1.0000
  C   C30       1.0  0.7186768330979448  0.8575950362944268  0.27960607580462243  1.0000
  C   C31       1.0  0.8655706570359529  0.2900635230543287  0.2815376103987788  1.0000
  C   C32       1.0  0.8784541612447043  0.3744368090831216  0.31510545372324134  1.0000
  C   C33       1.0  0.0783553808815682  0.2964550588319526  0.27371647507916913  1.0000
  C   C34       1.0  0.07537690842161034  0.4555303460675687  0.33550639981994124  1.0000
  C   C35       1.0  0.0886943450933302  0.5491352568515566  0.27306452783545143  1.0000
  C   C36       1.0  0.0003044744981366025  0.5829913052647484  0.21233812467419  1.0000
  C   C37       1.0  0.009609563650208573  0.6738800945626264  0.15837223739126935  1.0000
  C   C38       1.0  0.10594287875380105  0.7330699294032994  0.16500316893878872  1.0000
  C   C39       1.0  0.1956665812808325  0.6983436513609149  0.22553592706715617  1.0000
  C   C40       1.0  0.1878205328169997  0.6068506454326013  0.2787124114674882  1.0000
  C   C41       1.0  0.11534106970232469  0.8355399331333971  0.11106198843139477  1.0000
  C   C42       1.0  0.8854760839496054  0.8940990921403866  0.05409241464541027  1.0000
  C   C43       1.0  0.8395838919576308  0.9051346652817427  0.9804889604240259  1.0000
  C   C44       1.0  0.05673123042537759  0.8540873769246671  0.9718270317271803  1.0000
  C   C45       1.0  0.83871600958269  0.4324510316632341  0.504872558760141  1.0000
  C   C46       1.0  0.9380914030803711  0.35090921079950016  0.5360754584276108  1.0000
  C   C47       1.0  0.7447674459074419  0.2971513989013843  0.5465316384670871  1.0000
  C   C48       1.0  0.9416710672402501  0.16149495528279087  0.600585952338868  1.0000
  C   C49       1.0  0.9712457429382156  0.0797092089845322  0.5471862145171471  1.0000
  C   C50       1.0  0.01829023006190061  0.9737680559958619  0.5795399277779794  1.0000
  C   C51       1.0  0.9534572468705564  0.1051246674373445  0.4667644061748462  1.0000
  C   C52       1.0  0.6026219128986058  0.6836612967639509  0.5654168289710739  1.0000
  C   C53       1.0  0.5360762625364189  0.6859815151231529  0.6890853471950676  1.0000
  C   C54       1.0  0.50464896149618  0.5994813137482637  0.6653806601466884  1.0000
  C   C55       1.0  0.6421366709857214  0.8391893736322514  0.6189603156740304  1.0000
  C   C56       1.0  0.5681232536176282  0.9227488236710074  0.5576732952934266  1.0000
  C   C57       1.0  0.42792325480223775  0.9439381435380056  0.557882035477931  1.0000
  C   C58       1.0  0.6395942193671403  0.9793557533237803  0.49933329199622273  1.0000
  C   C59       1.0  0.16128402243013798  0.567545413883721  0.4951318268505815  1.0000
  C   C60       1.0  0.06190731388450388  0.6490848342192735  0.46392529771181057  1.0000
  C   C61       1.0  0.2552268994943461  0.7028482026428904  0.453471398031617  1.0000
  C   C62       1.0  0.0583249024353449  0.8385022498920448  0.39941390837553564  1.0000
  C   C63       1.0  0.028747493186678297  0.9202871970934718  0.4528127200861719  1.0000
  C   C64       1.0  0.9817022130294009  0.026227562816785593  0.42045971999097276  1.0000
  C   C65       1.0  0.0465359892543377  0.8948717386406596  0.5332345284284656  1.0000
  C   C66       1.0  0.39737835192681104  0.3163382936856891  0.4345842502900794  1.0000
  C   C67       1.0  0.46392143072015574  0.3140244075621936  0.3109155407476933  1.0000
  C   C68       1.0  0.4953483258008404  0.40052224344280063  0.3346217148804768  1.0000
  C   C69       1.0  0.3578644031853245  0.1608109963179061  0.38103890457686157  1.0000
  C   C70       1.0  0.4318789843489982  0.07725076308042128  0.4423271315552171  1.0000
  C   C71       1.0  0.5720792215595338  0.0560606327456483  0.44211562725737963  1.0000
  C   C72       1.0  0.3604072581899942  0.0206430306326126  0.500665556328812  1.0000
  S   S1        1.0  0.3415565666849433  0.3339099610007209  0.6516009053629902  1.0000
  S   S2        1.0  0.6584358901449292  0.6660816985590258  0.3483987117198808  1.0000
  N   N1        1.0  0.008879667961416317  0.7579241188864286  0.7436687555966016  1.0000
  N   N2        1.0  0.986358133029462  0.6230322472586636  0.6900429899998102  1.0000
  N   N3        1.0  0.976817728709136  0.13818926156112346  0.9525132787254407  1.0000
  N   N4        1.0  0.05243986622738821  0.1197157643156714  0.0701897162921554  1.0000
  N   N5        1.0  0.9911272711145857  0.24208021863409362  0.2563314027143875  1.0000
  N   N6        1.0  0.013648202471955518  0.3769705158232525  0.30995855489735646  1.0000
  N   N7        1.0  0.023187887162890813  0.8618126793136369  0.04748382303655061  1.0000
  N   N8        1.0  0.9475586419573647  0.8802869824997187  0.9298098548765736  1.0000
  N   N9        1.0  0.7187275252682497  0.3978489241747453  0.5116168910743255  1.0000
  N   N10       1.0  0.876553709780275  0.2659996734062985  0.5625633299323951  1.0000
  N   N11       1.0  0.5467308510715443  0.5994042379947757  0.5882163156265604  1.0000
  N   N12       1.0  0.5984121403247612  0.7382036878485537  0.6250953824549584  1.0000
  N   N13       1.0  0.2812697594552985  0.6021506815282719  0.48838659911137944  1.0000
  N   N14       1.0  0.12344026228604583  0.7339975471140149  0.43743890196145685  1.0000
  N   N15       1.0  0.4532672266855968  0.4005961549735984  0.41178646139350417  1.0000
  N   N16       1.0  0.4015853772113758  0.26179906275715575  0.3749048013811844  1.0000
  O   O1        1.0  0.46200997477964006  0.35207686244628883  0.6019232395935106  1.0000
  O   O2        1.0  0.3138699726670212  0.39902688347178367  0.7128905867598121  1.0000
  O   O3        1.0  0.22562923792868617  0.3382451133024062  0.6050016139310159  1.0000
  O   O4        1.0  0.7795566983185224  0.04715807952369031  0.7571523395776724  1.0000
  O   O5        1.0  0.7148194096760037  0.8911955888992367  0.7909864025444336  1.0000
  O   O6        1.0  0.23077881222514668  0.8780137744022196  0.8104049653940706  1.0000
  O   O7        1.0  0.0835613757805049  0.02223778699869429  0.7578507901304548  1.0000
  O   O8        1.0  0.5379799023253681  0.6479211332315913  0.3980767590932786  1.0000
  O   O9        1.0  0.6861136850830932  0.6009687073349709  0.2871054082588742  1.0000
  O   O10       1.0  0.7743671707661548  0.6617425834904508  0.39499724056305746  1.0000
  O   O11       1.0  0.22044216989872473  0.9528391492219865  0.24285083943529878  1.0000
  O   O12       1.0  0.2851800702718492  0.10880321040263399  0.20901481696004962  1.0000
  O   O13       1.0  0.7692206814612775  0.12198106564675726  0.18959622342433138  1.0000
  O   O14       1.0  0.9164395063580671  0.9777594186366654  0.24214887185844705  1.0000
