data_image0
_chemical_formula_structural       Na2B4H44C16N2O4
_chemical_formula_sum              "Na2 B4 H44 C16 N2 O4"
_cell_length_a       7.527407722574458
_cell_length_b       8.891427189243117
_cell_length_c       10.041985545097905
_cell_angle_alpha    111.3086192799246
_cell_angle_beta     100.006259703533
_cell_angle_gamma    101.66087158992805

_space_group_name_H-M_alt    "P 1"
_space_group_IT_number       1

loop_
  _space_group_symop_operation_xyz
  'x, y, z'

loop_
  _atom_site_type_symbol
  _atom_site_label
  _atom_site_symmetry_multiplicity
  _atom_site_fract_x
  _atom_site_fract_y
  _atom_site_fract_z
  _atom_site_occupancy
  Na  Na1       1.0  0.09245410469918619  0.14823141836484413  0.7007050193330073  1.0000
  Na  Na2       1.0  0.9075456942116846  0.8517679272833404  0.2992957322618465  1.0000
  B   B1        1.0  0.19163498595263206  0.8865517143496077  0.546304233886481  1.0000
  B   B2        1.0  0.8083617667211911  0.11344639601171021  0.45369270468553685  1.0000
  B   B3        1.0  0.9046954520152184  0.38277318445981473  0.6982478319751735  1.0000
  B   B4        1.0  0.09530301815115645  0.6172261701510705  0.3017517409944189  1.0000
  H   H1        1.0  0.30110714271277333  0.969908955204211  0.6707264080972237  1.0000
  H   H2        1.0  0.698890938705546  0.030089146194406197  0.3292717091000625  1.0000
  H   H3        1.0  0.20126774629106595  0.9725397930642857  0.4749013423813082  1.0000
  H   H4        1.0  0.7987307634287433  0.027459577202726806  0.5250962493405851  1.0000
  H   H5        1.0  0.030760716070311465  0.847150057937256  0.5575463746431737  1.0000
  H   H6        1.0  0.9692368338763372  0.152850566676662  0.4424524848496106  1.0000
  H   H7        1.0  0.8784521290169424  0.3013785448805494  0.7730595660541653  1.0000
  H   H8        1.0  0.12154730092259315  0.6986195553834308  0.22693873914453636  1.0000
  H   H9        1.0  0.06463435614472256  0.4024956114234756  0.683498794215403  1.0000
  H   H10       1.0  0.935363685720162  0.5975024743190217  0.3165013042295754  1.0000
  H   H11       1.0  0.8772849113770106  0.5197570932926752  0.757514271973946  1.0000
  H   H12       1.0  0.12271629538521721  0.4802422747050555  0.24248369575078493  1.0000
  H   H13       1.0  0.2390867004242807  0.48789599688540625  0.4746253760318382  1.0000
  H   H14       1.0  0.7609144865612336  0.5121033632842612  0.5253735823167389  1.0000
  H   H15       1.0  0.1264260564945943  0.6097153063576002  0.5957130491932788  1.0000
  H   H16       1.0  0.8735746187959708  0.3902865848554314  0.40428566082695033  1.0000
  H   H17       1.0  0.42533638059568807  0.7903024643627887  0.7717691729678792  1.0000
  H   H18       1.0  0.5746625178721843  0.20969815911649187  0.2282298745263276  1.0000
  H   H19       1.0  0.49441978992082625  0.6058954041922674  0.6932610871196089  1.0000
  H   H20       1.0  0.5055818253661784  0.39410522484579513  0.3067373457535751  1.0000
  H   H21       1.0  0.6167533130846365  0.9293963041790505  0.6682493766824393  1.0000
  H   H22       1.0  0.3832461366316123  0.07060180391298591  0.33174793789241624  1.0000
  H   H23       1.0  0.6916592953649998  0.7503174328295045  0.5865194636511646  1.0000
  H   H24       1.0  0.3083423001452844  0.24968318838049441  0.4134799598458656  1.0000
  H   H25       1.0  0.4671920790437126  0.8598037517005891  0.4125488900154081  1.0000
  H   H26       1.0  0.5328077791973058  0.140195617431786  0.5874488897079075  1.0000
  H   H27       1.0  0.45098447038559186  0.6427363079686969  0.36046235162277174  1.0000
  H   H28       1.0  0.5490171251246921  0.35726431324130914  0.6395370718742655  1.0000
  H   H29       1.0  0.28062305562421846  0.4559391178661373  0.0750354429154712  1.0000
  H   H30       1.0  0.7193744349922827  0.5440614832635974  0.9249663884488585  1.0000
  H   H31       1.0  0.1833513832649842  0.5137871108730251  0.931327823204306  1.0000
  H   H32       1.0  0.8166466190464661  0.48621095921334506  0.06867425648837157  1.0000
  H   H33       1.0  0.5614588928474407  0.2440238222217062  0.853242802387797  1.0000
  H   H34       1.0  0.4385404975386535  0.7559742623861466  0.14675748405859673  1.0000
  H   H35       1.0  0.5039059189439712  0.29275928317653666  0.027598161412186083  1.0000
  H   H36       1.0  0.49609293997045273  0.7072413246466172  0.9724028673297126  1.0000
  H   H37       1.0  0.8631176795108291  0.7956618416701178  0.8207510942691485  1.0000
  H   H38       1.0  0.13688469349556703  0.20434128596442488  0.1792512407725013  1.0000
  H   H39       1.0  0.09200632702452796  0.8312949521836188  0.7905699403066961  1.0000
  H   H40       1.0  0.9079979655281818  0.16870566675709847  0.20942985919317184  1.0000
  H   H41       1.0  0.9216568214752314  0.24524194640601135  0.9893096316817136  1.0000
  H   H42       1.0  0.07834514300639486  0.7547599201881924  0.01069223821146899  1.0000
  H   H43       1.0  0.7595370296736592  0.0417547536302578  0.9366378886880471  1.0000
  H   H44       1.0  0.2404639948115275  0.9582483751389219  0.06336425835218044  1.0000
  C   C1        1.0  0.24806856170096137  0.61667536217373  0.5501117330967915  1.0000
  C   C2        1.0  0.7519308682385741  0.383322738090243  0.4498865721019101  1.0000
  C   C3        1.0  0.4391888484657755  0.700360516161588  0.6677211421090519  1.0000
  C   C4        1.0  0.5608096612540336  0.29963885410542446  0.33227644961284847  1.0000
  C   C5        1.0  0.5663507963234764  0.7932625982293757  0.599010182914  1.0000
  C   C6        1.0  0.4336494704423188  0.2067380319433312  0.40098806195776854  1.0000
  C   C7        1.0  0.438928172140308  0.7561623769102184  0.4473892575283713  1.0000
  C   C8        1.0  0.5610712577992275  0.24383572335376164  0.5526090476703303  1.0000
  C   C9        1.0  0.3114335242982236  0.4972924442249963  0.988272323404722  1.0000
  C   C10       1.0  0.6885675835804221  0.5027068846324241  0.011730597439246456  1.0000
  C   C11       1.0  0.5287761433190497  0.34022328516770284  0.9428701088743169  1.0000
  C   C12       1.0  0.47122095854939516  0.6597760627497635  0.0571302667177065  1.0000
  C   C13       1.0  0.009414244966187486  0.8786162574679041  0.8678036609554595  1.0000
  C   C14       1.0  0.9905859426927321  0.1213843413925488  0.1321985464117006  1.0000
  C   C15       1.0  0.909557666998282  0.11702702834321602  0.9814045699296372  1.0000
  C   C16       1.0  0.090445685557988  0.8829748527724774  0.0185955067172685  1.0000
  N   N1        1.0  0.24174632539791224  0.7191767332979425  0.4607234587438356  1.0000
  N   N2        1.0  0.7582525928466735  0.2808238980094018  0.5392745981265179  1.0000
  O   O1        1.0  0.35854624586797723  0.36650850263563944  0.8771791879765304  1.0000
  O   O2        1.0  0.6414553100888726  0.6334921029182398  0.12282221676819921  1.0000
  O   O3        1.0  0.0124408483016722  0.045253529801556204  0.8786643599956038  1.0000
  O   O4        1.0  0.9875588474390185  0.9547496079303243  0.1213366084193623  1.0000
