data_image0
_chemical_formula_structural       Cu2H30C46N6O8F8
_chemical_formula_sum              "Cu2 H30 C46 N6 O8 F8"
_cell_length_a       8.667485773154997
_cell_length_b       8.76151980587019
_cell_length_c       16.394501201568453
_cell_angle_alpha    97.19380424660642
_cell_angle_beta     90.00242891654368
_cell_angle_gamma    119.63805195972084

_space_group_name_H-M_alt    "P 1"
_space_group_IT_number       1

loop_
  _space_group_symop_operation_xyz
  'x, y, z'

loop_
  _atom_site_type_symbol
  _atom_site_label
  _atom_site_symmetry_multiplicity
  _atom_site_fract_x
  _atom_site_fract_y
  _atom_site_fract_z
  _atom_site_occupancy
  Cu  Cu1       1.0  0.5226818454396636  3.6050988825304815e-05  0.7500306993146352  1.0000
  Cu  Cu2       1.0  0.4773211329987461  0.9999635707299532  0.2499686266436143  1.0000
  H   H1        1.0  0.2859881384010734  0.896898575653907  0.8871425061853344  1.0000
  H   H2        1.0  0.38913409143435723  0.10307487528424988  0.6128548388139022  1.0000
  H   H3        1.0  0.7140202911450402  0.10310502627268651  0.1128571167782511  1.0000
  H   H4        1.0  0.6108638195726073  0.8969169185236437  0.38714024281382814  1.0000
  H   H5        1.0  0.08152663139582479  0.6118327406131884  0.9404961480708278  1.0000
  H   H6        1.0  0.4695245391282085  0.3880474483431798  0.5594726475241031  1.0000
  H   H7        1.0  0.9184813078003203  0.388172188226079  0.059503573880562  1.0000
  H   H8        1.0  0.5304849042774861  0.6119535662313637  0.4405249522864736  1.0000
  H   H9        1.0  0.09418783158734809  0.3385860836346594  0.885726269209151  1.0000
  H   H10       1.0  0.7554138570458379  0.6614538843538964  0.6142341683442467  1.0000
  H   H11       1.0  0.9058123712216428  0.6614149094890466  0.11427193893801049  1.0000
  H   H12       1.0  0.24459402036166716  0.33854168988849404  0.3857666858489281  1.0000
  H   H13       1.0  0.3186797653757196  0.3633056798930525  0.7825897349089175  1.0000
  H   H14       1.0  0.9552782815285924  0.6366772197496786  0.7173171450977094  1.0000
  H   H15       1.0  0.6813252030915822  0.6366979222986372  0.21740988803371408  1.0000
  H   H16       1.0  0.04472414477120884  0.3633143742848901  0.2826834120901366  1.0000
  H   H17       1.0  0.5056362062682923  0.655556349918335  0.7329557359212373  1.0000
  H   H18       1.0  0.850082606092215  0.3445904544877365  0.7670283891107488  1.0000
  H   H19       1.0  0.49436809885604294  0.34444592544905106  0.2670437880265979  1.0000
  H   H20       1.0  0.14991391190955036  0.6553985527249752  0.2329701448821737  1.0000
  H   H21       1.0  0.7634984889752446  0.9911273432491824  0.8755069528568241  1.0000
  H   H22       1.0  0.7722030373478929  0.008813517212487902  0.6245304209591964  1.0000
  H   H23       1.0  0.23650396595355974  0.008873538908979097  0.12449429726662942  1.0000
  H   H24       1.0  0.2277977845912105  0.9911887141044743  0.3754703197526155  1.0000
  H   H25       1.0  0.050336963220367154  0.9866874588336783  0.880766933992298  1.0000
  H   H26       1.0  0.0635920569471224  0.013356579641417494  0.619163187775527  1.0000
  H   H27       1.0  0.9496693098264403  0.0133187526910987  0.11923410372484257  1.0000
  H   H28       1.0  0.9364082635887954  0.9866469564304481  0.3808382603165583  1.0000
  H   H29       1.0  0.2044856113076534  0.00010036461436870529  0.7499914896672022  1.0000
  H   H30       1.0  0.7955178529500986  0.999907151842045  0.2500102554162424  1.0000
  C   C1        1.0  0.5869188934865476  0.2569561629787742  0.895860787274529  1.0000
  C   C2        1.0  0.3300387382728331  0.7431314967559429  0.6041467041746456  1.0000
  C   C3        1.0  0.41303556086507603  0.7430317864839395  0.1041303467625809  1.0000
  C   C4        1.0  0.6699427063402086  0.2568758219595466  0.39586051630826086  1.0000
  C   C5        1.0  0.5424459737813834  0.38203106682061616  0.9501529925629981  1.0000
  C   C6        1.0  0.16049698371860197  0.6180452562734403  0.5498108714612754  1.0000
  C   C7        1.0  0.45754548983408944  0.6179686000973419  0.04984511654047451  1.0000
  C   C8        1.0  0.8395039604780764  0.3819502963413725  0.4501905910824533  1.0000
  C   C9        1.0  0.3969097780144821  0.3197616962208585  0.9983185812012038  1.0000
  C   C10       1.0  0.07701405720150237  0.6802361626389555  0.5017227502525117  1.0000
  C   C11       1.0  0.6030836138412424  0.6802325965731338  0.0016809571284354947  1.0000
  C   C12       1.0  0.9229861059252756  0.319755520203401  0.498275373351504  1.0000
  C   C13       1.0  0.3552579317298523  0.43450763390288927  0.0470187728638081  1.0000
  C   C14       1.0  0.9205253043939408  0.5654217337028056  0.45306626933458455  1.0000
  C   C15       1.0  0.6447362301425557  0.565490506505803  0.9529847127980061  1.0000
  C   C16       1.0  0.07947834844065237  0.43457923699804724  0.5469325472259923  1.0000
  C   C17       1.0  0.28604139977981896  0.774263367166803  0.8655758961499983  1.0000
  C   C18       1.0  0.5117643711281303  0.22573958739528877  0.6344135028933663  1.0000
  C   C19       1.0  0.713965363616964  0.2257415174453001  0.1344250425793376  1.0000
  C   C20       1.0  0.4882306979301418  0.7742534448709577  0.3655841112780536  1.0000
  C   C21       1.0  0.1734509354758131  0.615714010210084  0.8946337853238048  1.0000
  C   C22       1.0  0.5576056146752819  0.3842663476446759  0.6053488720420717  1.0000
  C   C23       1.0  0.826553859998505  0.3842869382446353  0.1053656396362257  1.0000
  C   C24       1.0  0.4423960481304122  0.6157306425832587  0.3946496475341306  1.0000
  C   C25       1.0  0.18246266206060824  0.4645253554923343  0.864500475037353  1.0000
  C   C26       1.0  0.7177610760863117  0.5354975107398515  0.6354580623070731  1.0000
  C   C27       1.0  0.8175393356778645  0.5354769200517849  0.13549904889651287  1.0000
  C   C28       1.0  0.2822415563661238  0.4644968035049786  0.3645408676859745  1.0000
  C   C29       1.0  0.3052757917294642  0.47740274175053793  0.8068634744815454  1.0000
  C   C30       1.0  0.8277723903351628  0.522620715413794  0.693065514540656  1.0000
  C   C31       1.0  0.6947255758256717  0.5225982734425685  0.19313412528013876  1.0000
  C   C32       1.0  0.1722277175255584  0.47737085663974443  0.30693565102567527  1.0000
  C   C33       1.0  0.41213003941820153  0.6400207849959969  0.7798977137477081  1.0000
  C   C34       1.0  0.7720573564869467  0.3600646088591616  0.7200865216065679  1.0000
  C   C35       1.0  0.5878724707766664  0.3599802079509756  0.22010049441342255  1.0000
  C   C36       1.0  0.22793766835847862  0.6399283347760301  0.2799135261347061  1.0000
  C   C37       1.0  0.8338887856808626  0.9930164741712204  0.8203492996904842  1.0000
  C   C38       1.0  0.8408227340622644  0.006972190643821801  0.6796548436153174  1.0000
  C   C39       1.0  0.1661154973370529  0.006985756880645504  0.17965144104228153  1.0000
  C   C40       1.0  0.159179230516564  0.9930300184270067  0.3203465054959409  1.0000
  C   C41       1.0  0.9938877016968488  0.9923235822455183  0.8226725674574311  1.0000
  C   C42       1.0  0.0015798346531141999  0.007815654214823598  0.6772884519585958  1.0000
  C   C43       1.0  0.0061134551750257  0.007683934387628701  0.17732917761204445  1.0000
  C   C44       1.0  0.9984236185514207  0.9921918400838263  0.3227139015173108  1.0000
  C   C45       1.0  0.07934673981649351  0.00013973897966219242  0.7499764832308174  1.0000
  C   C46       1.0  0.920656735494461  0.9998677996345148  0.2500246534601657  1.0000
  N   N1        1.0  0.40189058654312515  0.7855576293806337  0.8085704516714215  1.0000
  N   N2        1.0  0.6163112035184355  0.2144936357759306  0.6914568676780845  1.0000
  N   N3        1.0  0.5981142089311933  0.21444331907408545  0.1914289732886019  1.0000
  N   N4        1.0  0.3836874553987927  0.7855019613311426  0.30854337806674437  1.0000
  N   N5        1.0  0.759090404958279  0.999974414168406  0.7500161994833122  1.0000
  N   N6        1.0  0.2409115596205567  2.7794902429398378e-05  0.24998514962794624  1.0000
  O   O1        1.0  0.4615048945720305  0.15170416461528896  0.8405711142464937  1.0000
  O   O2        1.0  0.30988627952321224  0.8483130599481754  0.6594837033803385  1.0000
  O   O3        1.0  0.5384825395699339  0.8483035968136293  0.1594239384220657  1.0000
  O   O4        1.0  0.690107012853602  0.1516810334259517  0.3405213104814777  1.0000
  O   O5        1.0  0.7340600747983429  0.2681993663085364  0.9082470360083689  1.0000
  O   O6        1.0  0.46598611765180936  0.7319173864604523  0.5917561967284257  1.0000
  O   O7        1.0  0.26592896890719697  0.731781613750158  0.0917527291722351  1.0000
  O   O8        1.0  0.5340288503756697  0.2680900626390184  0.4082473736022578  1.0000
  F   F1        1.0  0.29191337740660117  0.14167080343068505  0.9989247639091516  1.0000
  F   F2        1.0  0.15014682416591532  0.8583091576034148  0.5010172499919179  1.0000
  F   F3        1.0  0.7080810862389343  0.858332555820908  0.0010815512877186812  1.0000
  F   F4        1.0  0.8498533500140796  0.14168254739669808  0.4989802652196289  1.0000
  F   F5        1.0  0.2128068615395763  0.3645352664823421  0.0934841857893645  1.0000
  F   F6        1.0  0.8480894718431032  0.6353389141008704  0.40652100482028425  1.0000
  F   F7        1.0  0.7871920991507794  0.6354655494676323  0.9065188894905205  1.0000
  F   F8        1.0  0.15191036287347973  0.36465672723336695  0.5934780241466058  1.0000
