data_image0
_chemical_formula_structural       Zn2H8C28I4N2O10
_chemical_formula_sum              "Zn2 H8 C28 I4 N2 O10"
_cell_length_a       12.03295395601944
_cell_length_b       12.983181204425808
_cell_length_c       14.588265911809648
_cell_angle_alpha    86.56541542214848
_cell_angle_beta     84.4619375403489
_cell_angle_gamma    90.0987928335817

_space_group_name_H-M_alt    "P 1"
_space_group_IT_number       1

loop_
  _space_group_symop_operation_xyz
  'x, y, z'

loop_
  _atom_site_type_symbol
  _atom_site_label
  _atom_site_symmetry_multiplicity
  _atom_site_fract_x
  _atom_site_fract_y
  _atom_site_fract_z
  _atom_site_occupancy
  Zn  Zn1       1.0  0.6250797004509465  0.5136919551989151  0.4813670120776122  1.0000
  Zn  Zn2       1.0  0.3749247535262866  0.4863088708407515  0.5186232664260544  1.0000
  H   H1        1.0  0.3655345300339902  0.17512813865850768  0.4965337048119521  1.0000
  H   H2        1.0  0.6345267573332548  0.8248661865269395  0.503490340510737  1.0000
  H   H3        1.0  0.7217182159586811  0.18930300727096488  0.49641081358617367  1.0000
  H   H4        1.0  0.27833200682693615  0.8107061337557437  0.5035741968166718  1.0000
  H   H5        1.0  0.9806148616323039  0.36190131460358527  0.6541487461883051  1.0000
  H   H6        1.0  0.019381838582084795  0.6380929171211207  0.3458580711357796  1.0000
  H   H7        1.0  0.7147940802079871  0.4520693068567068  0.6312364282232537  1.0000
  H   H8        1.0  0.2851900911576307  0.5479116622863955  0.3687532297162547  1.0000
  C   C1        1.0  0.4629475329976741  0.69276880155801  0.5047172470495765  1.0000
  C   C2        1.0  0.8503775062449462  0.48258954883649346  0.5468600361099262  1.0000
  C   C3        1.0  0.03013265239290769  0.527795535386943  0.4627620338085734  1.0000
  C   C4        1.0  0.9698509071683784  0.4721984108709447  0.5372373864129257  1.0000
  C   C5        1.0  0.49784613849995907  0.5083806776195983  0.316466397347213  1.0000
  C   C6        1.0  0.5021114021122413  0.49161946760122505  0.6835330046019975  1.0000
  C   C7        1.0  0.49345561209760536  0.5081769993070822  0.21819802315581424  1.0000
  C   C8        1.0  0.5064908794193598  0.4918344485967552  0.7817974644712604  1.0000
  C   C9        1.0  0.4948775973283188  0.5054474967002633  0.13415620847268167  1.0000
  C   C10       1.0  0.5050059772265171  0.4945334305417216  0.8658541181454779  1.0000
  C   C11       1.0  0.49790772887232737  0.5019298406257136  0.042287062025849295  1.0000
  C   C12       1.0  0.5371066846790383  0.30723568384716055  0.4952793722902555  1.0000
  C   C13       1.0  0.5020045704590572  0.49810991486060613  0.9577107034592629  1.0000
  C   C14       1.0  0.5421770742480801  0.19205541867695783  0.4962670896514395  1.0000
  C   C15       1.0  0.45787098809677923  0.8079424858966034  0.5037487110571276  1.0000
  C   C16       1.0  0.34880970843970255  0.9638623245032746  0.4998560599615515  1.0000
  C   C17       1.0  0.6512320104163364  0.03613633285186069  0.500146389827492  1.0000
  C   C18       1.0  0.3533758857138025  0.8577730884219291  0.5026804521118606  1.0000
  C   C19       1.0  0.6466729417124027  0.14222949446323693  0.4973330416330625  1.0000
  C   C20       1.0  0.5551664396045622  0.8649923178105893  0.5028616112751292  1.0000
  C   C21       1.0  0.44488840105794475  0.1350019268014435  0.4971539253468862  1.0000
  C   C22       1.0  0.5529951653140158  0.9737605269054582  0.5009117879072419  1.0000
  C   C23       1.0  0.4470633816123665  0.0262347822682543  0.49908838681601236  1.0000
  C   C24       1.0  0.02662708204132259  0.40756433006001186  0.5981832895140471  1.0000
  C   C25       1.0  0.973357347376499  0.5924296584595437  0.4018147033248169  1.0000
  C   C26       1.0  0.14124801518897806  0.403721383942212  0.5842148333688185  1.0000
  C   C27       1.0  0.8587338030999659  0.5962779471972296  0.4157817198180851  1.0000
  C   C28       1.0  0.14960598660731958  0.517408271156327  0.45313784943583346  1.0000
  I   I1        1.0  0.1896729087030379  0.03215616473645609  0.49622590199033567  1.0000
  I   I2        1.0  0.8103634236356354  0.9678386427320046  0.5037633362417608  1.0000
  I   I3        1.0  0.7778872746782496  0.6993732417892387  0.3281208542969694  1.0000
  I   I4        1.0  0.22210360208374877  0.3006516907248908  0.6718849985737805  1.0000
  N   N1        1.0  0.7966235456343823  0.5396261245860285  0.48507761464722415  1.0000
  N   N2        1.0  0.20336640727795435  0.46037803434008845  0.5149216514014796  1.0000
  O   O1        1.0  0.5601900241799598  0.6532655845099595  0.49877158621523426  1.0000
  O   O2        1.0  0.20299993365991748  0.5672560866369877  0.3805815479214374  1.0000
  O   O3        1.0  0.43984665840141435  0.3467329024335156  0.5012963243200302  1.0000
  O   O4        1.0  0.37096095148326913  0.6430848314155142  0.5111029434771267  1.0000
  O   O5        1.0  0.6290828198949541  0.3569187652744858  0.4888155119325005  1.0000
  O   O6        1.0  0.5939459986342114  0.5055020514459655  0.3448750958815552  1.0000
  O   O7        1.0  0.4059999231691264  0.49458255802500156  0.655128920828872  1.0000
  O   O8        1.0  0.40524266153291666  0.5104952888858916  0.36755096180481667  1.0000
  O   O9        1.0  0.594693141332435  0.4893963759864731  0.6324373423921867  1.0000
  O   O10       1.0  0.7969878692224766  0.4327380176492781  0.6194148583720888  1.0000
