data_image0
_chemical_formula_structural       Co3H24C30N14O8
_chemical_formula_sum              "Co3 H24 C30 N14 O8"
_cell_length_a       10.13990328617733
_cell_length_b       10.32714936847834
_cell_length_c       10.507343575496506
_cell_angle_alpha    99.63404751948269
_cell_angle_beta     101.9128106017937
_cell_angle_gamma    119.44170419012961

_space_group_name_H-M_alt    "P 1"
_space_group_IT_number       1

loop_
  _space_group_symop_operation_xyz
  'x, y, z'

loop_
  _atom_site_type_symbol
  _atom_site_label
  _atom_site_symmetry_multiplicity
  _atom_site_fract_x
  _atom_site_fract_y
  _atom_site_fract_z
  _atom_site_occupancy
  Co  Co1       1.0  0.5016755116392985  0.5007507162245943  0.5011666308285783  1.0000
  Co  Co2       1.0  0.848412174539753  0.719938358062592  0.778008486862717  1.0000
  Co  Co3       1.0  0.15155205256918688  0.2791646946749751  0.22151190739349855  1.0000
  H   H1        1.0  0.7671207774302999  0.0982867288530969  0.8599696054924948  1.0000
  H   H2        1.0  0.23234207752152247  0.9013568585415328  0.14042018101827836  1.0000
  H   H3        1.0  0.818903709963223  0.5785322579363876  0.43966356794594913  1.0000
  H   H4        1.0  0.18319259317663486  0.42294774211086417  0.5611010281057034  1.0000
  H   H5        1.0  0.9342692596589046  0.9116107558825135  0.1035519450458935  1.0000
  H   H6        1.0  0.06504605373292799  0.08771636159215031  0.895371423565436  1.0000
  H   H7        1.0  0.2894756317747919  0.6827279875578328  0.6980172197868839  1.0000
  H   H8        1.0  0.7099063314767945  0.31700409777006666  0.3022352317289787  1.0000
  H   H9        1.0  0.36493483986124187  0.12340631178817321  0.9004244710197042  1.0000
  H   H10       1.0  0.6345494748667804  0.8766340748832279  0.0992629229631277  1.0000
  H   H11       1.0  0.657855474365533  0.2539255204263924  0.940713078644073  1.0000
  H   H12       1.0  0.3415714959688429  0.7459378301571746  0.05914705135986506  1.0000
  H   H13       1.0  0.8368701356652222  0.9665039197342085  0.340093535721941  1.0000
  H   H14       1.0  0.163171243698585  0.033626700833572415  0.659402561603109  1.0000
  H   H15       1.0  0.5736566432155354  0.8120476225039539  0.42742170011146635  1.0000
  H   H16       1.0  0.4276797912653834  0.18866787539199242  0.5738175276909487  1.0000
  H   H17       1.0  0.07461734508783735  0.7795096919819784  0.3874338788004508  1.0000
  H   H18       1.0  0.9260760608951699  0.22103196075762807  0.6119850346550351  1.0000
  H   H19       1.0  0.07986173794483854  0.9453122154906807  0.35276033740730367  1.0000
  H   H20       1.0  0.9207273672710413  0.0551111403480249  0.6463011181821656  1.0000
  H   H21       1.0  0.8427222255733539  0.4691222300511484  0.9075008894689276  1.0000
  H   H22       1.0  0.156643467953053  0.5299276974552214  0.09247005662811597  1.0000
  H   H23       1.0  0.931179986058609  0.5211598762951084  0.18814505361241626  1.0000
  H   H24       1.0  0.06875559509026627  0.47885308425213685  0.8120022901598958  1.0000
  C   C1        1.0  0.5346628305524633  0.8811642817726268  0.7704419829140506  1.0000
  C   C2        1.0  0.46481242716406257  0.11853221006745679  0.2301600228760208  1.0000
  C   C3        1.0  0.30881014958278274  0.8942241388418992  0.7967150188129464  1.0000
  C   C4        1.0  0.6905334063186358  0.10565656692192252  0.20317054972905876  1.0000
  C   C5        1.0  0.6385504024548895  0.0422975007974955  0.840542289668555  1.0000
  C   C6        1.0  0.3609122953287523  0.9574438650106031  0.15982755637501353  1.0000
  C   C7        1.0  0.5962936936153653  0.7852655477269864  0.719357119877415  1.0000
  C   C8        1.0  0.40356907647104373  0.2147331944120836  0.2815474183643687  1.0000
  C   C9        1.0  0.7862207965691467  0.661693579455978  0.4256177185305532  1.0000
  C   C10       1.0  0.21557929168929496  0.33955916012715204  0.5750786201744376  1.0000
  C   C11       1.0  0.13508736397353954  0.8093215991664663  0.7809828166865173  1.0000
  C   C12       1.0  0.8642435941505157  0.19098213518286403  0.218700159471247  1.0000
  C   C13       1.0  0.9206546451354075  0.7983532371575353  0.08497022055838244  1.0000
  C   C14       1.0  0.07885127214160548  0.2010605477110374  0.9143005293486582  1.0000
  C   C15       1.0  0.37033522007538977  0.8081529836243605  0.7496818882486592  1.0000
  C   C16       1.0  0.6290641961677395  0.1915885200001952  0.25056911248047  1.0000
  C   C17       1.0  0.4127581793918154  0.056277395582832  0.8631099764037558  1.0000
  C   C18       1.0  0.5866647619420462  0.9436320564814482  0.1367265211656773  1.0000
  C   C19       1.0  0.5770197219727606  0.12912461153440796  0.885427060784494  1.0000
  C   C20       1.0  0.4224197738276913  0.8707278052736172  0.11457187862150417  1.0000
  C   C21       1.0  0.7928302657370664  0.8653248842974293  0.37615524143195234  1.0000
  C   C22       1.0  0.2078625224944801  0.13523616332892635  0.6239568255992295  1.0000
  C   C23       1.0  0.6632742676479565  0.7863566632810972  0.41750597884787766  1.0000
  C   C24       1.0  0.3380401078368109  0.21443526169481686  0.5834110757593081  1.0000
  C   C25       1.0  0.003427258178504359  0.8186899347456204  0.3332408317443053  1.0000
  C   C26       1.0  0.9971515110150903  0.1818096042908763  0.6662670601749952  1.0000
  C   C27       1.0  0.87254390535427  0.5676543936749568  0.989875150769187  1.0000
  C   C28       1.0  0.12697514933427803  0.4316074056710946  0.009961281806020794  1.0000
  C   C29       1.0  0.9175202890337173  0.5929275230588332  0.12840407517860794  1.0000
  C   C30       1.0  0.08232677171984902  0.40686127022897284  0.8714999937069479  1.0000
  N   N1        1.0  0.8698305669806243  0.7858689878117532  0.3824706314993093  1.0000
  N   N2        1.0  0.13118547981616757  0.2149821507068026  0.6175544660693504  1.0000
  N   N3        1.0  0.6605425424170264  0.6596715210962287  0.4478042558086556  1.0000
  N   N4        1.0  0.34159547613314334  0.3416411953711105  0.5536341464291681  1.0000
  N   N5        1.0  0.8752899573685153  0.6960595031425711  0.9640243299528066  1.0000
  N   N6        1.0  0.12403571543997315  0.3029596866915298  0.03542964114506469  1.0000
  N   N7        1.0  0.9487745767233875  0.7399191937478732  0.18721117740707882  1.0000
  N   N8        1.0  0.05109243103384381  0.25997122586821314  0.8123237195283862  1.0000
  N   N9        1.0  0.6964482756765521  0.511150473968165  0.6483752400167759  1.0000
  N   N10       1.0  0.30312634688454654  0.48802014693192314  0.3503487856703984  1.0000
  N   N11       1.0  0.720957820596709  0.40685013790964325  0.6315805889919872  1.0000
  N   N12       1.0  0.27851548552580846  0.5921425455975395  0.36750481307230837  1.0000
  N   N13       1.0  0.7385958172587481  0.3026923919793419  0.6120132599108956  1.0000
  N   N14       1.0  0.2602785061639636  0.6958209188276003  0.3872708712398775  1.0000
  O   O1        1.0  0.7464268580699666  0.8405844767374475  0.770916294595402  1.0000
  O   O2        1.0  0.25288227148183035  0.1583748988775753  0.2315119833027879  1.0000
  O   O3        1.0  0.4916728677410659  0.6536639390305298  0.6272686910896113  1.0000
  O   O4        1.0  0.5088417494351133  0.3474549231766061  0.3718233890178552  1.0000
  O   O5        1.0  0.06460139729259849  0.8861134478548821  0.7793808759820067  1.0000
  O   O6        1.0  0.9345523531762365  0.11400215954864727  0.21902881671675084  1.0000
  O   O7        1.0  0.05699633681270904  0.6659450645746929  0.7702190265451135  1.0000
  O   O8        1.0  0.9419989623785128  0.33461147359427196  0.23063039284107842  1.0000
