data_image0
_chemical_formula_structural       Cd6H30C24N54
_chemical_formula_sum              "Cd6 H30 C24 N54"
_cell_length_a       11.627963964565236
_cell_length_b       12.687390255457993
_cell_length_c       12.6226
_cell_angle_alpha    111.00304734943586
_cell_angle_beta     107.66169586120596
_cell_angle_gamma    107.89880978641246

_space_group_name_H-M_alt    "P 1"
_space_group_IT_number       1

loop_
  _space_group_symop_operation_xyz
  'x, y, z'

loop_
  _atom_site_type_symbol
  _atom_site_label
  _atom_site_symmetry_multiplicity
  _atom_site_fract_x
  _atom_site_fract_y
  _atom_site_fract_z
  _atom_site_occupancy
  Cd  Cd1       1.0  0.23504215080176044  0.5566270640415425  0.057385742471268514  1.0000
  Cd  Cd2       1.0  0.6785898549049989  0.5009155465382804  0.44388463869660905  1.0000
  Cd  Cd3       1.0  0.17832025587647135  0.9431995064935421  0.4998338401452782  1.0000
  Cd  Cd4       1.0  0.7649589011879314  0.4433728964128747  0.9426147749707282  1.0000
  Cd  Cd5       1.0  0.321410294547384  0.4990844139161368  0.5561156264960587  1.0000
  Cd  Cd6       1.0  0.821680371193338  0.056801409168294  0.5001669026567086  1.0000
  H   H1        1.0  0.6218054125320194  0.7525114494471055  0.5604338869955966  1.0000
  H   H2        1.0  0.8696550971426975  0.8073107438652585  0.24772312472340735  1.0000
  H   H3        1.0  0.06247040802231398  0.44007074436553484  0.19222495384305194  1.0000
  H   H4        1.0  0.3781947369203635  0.2474885110073117  0.43956479373745333  1.0000
  H   H5        1.0  0.1303440970748397  0.19268730617431368  0.7522769774804274  1.0000
  H   H6        1.0  0.9375278309603842  0.5599253952591994  0.8077734009123387  1.0000
  H   H7        1.0  0.7481029488978379  0.9036768443267604  0.6905488810797136  1.0000
  H   H8        1.0  0.8444711060077381  0.7856982208039368  0.09558992593473177  1.0000
  H   H9        1.0  0.0585142664912297  0.3104911267394712  0.21459870659229094  1.0000
  H   H10       1.0  0.2518976781719716  0.0963240713350686  0.30945106949246787  1.0000
  H   H11       1.0  0.1555308485192697  0.2143017396504803  0.9044108437566007  1.0000
  H   H12       1.0  0.9414845028064251  0.6895078785075199  0.7854000365119089  1.0000
  H   H13       1.0  0.4482201302902382  0.8700449463126958  0.4014248136811246  1.0000
  H   H14       1.0  0.5784108096471314  0.5311440405185976  0.1305752586849565  1.0000
  H   H15       1.0  0.0470372105344694  0.5994528334630687  0.46912076837638483  1.0000
  H   H16       1.0  0.5517787444024833  0.1299578797639711  0.5985761275914994  1.0000
  H   H17       1.0  0.4215893398052515  0.4688559199358124  0.8694242142778988  1.0000
  H   H18       1.0  0.9529638414552295  0.4005471269913413  0.5308789568358064  1.0000
  H   H19       1.0  0.460069391228366  0.7342220929963261  0.3970718348038743  1.0000
  H   H20       1.0  0.7258864867305378  0.6621908567401817  0.26680206928897837  1.0000
  H   H21       1.0  0.06345636829147588  0.6036481044471316  0.33704356637340976  1.0000
  H   H22       1.0  0.5399312358414364  0.2657788226655029  0.6029265313086825  1.0000
  H   H23       1.0  0.2741141403392647  0.3378100589216473  0.7331986735130085  1.0000
  H   H24       1.0  0.936543781160907  0.3963518560072856  0.6629559065894525  1.0000
  H   H25       1.0  0.6164361807474991  0.9635979609253695  0.5931980896838951  1.0000
  H   H26       1.0  0.6529192817835607  0.6288092230698794  0.035992364721984346  1.0000
  H   H27       1.0  0.024148132041787614  0.4078554189537869  0.37209900451437505  1.0000
  H   H28       1.0  0.3835630661675751  0.0364019995290406  0.40680192325943654  1.0000
  H   H29       1.0  0.34708086766882223  0.3711907373845307  0.9640079004706832  1.0000
  H   H30       1.0  0.9758520174105952  0.5921445415006303  0.6279004684484801  1.0000
  C   C1        1.0  0.7005870840195529  0.8449955869579641  0.5856840804261481  1.0000
  C   C2        1.0  0.8558287209945376  0.7401071259045224  0.1548525244416936  1.0000
  C   C3        1.0  0.11567511255170611  0.4149144017798818  0.2599316236288232  1.0000
  C   C4        1.0  0.2994121628955213  0.1550043734964532  0.414314348057573  1.0000
  C   C5        1.0  0.1441718533777419  0.2598918793424687  0.8451483076207962  1.0000
  C   C6        1.0  0.8843245592832574  0.5850846034671164  0.7400681639545182  1.0000
  C   C7        1.0  0.5169990527684831  0.8269106448948449  0.40596710165150535  1.0000
  C   C8        1.0  0.6903218693388027  0.5789483510077318  0.17364429628444364  1.0000
  C   C9        1.0  0.11121791073251334  0.5945583506483345  0.4210502164769352  1.0000
  C   C10       1.0  0.48300072446154735  0.173092181181822  0.5940340918704549  1.0000
  C   C11       1.0  0.3096773775762713  0.4210516094466783  0.8263557166588881  1.0000
  C   C12       1.0  0.8887831412571857  0.4054416098060827  0.578948716505451  1.0000
  C   C13       1.0  0.8068029670392818  0.8254577744106085  0.5505083517330789  1.0000
  C   C14       1.0  0.9815111626699746  0.7247149135554452  0.17435549106463086  1.0000
  C   C15       1.0  0.2567485697224186  0.44963332583672155  0.2751583096335466  1.0000
  C   C16       1.0  0.1931962798757922  0.1745421860438015  0.4494900767506351  1.0000
  C   C17       1.0  0.018488934084878415  0.2752831364841271  0.8256448633885398  1.0000
  C   C18       1.0  0.7432506244951184  0.5503647242028578  0.7248402081106631  1.0000
  C   C19       1.0  0.5453990584066731  0.8061453908141303  0.2944333605306824  1.0000
  C   C20       1.0  0.7397187968550512  0.4888617841184555  0.1942746078178742  1.0000
  C   C21       1.0  0.2506114663270154  0.7052410999051659  0.5111774929939513  1.0000
  C   C22       1.0  0.4546011964407768  0.19385839046995562  0.7055675183707848  1.0000
  C   C23       1.0  0.2602804500600229  0.5111381763359546  0.8057254051254573  1.0000
  C   C24       1.0  0.749389108045257  0.2947579053418252  0.48882175460892086  1.0000
  N   N1        1.0  0.6419807439585767  0.9119852384568503  0.5299706452403399  1.0000
  N   N2        1.0  0.7301713020536695  0.6178243377518768  0.08808807307696043  1.0000
  N   N3        1.0  0.1123187122272498  0.47078734933694477  0.38275455816953746  1.0000
  N   N4        1.0  0.35801807803660773  0.0880156772049787  0.4700295930629819  1.0000
  N   N5        1.0  0.26982884739871343  0.3821756227025404  0.9119121921157075  1.0000
  N   N6        1.0  0.8876814372251332  0.5292126111174653  0.6172449147933178  1.0000
  N   N7        1.0  0.8220167838081522  0.7193074843567331  0.5209357101301108  1.0000
  N   N8        1.0  0.10293700925596037  0.8016664232266422  0.28064617270570114  1.0000
  N   N9        1.0  0.301865337277313  0.47963065962165524  0.19842656597543137  1.0000
  N   N10       1.0  0.17798246310692184  0.2806924760976841  0.4790635105834155  1.0000
  N   N11       1.0  0.8970645203511581  0.1983344924351869  0.7193548223456218  1.0000
  N   N12       1.0  0.6981343345576505  0.520368345625343  0.8015724293781046  1.0000
  N   N13       1.0  0.9339465661845594  0.7437092130814094  0.503727588150113  1.0000
  N   N14       1.0  0.1904725757171306  0.7603030763635346  0.2563096544732986  1.0000
  N   N15       1.0  0.4306366319585422  0.4965129955443004  0.23972154565996823  1.0000
  N   N16       1.0  0.06605358326782351  0.2562907473730007  0.4962718848127423  1.0000
  N   N17       1.0  0.8095275737352523  0.23969688409087553  0.7436906107193619  1.0000
  N   N18       1.0  0.5693630925739583  0.5034879201175286  0.7602789448926897  1.0000
  N   N19       1.0  0.9825405376307331  0.8599608215907679  0.5208036545628403  1.0000
  N   N20       1.0  0.12278015586170453  0.660907057969105  0.13998159764049933  1.0000
  N   N21       1.0  0.46166568060490226  0.4788215989377989  0.33893780500775245  1.0000
  N   N22       1.0  0.01745870928434101  0.1400391388636493  0.4791963583804985  1.0000
  N   N23       1.0  0.8772208961279874  0.3390929024853122  0.8600189198014973  1.0000
  N   N24       1.0  0.5383340439275983  0.5211793167240373  0.6610626855448982  1.0000
  N   N25       1.0  0.9056979555513962  0.9145490151693352  0.5508649847519109  1.0000
  N   N26       1.0  0.9913314398615397  0.6360048005568899  0.08523722709290368  1.0000
  N   N27       1.0  0.35477860451452864  0.4486532830248676  0.36371625095391374  1.0000
  N   N28       1.0  0.09430129136367779  0.0854509452850749  0.4491342359616083  1.0000
  N   N29       1.0  0.008669134510732627  0.3639942046901083  0.9147628127397738  1.0000
  N   N30       1.0  0.6452201647831259  0.5513457222221234  0.6362824921502933  1.0000
  N   N31       1.0  0.6638672355024439  0.87757962243343  0.30374762827761254  1.0000
  N   N32       1.0  0.7869546335485396  0.4273894106714593  0.1224877991464055  1.0000
  N   N33       1.0  0.3594312877072952  0.6951961386874075  0.5723681246157212  1.0000
  N   N34       1.0  0.3361334442648953  0.1224232036432369  0.696252233034066  1.0000
  N   N35       1.0  0.2130455159038434  0.5726105497829508  0.8775124660462621  1.0000
  N   N36       1.0  0.6405697642823968  0.3048038217670026  0.42763160059646305  1.0000
  N   N37       1.0  0.6485606485781972  0.8338502267935723  0.18293700759453893  1.0000
  N   N38       1.0  0.8150409580004806  0.350459870770905  0.16597939321973598  1.0000
  N   N39       1.0  0.4643108641231067  0.8154147236076952  0.6496107311100588  1.0000
  N   N40       1.0  0.3514395008741928  0.1661497336608448  0.8170624653683161  1.0000
  N   N41       1.0  0.18495919145190248  0.6495400896835122  0.8340208719729317  1.0000
  N   N42       1.0  0.5356897629467028  0.1845861920541338  0.3503900116919282  1.0000
  N   N43       1.0  0.5255433355586234  0.7385510930190406  0.10344134494355464  1.0000
  N   N44       1.0  0.7870267728406334  0.365744144681635  0.2615882857700598  1.0000
  N   N45       1.0  0.4207924116421112  0.8952528700989787  0.6347331999614737  1.0000
  N   N46       1.0  0.4744572388136491  0.2614479122279505  0.8965586948891229  1.0000
  N   N47       1.0  0.21297337661175675  0.6342558157727751  0.7384119794226081  1.0000
  N   N48       1.0  0.5792068352729629  0.1047470903554313  0.36526681298185787  1.0000
  N   N49       1.0  0.45774586463008404  0.7191078460061675  0.17115344987310263  1.0000
  N   N50       1.0  0.7387990162778661  0.4524091585962111  0.281398579056706  1.0000
  N   N51       1.0  0.2858413772178565  0.8283568289271486  0.5480685739999701  1.0000
  N   N52       1.0  0.5422534349825199  0.2808940248630805  0.8288472660395385  1.0000
  N   N53       1.0  0.2612011331745236  0.5475908018582061  0.7186016861359618  1.0000
  N   N54       1.0  0.7141582946171071  0.1716421763198497  0.4519304213535661  1.0000
