data_image0
_chemical_formula_structural       Zn2H28C36S4N12O14
_chemical_formula_sum              "Zn2 H28 C36 S4 N12 O14"
_cell_length_a       8.356172123754707
_cell_length_b       11.262729969582795
_cell_length_c       12.182261309496843
_cell_angle_alpha    108.36677308362965
_cell_angle_beta     95.13534956649872
_cell_angle_gamma    103.29176942045486

_space_group_name_H-M_alt    "P 1"
_space_group_IT_number       1

loop_
  _space_group_symop_operation_xyz
  'x, y, z'

loop_
  _atom_site_type_symbol
  _atom_site_label
  _atom_site_symmetry_multiplicity
  _atom_site_fract_x
  _atom_site_fract_y
  _atom_site_fract_z
  _atom_site_occupancy
  Zn  Zn1       1.0  0.25082441074582124  0.1571919801527812  0.48404386456708454  1.0000
  Zn  Zn2       1.0  0.7491769920750219  0.8428109726059391  0.515953852583664  1.0000
  H   H1        1.0  0.3038889622208742  0.9429445032521857  0.5185758442985674  1.0000
  H   H2        1.0  0.6961114916204137  0.0570593007469427  0.4814237359752128  1.0000
  H   H3        1.0  0.10585910762078744  0.9054359455793701  0.4773201682433523  1.0000
  H   H4        1.0  0.8941431811581851  0.09456212978766841  0.5226776455585238  1.0000
  H   H5        1.0  0.3678173891538421  0.8012594826655146  0.12803775752221477  1.0000
  H   H6        1.0  0.6321862120287635  0.19873136914452522  0.8719676258919193  1.0000
  H   H7        1.0  0.5601183623162173  0.9152933568825363  0.3188183630236523  1.0000
  H   H8        1.0  0.439897605821507  0.08471002851469223  0.681179595452015  1.0000
  H   H9        1.0  0.5981362934180225  0.567295735409907  0.35454955197911897  1.0000
  H   H10       1.0  0.4018741810744119  0.4327096149335931  0.6454634954238615  1.0000
  H   H11       1.0  0.4068962177579465  0.437819572708321  0.1627007577916545  1.0000
  H   H12       1.0  0.5930953355496769  0.5621791486561989  0.8373154886043183  1.0000
  H   H13       1.0  0.8590582426428527  0.2970734547960063  0.6820958299713596  1.0000
  H   H14       1.0  0.1409245282280551  0.7029276914658525  0.31790668917022913  1.0000
  H   H15       1.0  0.8075674884882746  0.37911148879545925  0.586170488441006  1.0000
  H   H16       1.0  0.19243773660772942  0.6209000168815921  0.4138343894158966  1.0000
  H   H17       1.0  0.04081120744587707  0.7986218835514691  0.8916039202056895  1.0000
  H   H18       1.0  0.9591832148088174  0.20137795053354063  0.10839315248992416  1.0000
  H   H19       1.0  0.8367202071016919  0.7391360624528149  0.7053801169582814  1.0000
  H   H20       1.0  0.16328247457106934  0.2608632022042343  0.2946140040089986  1.0000
  H   H21       1.0  0.9934980308138465  0.11278064502467802  0.6960387680708067  1.0000
  H   H22       1.0  0.00649710314826267  0.887221392991833  0.3039541436696638  1.0000
  H   H23       1.0  0.20065644608292393  0.1862659209939181  0.8783698669377245  1.0000
  H   H24       1.0  0.7993342875098507  0.8137259381929739  0.12162763871629792  1.0000
  H   H25       1.0  0.751158894019028  0.17358771811274917  0.3167193791128682  1.0000
  H   H26       1.0  0.24883569131861796  0.8264202555990675  0.6832721616774151  1.0000
  H   H27       1.0  0.774450250571242  0.3402210650138712  0.4026263917939872  1.0000
  H   H28       1.0  0.22554424962752517  0.6597905855521803  0.5973696386502355  1.0000
  C   C1        1.0  0.37392262725970243  0.6093492754978486  0.12908784009318452  1.0000
  C   C2        1.0  0.6260873428431638  0.39064660452993394  0.8709187766000569  1.0000
  C   C3        1.0  0.41685293508599847  0.7454645679065948  0.1745997359805288  1.0000
  C   C4        1.0  0.5831613018820079  0.2545295434833861  0.825405747586089  1.0000
  C   C5        1.0  0.5255797536623277  0.8095272856109831  0.2816670553862083  1.0000
  C   C6        1.0  0.47442427385673375  0.19047258948096868  0.718334746537579  1.0000
  C   C7        1.0  0.5455651348967409  0.6151712911328104  0.30096197583323914  1.0000
  C   C8        1.0  0.4544356527898614  0.38482994839035456  0.6990491082942328  1.0000
  C   C9        1.0  0.4394233790591215  0.5435319063000534  0.19464722722157296  1.0000
  C   C10       1.0  0.560585397330712  0.4564639849751586  0.8053584960012048  1.0000
  C   C11       1.0  0.2644496551272796  0.534785998748852  0.017218733940040965  1.0000
  C   C12       1.0  0.7355557848569348  0.46521076626163466  0.982787065464841  1.0000
  C   C13       1.0  0.09372090112908175  0.49528916428404546  0.8592788307001129  1.0000
  C   C14       1.0  0.9062890615124671  0.5047028205788492  0.14072732723174403  1.0000
  C   C15       1.0  0.9093112517104488  0.3722011779008271  0.6453858838411365  1.0000
  C   C16       1.0  0.09068740036931897  0.6277968002221215  0.3546116680848784  1.0000
  C   C17       1.0  0.051322748517279096  0.3427208598513474  0.5781651047758913  1.0000
  C   C18       1.0  0.9486924892839498  0.6572916473994751  0.42182676638194755  1.0000
  C   C19       1.0  0.13994150569541125  0.9965750890165881  0.8978863583510022  1.0000
  C   C20       1.0  0.8600485196783155  0.0034181890183902024  0.10210253010540529  1.0000
  C   C21       1.0  0.033023469785277364  0.8697257884351544  0.8495710960126532  1.0000
  C   C22       1.0  0.9669832635979105  0.13026705975049419  0.1504170641161053  1.0000
  C   C23       1.0  0.9205981470180402  0.8368766047343353  0.7467234719878917  1.0000
  C   C24       1.0  0.079398962580747  0.1631161587822376  0.25326076509120554  1.0000
  C   C25       1.0  0.006665106852281599  0.0444828011377396  0.7403008038116284  1.0000
  C   C26       1.0  0.9933221346041917  0.9555170567697291  0.2596917142397147  1.0000
  C   C27       1.0  0.1238615360840285  0.0859756416104389  0.842621692700071  1.0000
  C   C28       1.0  0.8761175980876673  0.9140254074073298  0.1573805645656635  1.0000
  C   C29       1.0  0.26490325887819216  0.0323767450524812  0.001532391757883997  1.0000
  C   C30       1.0  0.7350894616764948  0.9676213766318823  0.998459080458794  1.0000
  C   C31       1.0  0.4703628239183005  0.1535587949824375  0.14006710927566965  1.0000
  C   C32       1.0  0.5296351199424124  0.8464406019885972  0.8599218254527373  1.0000
  C   C33       1.0  0.6852270083348702  0.24868604701959643  0.34420111090368993  1.0000
  C   C34       1.0  0.3147677772348488  0.7513187841960587  0.6557943400757368  1.0000
  C   C35       1.0  0.5436136331893807  0.20466637473856514  0.40590725738025674  1.0000
  C   C36       1.0  0.45638209389858286  0.7953337100717874  0.5940858717147607  1.0000
  S   S1        1.0  0.970611483807815  0.5302671857376637  0.7594649790838163  1.0000
  S   S2        1.0  0.029389092697044816  0.46972967833720264  0.24055451424590055  1.0000
  S   S3        1.0  0.6203671240046164  0.2943900735884882  0.22181206192286143  1.0000
  S   S4        1.0  0.3796307347172175  0.7056130002367811  0.7781813624594777  1.0000
  N   N1        1.0  0.5898333232314313  0.7464467152281173  0.34400089305016485  1.0000
  N   N2        1.0  0.41016662659584574  0.253555637508228  0.6560072171292718  1.0000
  N   N3        1.0  0.23359827309228365  0.4107438269490089  0.9571662690421405  1.0000
  N   N4        1.0  0.7664119492053632  0.5892567882366393  0.04284356300597381  1.0000
  N   N5        1.0  0.12316760752439393  0.38418237424966156  0.8545338368482123  1.0000
  N   N6        1.0  0.8768456804640509  0.6158125883807203  0.1454735098414375  1.0000
  N   N7        1.0  0.9080516451961957  0.9219804509914341  0.6914347365796446  1.0000
  N   N8        1.0  0.09193183738211273  0.0780228992019261  0.3085636216068011  1.0000
  N   N9        1.0  0.30097270677268284  0.9604483545518577  0.06073495540764643  1.0000
  N   N10       1.0  0.69901997674193  0.03954967980825331  0.9392581291660563  1.0000
  N   N11       1.0  0.43448482245083403  0.0381643773284708  0.1507093439442357  1.0000
  N   N12       1.0  0.5655118906567721  0.9618349435657337  0.849280309670725  1.0000
  O   O1        1.0  0.054593308901566176  0.2220362394904213  0.5486284046233508  1.0000
  O   O2        1.0  0.9454165165293348  0.7779629140199165  0.45137188334521744  1.0000
  O   O3        1.0  0.148979188268207  0.4296403882948426  0.5558389640979158  1.0000
  O   O4        1.0  0.8510178701189945  0.5703605356735864  0.44417588904625666  1.0000
  O   O5        1.0  0.17826266740406285  0.5955860800153517  0.9598800338358162  1.0000
  O   O6        1.0  0.8217412785735336  0.40440972526320007  0.04012453404063623  1.0000
  O   O7        1.0  0.5532648496447905  0.1191217811687721  0.45081053922228886  1.0000
  O   O8        1.0  0.446747059321183  0.8808841255349834  0.5491929213305157  1.0000
  O   O9        1.0  0.4233846127337984  0.25722858303416274  0.41055302261585075  1.0000
  O   O10       1.0  0.5766119187708229  0.7427625545711153  0.5894429690829527  1.0000
  O   O11       1.0  0.3682944055274079  0.1577684007990072  0.04751050318652259  1.0000
  O   O12       1.0  0.6316940296420982  0.8422314458610315  0.9524829083352844  1.0000
  O   O13       1.0  0.20945697592291873  0.9790886610936268  0.49984598999262897  1.0000
  O   O14       1.0  0.7905471146175813  0.0209152401495984  0.5001538521570055  1.0000
