data_image0
_chemical_formula_structural       Zn4P4H20C8N16O12
_chemical_formula_sum              "Zn4 P4 H20 C8 N16 O12"
_cell_length_a       8.1909632060001
_cell_length_b       9.163963314632376
_cell_length_c       9.837268035540353
_cell_angle_alpha    103.73950957072928
_cell_angle_beta     89.99998585258835
_cell_angle_gamma    90.00001373395725

_space_group_name_H-M_alt    "P 1"
_space_group_IT_number       1

loop_
  _space_group_symop_operation_xyz
  'x, y, z'

loop_
  _atom_site_type_symbol
  _atom_site_label
  _atom_site_symmetry_multiplicity
  _atom_site_fract_x
  _atom_site_fract_y
  _atom_site_fract_z
  _atom_site_occupancy
  Zn  Zn1       1.0  0.10482889828719519  0.0383404056977881  0.3194039113578029  1.0000
  Zn  Zn2       1.0  0.6048262608572088  0.46166078270473304  0.680597186768388  1.0000
  Zn  Zn3       1.0  0.8951706883302321  0.9616600578140432  0.6805976622368204  1.0000
  Zn  Zn4       1.0  0.3951708840453989  0.5383396994379268  0.3194013413680068  1.0000
  P   P1        1.0  0.1676738374393096  0.788622928997796  0.4824789775023746  1.0000
  P   P2        1.0  0.6676711849247922  0.7113767804093243  0.5175210784120736  1.0000
  P   P3        1.0  0.832324528320676  0.21137642357612657  0.5175203116217019  1.0000
  P   P4        1.0  0.33232718083519325  0.2886225721646055  0.48247821071200286  1.0000
  H   H1        1.0  0.31996972990108924  0.8612015393417778  0.5022873776255636  1.0000
  H   H2        1.0  0.8199695065073412  0.6387981855165704  0.4977146837201404  1.0000
  H   H3        1.0  0.6800298567166435  0.13879893659075287  0.4977121656634438  1.0000
  H   H4        1.0  0.180030080110086  0.361202277995261  0.5022868898744832  1.0000
  H   H5        1.0  0.47791691807396564  0.7995433870461212  0.7706564050493653  1.0000
  H   H6        1.0  0.9779167906849153  0.7004563729285205  0.22934461534633496  1.0000
  H   H7        1.0  0.5220838894009959  0.20045595310732975  0.22934491438012827  1.0000
  H   H8        1.0  0.0220840167900889  0.2995418500767854  0.7706554347653167  1.0000
  H   H9        1.0  0.33346502489913377  0.8163825785981015  0.9009658164725778  1.0000
  H   H10       1.0  0.8334649321904237  0.6836171611507281  0.09903421236333541  1.0000
  H   H11       1.0  0.6665357825759841  0.18361676776569877  0.0990344878041043  1.0000
  H   H12       1.0  0.16653587528469424  0.3163821852130724  0.9009660919133465  1.0000
  H   H13       1.0  0.5314186028310458  0.9986900962424622  0.6700882698241201  1.0000
  H   H14       1.0  0.0314175650964827  0.5013107115872018  0.32991206250949995  1.0000
  H   H15       1.0  0.4685834255017625  0.0013114906280832996  0.3299135579353347  1.0000
  H   H16       1.0  0.9685808006637584  0.4986897705555646  0.6700864656267953  1.0000
  H   H17       1.0  0.4213154429524694  0.16746481887927434  0.7213530514863606  1.0000
  H   H18       1.0  0.9213165553752418  0.3325386679504732  0.2786495184313154  1.0000
  H   H19       1.0  0.5786865853800833  0.8325356384224275  0.27864953726086833  1.0000
  H   H20       1.0  0.0786818103847509  0.6674606846234495  0.7213497706927541  1.0000
  C   C1        1.0  0.20563638118344577  0.05995823488559181  0.024953287514286205  1.0000
  C   C2        1.0  0.7056373127377924  0.44004411395558657  0.9750450028535482  1.0000
  C   C3        1.0  0.7943680888653971  0.940040025382146  0.9750406716802188  1.0000
  C   C4        1.0  0.29435983216630746  0.559960905093483  0.02494743587330823  1.0000
  C   C5        1.0  0.37414879190130523  0.0091097601646482  0.833866727547843  1.0000
  C   C6        1.0  0.8741487575262212  0.49089260088487635  0.16613458075571688  1.0000
  C   C7        1.0  0.6258495738580268  0.9908906847160205  0.16613789150530064  1.0000
  C   C8        1.0  0.1258532708062248  0.5091067330583313  0.8338677538264818  1.0000
  N   N1        1.0  0.14493776260232488  0.0319686762839737  0.1247115623112975  1.0000
  N   N2        1.0  0.6449399519939903  0.4680313898904771  0.875290290251378  1.0000
  N   N3        1.0  0.8550593822987479  0.9680283861004139  0.8752943245524704  1.0000
  N   N4        1.0  0.3550620763382568  0.5319690549905258  0.12471432880146689  1.0000
  N   N5        1.0  0.26458536367639607  0.09914104294061588  0.9182717479536322  1.0000
  N   N6        1.0  0.7645877732906641  0.40086129805791865  0.08172957824449872  1.0000
  N   N7        1.0  0.735416664656249  0.9008571800648042  0.08172830215792712  1.0000
  N   N8        1.0  0.23541181332726777  0.5991380669368239  0.9182676805738623  1.0000
  N   N9        1.0  0.409364538453488  0.8699912373082411  0.8463894998243687  1.0000
  N   N10       1.0  0.909365636599091  0.6300073867622371  0.15361127760272095  1.0000
  N   N11       1.0  0.5906374898791569  0.13000698569717176  0.1536105502871834  1.0000
  N   N12       1.0  0.09063395001884093  0.3699919782324983  0.84638598121564  1.0000
  N   N13       1.0  0.4506196732546357  0.06438762556653188  0.7377604759480505  1.0000
  N   N14       1.0  0.9506208168854114  0.4356113607715243  0.2622431028289256  1.0000
  N   N15       1.0  0.5493823550782223  0.9356128441558694  0.26224008249356245  1.0000
  N   N16       1.0  0.04937510715960511  0.5643880042228773  0.7377541559897338  1.0000
  O   O1        1.0  0.07419035061930399  0.8463255208676512  0.3691813964201954  1.0000
  O   O2        1.0  0.5741900912080595  0.6536752823690575  0.6308209592331551  1.0000
  O   O3        1.0  0.9258080151407454  0.15367607221291013  0.6308194161867462  1.0000
  O   O4        1.0  0.4258094954092186  0.3463251749324243  0.3691816295142729  1.0000
  O   O5        1.0  0.08038616215050352  0.8250011350816632  0.6250448035677322  1.0000
  O   O6        1.0  0.5803859847117038  0.674999669288944  0.37495755107367046  1.0000
  O   O7        1.0  0.9196134244671866  0.17500045799900474  0.374956009039117  1.0000
  O   O8        1.0  0.4196136019055672  0.325000788012538  0.6250450376737646  1.0000
  O   O9        1.0  0.1986286686457532  0.6185244989925635  0.43250936660385964  1.0000
  O   O10       1.0  0.6986272654447561  0.8814763394382155  0.5674909384197235  1.0000
  O   O11       1.0  0.8013648136843514  0.38147711892894864  0.5674873853922476  1.0000
  O   O12       1.0  0.30137232117318996  0.11852638321129662  0.4325091131993446  1.0000
