data_image0
_chemical_formula_structural       Cd10H104C120N24Cl4O24
_chemical_formula_sum              "Cd10 H104 C120 N24 Cl4 O24"
_cell_length_a       9.44098476903066
_cell_length_b       15.828268454875106
_cell_length_c       27.999943837692648
_cell_angle_alpha    96.43000349511426
_cell_angle_beta     99.73191503718417
_cell_angle_gamma    107.37469456806225

_space_group_name_H-M_alt    "P 1"
_space_group_IT_number       1

loop_
  _space_group_symop_operation_xyz
  'x, y, z'

loop_
  _atom_site_type_symbol
  _atom_site_label
  _atom_site_symmetry_multiplicity
  _atom_site_fract_x
  _atom_site_fract_y
  _atom_site_fract_z
  _atom_site_occupancy
  Cd  Cd1       1.0  0.9999972164100299  4.2047834369999474e-07  2.567001758002546e-07  1.0000
  Cd  Cd2       1.0  0.49999755499368354  0.5000002740185323  0.5000004324963356  1.0000
  Cd  Cd3       1.0  0.7752781980379169  0.8352028507526015  0.071343400558014  1.0000
  Cd  Cd4       1.0  0.36881470001710437  0.6649623124267877  0.4286452339026993  1.0000
  Cd  Cd5       1.0  0.2247208325668026  0.16479501002803693  0.9286560969539225  1.0000
  Cd  Cd6       1.0  0.6311754832717044  0.33504495509565396  0.571356477728024  1.0000
  Cd  Cd7       1.0  0.903891406231594  0.7467710298873202  0.17105424624708127  1.0000
  Cd  Cd8       1.0  0.486362794484883  0.7533529802824148  0.3289545223145254  1.0000
  Cd  Cd9       1.0  0.0961076147551481  0.253226830728444  0.8289459649863531  1.0000
  Cd  Cd10      1.0  0.5136384398602588  0.2466489129364433  0.6710457134850856  1.0000
  H   H1        1.0  0.5014043172507243  0.10765372328550879  0.14444125289318782  1.0000
  H   H2        1.0  0.7492607693292898  0.3922981950515094  0.3557848564375732  1.0000
  H   H3        1.0  0.4985889275626222  0.8923414482919583  0.8555588095188826  1.0000
  H   H4        1.0  0.2507439790697177  0.6077003381646833  0.6442168031961302  1.0000
  H   H5        1.0  0.47607392179242686  0.9847757698109659  0.074019791246819  1.0000
  H   H6        1.0  0.9171053836148673  0.5151745677534124  0.4262794989997403  1.0000
  H   H7        1.0  0.5239197446826012  0.0152220903735909  0.925978678296744  1.0000
  H   H8        1.0  0.0828922487721258  0.484826652757242  0.5737211984020902  1.0000
  H   H9        1.0  0.3180310490278658  0.9594965898738863  0.023816363218315883  1.0000
  H   H10       1.0  0.8343450506751253  0.5403774675020045  0.4763922968698538  1.0000
  H   H11       1.0  0.6819615674138148  0.0405032861841832  0.9761825282007166  1.0000
  H   H12       1.0  0.16565506015935233  0.4596224091267871  0.5236091756592955  1.0000
  H   H13       1.0  0.482915360049013  0.2711627372916467  0.1995821282471582  1.0000
  H   H14       1.0  0.5120107461187331  0.22887188820546817  0.30050252329848354  1.0000
  H   H15       1.0  0.5170803879279974  0.7288331064296826  0.8004191940170601  1.0000
  H   H16       1.0  0.48799087074494457  0.7711306773474718  0.6994967054900272  1.0000
  H   H17       1.0  0.3047137800970177  0.8329907681699212  0.0714846158791005  1.0000
  H   H18       1.0  0.9003345224318907  0.666921007045154  0.4287932180225625  1.0000
  H   H19       1.0  0.6952773729251263  0.16700440409236714  0.9285110385052279  1.0000
  H   H20       1.0  0.09965518361140367  0.33307550850927464  0.571204935830572  1.0000
  H   H21       1.0  0.30294652318760046  0.901335846513078  0.12523323830806993  1.0000
  H   H22       1.0  0.7765581301026075  0.5986606521399979  0.3749802474327737  1.0000
  H   H23       1.0  0.6970503181036706  0.09865798207663802  0.8747644503339417  1.0000
  H   H24       1.0  0.22342363651248587  0.4013351894379937  0.6250209715110842  1.0000
  H   H25       1.0  0.5405017390636929  0.5710793521915891  0.916519166651746  1.0000
  H   H26       1.0  0.5534613206681556  0.9293202487461445  0.5834145937427309  1.0000
  H   H27       1.0  0.4594958143657664  0.42891582015951  0.0834804334363213  1.0000
  H   H28       1.0  0.44655691324876307  0.0706910557738496  0.4165854390924011  1.0000
  H   H29       1.0  0.7749640641681951  0.5324186277532307  0.1799764254878511  1.0000
  H   H30       1.0  0.5630397513244674  0.9676354651739201  0.31999224673241145  1.0000
  H   H31       1.0  0.22502380208849365  0.46757654298085083  0.8200236795380961  1.0000
  H   H32       1.0  0.4369585231899221  0.0323590354898897  0.6800062820516289  1.0000
  H   H33       1.0  0.6698111635661945  0.39347011223529194  0.2144736958769897  1.0000
  H   H34       1.0  0.5621890885820021  0.1066879429866034  0.2856475735621657  1.0000
  H   H35       1.0  0.33017278140190587  0.6065257301416763  0.7855255076011219  1.0000
  H   H36       1.0  0.4378181568292164  0.8933072310639361  0.7143511647272689  1.0000
  H   H37       1.0  0.02558951773824704  0.19914503593481922  0.06061625936465021  1.0000
  H   H38       1.0  0.26516100333394377  0.30064609103990136  0.439244203666405  1.0000
  H   H39       1.0  0.9744026529967942  0.8008521511039958  0.939386009226631  1.0000
  H   H40       1.0  0.7348333890350106  0.6993510975397967  0.5607528377123856  1.0000
  H   H41       1.0  0.3238674051904198  0.37152675910871835  0.19352372880195656  1.0000
  H   H42       1.0  0.25848159960620626  0.1283680150954893  0.30640579121436673  1.0000
  H   H43       1.0  0.6761297808186982  0.6284697567691353  0.8064780767435452  1.0000
  H   H44       1.0  0.7415158006833951  0.8716365668636  0.6935893885724981  1.0000
  H   H45       1.0  0.10098396972792048  0.33729139033511757  0.1252057546122529  1.0000
  H   H46       1.0  0.1379058132025435  0.16250514588775639  0.37462710709248626  1.0000
  H   H47       1.0  0.8990142814127539  0.6627051255300601  0.8747968275041204  1.0000
  H   H48       1.0  0.8620886766886644  0.8374960755676994  0.6253673351284804  1.0000
  H   H49       1.0  0.47730675470253214  0.5347638608325129  0.3140050600650142  1.0000
  H   H50       1.0  0.12854692986959293  0.9653467645947629  0.186041851410927  1.0000
  H   H51       1.0  0.522681896498419  0.4652346705129985  0.6859938725243283  1.0000
  H   H52       1.0  0.8714647560141557  0.0346544592957301  0.813953596400026  1.0000
  H   H53       1.0  0.5190159187369545  0.3940172801881515  0.2791751212838776  1.0000
  H   H54       1.0  0.34588736881798354  0.10613696475351732  0.22096797600107726  1.0000
  H   H55       1.0  0.48096838951371973  0.6059792341931568  0.7208245026261366  1.0000
  H   H56       1.0  0.6541260400941554  0.8938615707518309  0.7790295472378831  1.0000
  H   H57       1.0  0.6836806796241106  0.8731401380089494  0.2836013515907325  1.0000
  H   H58       1.0  0.026945019034805343  0.6268590644802147  0.21632874688607023  1.0000
  H   H59       1.0  0.3163204956706879  0.1268577229936341  0.7163986284806967  1.0000
  H   H60       1.0  0.9730504583728958  0.37314014003008117  0.7836699126491737  1.0000
  H   H61       1.0  0.8293201832941078  0.8806326657777674  0.2505082774060767  1.0000
  H   H62       1.0  0.19815994097463377  0.6194525719102586  0.2495828855846014  1.0000
  H   H63       1.0  0.17067885211960032  0.11936519508530098  0.7494908632451072  1.0000
  H   H64       1.0  0.8018373178405654  0.3805459608176421  0.7504158360782399  1.0000
  H   H65       1.0  0.8965445445076342  0.698166816948316  0.0073447188360873045  1.0000
  H   H66       1.0  0.6914234171719968  0.802184085407596  0.4926143641766317  1.0000
  H   H67       1.0  0.10345157156094596  0.301829698859784  0.9926566669992809  1.0000
  H   H68       1.0  0.30859124431194124  0.1978285625123206  0.5073862581248179  1.0000
  H   H69       1.0  0.8131547783009978  0.6039087610257922  0.9600074149386233  1.0000
  H   H70       1.0  0.7499486690207179  0.8964076241560335  0.5399879107191127  1.0000
  H   H71       1.0  0.18684314802901272  0.3960870834945141  0.03999189185984871  1.0000
  H   H72       1.0  0.2500652947519982  0.10360368024980461  0.4600097295540309  1.0000
  H   H73       1.0  0.663956606854903  0.5259446025419051  0.023583008725331894  1.0000
  H   H74       1.0  0.614865523888156  0.9743583842347479  0.4763791788664379  1.0000
  H   H75       1.0  0.33604022616085427  0.47405325711001467  0.9764199316953468  1.0000
  H   H76       1.0  0.3851411920161283  0.0256495583992233  0.5236203273293043  1.0000
  H   H77       1.0  0.8579531062102603  0.5357456048658804  0.029092899972752693  1.0000
  H   H78       1.0  0.7936896169805223  0.9647629984371235  0.4709440250356636  1.0000
  H   H79       1.0  0.1420386703745606  0.46424486283337535  0.9709042822653657  1.0000
  H   H80       1.0  0.2063161065982797  0.03524696105956342  0.5290516207065536  1.0000
  H   H81       1.0  0.48825754424441925  0.8734041732675948  0.007766343940332381  1.0000
  H   H82       1.0  0.10788502688107127  0.6265369207903149  0.4923468092954338  1.0000
  H   H83       1.0  0.5117345866762335  0.12658898188468026  0.9922342414797785  1.0000
  H   H84       1.0  0.8921332324232623  0.37347841536892196  0.5076559772931263  1.0000
  H   H85       1.0  0.24496750268841078  0.8523373490212051  0.9480260436092821  1.0000
  H   H86       1.0  0.9456467449645842  0.6473910280751197  0.5521117849538939  1.0000
  H   H87       1.0  0.7550315471522638  0.14766051208916053  0.0519720264596515  1.0000
  H   H88       1.0  0.05437892496602358  0.3526182604128607  0.44789284229176474  1.0000
  H   H89       1.0  0.1341896011286821  0.7195843154769079  0.8822426422393905  1.0000
  H   H90       1.0  0.03313089366103134  0.7803268854123928  0.6177782053079284  1.0000
  H   H91       1.0  0.8658134235707067  0.28041489051089025  0.11775467293772829  1.0000
  H   H92       1.0  0.966893279858354  0.21967971431630667  0.382227951956864  1.0000
  H   H93       1.0  0.2569749722956232  0.6005157678768781  0.8733832649721976  1.0000
  H   H94       1.0  0.2836743420201486  0.8996522482163912  0.6265177362242653  1.0000
  H   H95       1.0  0.7430247842030226  0.39948142129890135  0.1266148043749595  1.0000
  H   H96       1.0  0.7163431172417133  0.10035771147057909  0.373485024354558  1.0000
  H   H97       1.0  0.611295018824407  0.9334672925677266  0.21216932562273166  1.0000
  H   H98       1.0  0.9653499969520495  0.5666446223489457  0.2877934827727628  1.0000
  H   H99       1.0  0.3887021912296618  0.06652922372229142  0.7878306956190215  1.0000
  H   H100      1.0  0.03464833180369442  0.4333539104487085  0.7122056586002046  1.0000
  H   H101      1.0  0.4914638153060836  0.8211867922506216  0.1987619874341178  1.0000
  H   H102      1.0  0.9712019583735553  0.6789054704541044  0.30107109662447584  1.0000
  H   H103      1.0  0.5085355490560417  0.17880972442621607  0.8012378026456306  1.0000
  H   H104      1.0  0.028789931502970517  0.3210930615952848  0.6989269539307446  1.0000
  C   C1        1.0  0.2132663891532331  0.1587006195784255  0.09426520303829732  1.0000
  C   C2        1.0  0.45985988295600316  0.34118267154717324  0.4057301483045919  1.0000
  C   C3        1.0  0.7867308456170149  0.8412979127373033  0.9057353029282851  1.0000
  C   C4        1.0  0.5401412779118291  0.6588151892081059  0.5942709023490877  1.0000
  C   C5        1.0  0.3427078711460041  0.18028980554571214  0.13303177908078112  1.0000
  C   C6        1.0  0.5290260493892731  0.3196585304226789  0.36701531212692373  1.0000
  C   C7        1.0  0.6572918908328661  0.8197093993260438  0.8669682024342151  1.0000
  C   C8        1.0  0.47097732002796966  0.6803433628532571  0.6329861199536779  1.0000
  C   C9        1.0  0.3191833364078819  0.05451854653323101  0.08269695287948052  1.0000
  C   C10       1.0  0.6816967624255241  0.4453664522095553  0.4174386025011786  1.0000
  C   C11       1.0  0.680811022298144  0.9454786414694355  0.9173025865245564  1.0000
  C   C12       1.0  0.3183033236927742  0.554631408393533  0.5825623853031275  1.0000
  C   C13       1.0  0.35288009114970015  0.9724222320883059  0.064089883672878  1.0000
  C   C14       1.0  0.816096025345658  0.52748262228463  0.4361262831600783  1.0000
  C   C15       1.0  0.6471124957668054  0.027575627861622803  0.9359088798820564  1.0000
  C   C16       1.0  0.18390193118076326  0.47251725395734917  0.5638754205310619  1.0000
  C   C17       1.0  0.38411295460817035  0.2557194313493127  0.1696640934219005  1.0000
  C   C18       1.0  0.4583900438681639  0.24425798311380476  0.3303532254007067  1.0000
  C   C19       1.0  0.6158839072615266  0.7442784287972017  0.8303367058342844  1.0000
  C   C20       1.0  0.5416140953951398  0.7557452549127249  0.6696458357969562  1.0000
  C   C21       1.0  0.26982394560086226  0.8900623564692367  0.08496081320688378  1.0000
  C   C22       1.0  0.7947588561915283  0.6098901658386496  0.4152388897181681  1.0000
  C   C23       1.0  0.7301696961579793  0.10993348768960938  0.9150371716118428  1.0000
  C   C24       1.0  0.20523010953087348  0.3901070210733265  0.5847617628819961  1.0000
  C   C25       1.0  0.6653872587874119  0.8526413281474348  0.15721991497454013  1.0000
  C   C26       1.0  0.15531054521888882  0.6475819100070553  0.34277210643053735  1.0000
  C   C27       1.0  0.3346120959567358  0.1473551883645356  0.842780588826706  1.0000
  C   C28       1.0  0.8446882106787683  0.35242132709365853  0.6572273542417619  1.0000
  C   C29       1.0  0.663217679669394  0.6704020975438071  0.9791561334931915  1.0000
  C   C30       1.0  0.5142424391025884  0.8299593634644893  0.5208032692040803  1.0000
  C   C31       1.0  0.33677663508449035  0.3295930741034212  0.020844348629005107  1.0000
  C   C32       1.0  0.48577257123696443  0.1700539562124703  0.47919884411151514  1.0000
  C   C33       1.0  0.5076159261038312  0.7491597093429901  0.9733099424755239  1.0000
  C   C34       1.0  0.28579032586134895  0.7510481356241596  0.5266708262622615  1.0000
  C   C35       1.0  0.49238164242382254  0.25083747886893804  0.026690856058884504  1.0000
  C   C36       1.0  0.7142250278535869  0.24896384011387343  0.47333086589964785  1.0000
  C   C37       1.0  0.44324200398097724  0.6732342242400479  0.93532720450429  1.0000
  C   C38       1.0  0.3352928225332619  0.8270069452361852  0.5646050656168597  1.0000
  C   C39       1.0  0.5567566441052066  0.326762964206509  0.0646733000187396  1.0000
  C   C40       1.0  0.6647243517323318  0.173006374992454  0.43539610281523994  1.0000
  C   C41       1.0  0.6872316427550588  0.6110217278633953  0.2286358667183563  1.0000
  C   C42       1.0  0.3480903761831371  0.8889921953734259  0.2712329079945448  1.0000
  C   C43       1.0  0.3127555855119795  0.38897814718642104  0.771363781036051  1.0000
  C   C44       1.0  0.6519104598740313  0.11100499403698191  0.7287648673412406  1.0000
  C   C45       1.0  0.7109114980147454  0.532355011489706  0.20900808186304695  1.0000
  C   C46       1.0  0.4700394941077377  0.9677137268637352  0.2909227748858001  1.0000
  C   C47       1.0  0.28908254684106544  0.4676455365600277  0.79099200655876  1.0000
  C   C48       1.0  0.5299634426873611  0.0322814464131724  0.7090764257276376  1.0000
  C   C49       1.0  0.6518847905708683  0.4555703805388519  0.22868527600795122  1.0000
  C   C50       1.0  0.4680487482042254  0.04453538722329141  0.2713128359779233  1.0000
  C   C51       1.0  0.34809953691576817  0.5444261341721911  0.7713129204590674  1.0000
  C   C52       1.0  0.5319624967818797  0.9554631477303771  0.7286856321445399  1.0000
  C   C53       1.0  0.09829075304124055  0.8640284559666895  0.06972610612474739  1.0000
  C   C54       1.0  0.6644708960140447  0.6359351069722052  0.43036686664964924  1.0000
  C   C55       1.0  0.9017010880741481  0.1359680596448243  0.9302732440093849  1.0000
  C   C56       1.0  0.3355266587578853  0.3640640966059649  0.5696372714955871  1.0000
  C   C57       1.0  0.12346338999271471  0.2147688948427771  0.0908970188867642  1.0000
  C   C58       1.0  0.31723265072113804  0.2850521822456926  0.4090095670772201  1.0000
  C   C59       1.0  0.876531278425773  0.785226948643924  0.9091045973888258  1.0000
  C   C60       1.0  0.6827639405792497  0.7149490386898023  0.5909885694499906  1.0000
  C   C61       1.0  0.2940293291751459  0.3112286042698074  0.16593773167395653  1.0000
  C   C62       1.0  0.3164028596511699  0.1886967328040825  0.3339896136932127  1.0000
  C   C63       1.0  0.7059667820844383  0.6887679114558625  0.8340640110221643  1.0000
  C   C64       1.0  0.683597377559501  0.8113071771950686  0.6660071185136192  1.0000
  C   C65       1.0  0.16669806360614106  0.2911585962073745  0.1270367245276631  1.0000
  C   C66       1.0  0.2479600901427332  0.20869138151187627  0.37284319884695805  1.0000
  C   C67       1.0  0.8332998537771344  0.7088392637615967  0.8729655650208912  1.0000
  C   C68       1.0  0.7520375999521393  0.7913098399879743  0.6271532162258779  1.0000
  C   C69       1.0  0.5424366384844036  0.5341662635092277  0.2853621720835804  1.0000
  C   C70       1.0  0.22315638348428726  0.9659032770075555  0.2146094046633777  1.0000
  C   C71       1.0  0.45755015302275126  0.4658289070726696  0.714637870092993  1.0000
  C   C72       1.0  0.7768498359385276  0.0340939133286682  0.7853879711977784  1.0000
  C   C73       1.0  0.5679092747187512  0.4562135085076093  0.26585459279640844  1.0000
  C   C74       1.0  0.3460664166040175  0.04388788206977521  0.23418439157426016  1.0000
  C   C75       1.0  0.432076843793361  0.5437823345859131  0.7341429520767022  1.0000
  C   C76       1.0  0.6539451717574778  0.9561093089449602  0.765813655394517  1.0000
  C   C77       1.0  0.7091038700489848  0.8451652494110533  0.24960110848981293  1.0000
  C   C78       1.0  0.11425997194473335  0.6548789706216881  0.25037130636417976  1.0000
  C   C79       1.0  0.2908944195636067  0.15483126711359324  0.7503986187405687  1.0000
  C   C80       1.0  0.8857362169299208  0.3451195620364516  0.7496269955885353  1.0000
  C   C81       1.0  0.6854665822688589  0.7474571782537254  0.24926174800363304  1.0000
  C   C82       1.0  0.18885327978597397  0.7525882207588808  0.2507032823437143  1.0000
  C   C83       1.0  0.3145306476924006  0.2525413539795665  0.7507391148237091  1.0000
  C   C84       1.0  0.8111425705222857  0.24741165592062225  0.7492950839019414  1.0000
  C   C85       1.0  0.7952047289401989  0.6385932434906394  0.993616163927932  1.0000
  C   C86       1.0  0.663595108509064  0.8617795590245408  0.5063674187652154  1.0000
  C   C87       1.0  0.2047917353127532  0.36140192846096403  0.0063844438930117965  1.0000
  C   C88       1.0  0.33641416412901043  0.13823107227359094  0.4936316908430242  1.0000
  C   C89       1.0  0.7798639927876893  0.5744171020932073  0.03176805142484801  1.0000
  C   C90       1.0  0.6742141470452057  0.9259694926518806  0.4682241993298534  1.0000
  C   C91       1.0  0.2201360487072322  0.42557672654090345  0.9682316100690329  1.0000
  C   C92       1.0  0.32579155248865277  0.0740404664326419  0.5317732307161123  1.0000
  C   C93       1.0  0.815552974717896  0.623991317090777  0.0844315760014069  1.0000
  C   C94       1.0  0.6076584620983851  0.8763663010841256  0.4155559143727743  1.0000
  C   C95       1.0  0.18445993424625579  0.3760004972614723  0.9155687118208817  1.0000
  C   C96       1.0  0.3923353128593591  0.1236396233681205  0.584443780348643  1.0000
  C   C97       1.0  0.43687959098065937  0.8145360373694359  0.9788693737176787  1.0000
  C   C98       1.0  0.14426439560566717  0.6854594513459986  0.5212060025942975  1.0000
  C   C99       1.0  0.5631150966737835  0.18545980644699264  0.02113081511491541  1.0000
  C   C100      1.0  0.8557534805088949  0.3145531968656242  0.47879552197677105  1.0000
  C   C101      1.0  0.3020973823235168  0.8019965554111154  0.9454874987308984  1.0000
  C   C102      1.0  0.05556806004433674  0.6978715467582006  0.5546195002706256  1.0000
  C   C103      1.0  0.6979027374577028  0.1980013057690115  0.05451099104816139  1.0000
  C   C104      1.0  0.9444569567984261  0.30214043018467157  0.44538347125715216  1.0000
  C   C105      1.0  0.2391200086441857  0.7261196136033591  0.9077683837690956  1.0000
  C   C106      1.0  0.1059681995516543  0.7738614785007061  0.5922524528319002  1.0000
  C   C107      1.0  0.7608804792286038  0.2738789196635453  0.09223016958112142  1.0000
  C   C108      1.0  0.8940556937804444  0.22614848185209985  0.4077517554254158  1.0000
  C   C109      1.0  0.30741127749789865  0.659751672942214  0.9020707374918616  1.0000
  C   C110      1.0  0.24620152726782865  0.8403981849093967  0.5978570851995073  1.0000
  C   C111      1.0  0.6925895489412851  0.3402455163033267  0.0979277515654218  1.0000
  C   C112      1.0  0.7538206286089134  0.15961446358124928  0.40214611821205193  1.0000
  C   C113      1.0  0.6048166409097037  0.6122193304467488  0.2666954111248145  1.0000
  C   C114      1.0  0.2262863687846703  0.887795193545017  0.23319621464916196  1.0000
  C   C115      1.0  0.3951715982475363  0.38777651245654  0.7333044006115375  1.0000
  C   C116      1.0  0.7737194928357881  0.11220334048283581  0.7668026529479235  1.0000
  C   C117      1.0  0.6107323273173934  0.8634586861938446  0.2047713028312899  1.0000
  C   C118      1.0  0.042246474202137625  0.6366585958453684  0.29516779236844576  1.0000
  C   C119      1.0  0.3892681117942658  0.1365378306351843  0.795228550097832  1.0000
  C   C120      1.0  0.9577493712971332  0.3633412807517047  0.7048309307379554  1.0000
  N   N1        1.0  0.2020162725115355  0.079985910755866  0.063941624996005  1.0000
  N   N2        1.0  0.5576965398801262  0.41986508829447194  0.43611144399044127  1.0000
  N   N3        1.0  0.7979770018269859  0.9200112769297419  0.936058565280149  1.0000
  N   N4        1.0  0.4423046457038852  0.580134788486518  0.5638900913880747  1.0000
  N   N5        1.0  0.405876173391988  0.11322083867979421  0.12423248990322831  1.0000
  N   N6        1.0  0.6681999452043996  0.38675480758031716  0.3758962631778644  1.0000
  N   N7        1.0  0.5941203396221013  0.8867763497096844  0.8757668183388035  1.0000
  N   N8        1.0  0.33180156451904  0.6132437249320051  0.6241062784899684  1.0000
  N   N9        1.0  0.6429509218815072  0.7447001851852947  0.9996483819768117  1.0000
  N   N10       1.0  0.3991794192978874  0.7555872047549174  0.5003313431213243  1.0000
  N   N11       1.0  0.3570430103538413  0.2552943141278519  0.00035310715647801004  1.0000
  N   N12       1.0  0.6008330638330507  0.24442544236602257  0.4996712946458715  1.0000
  N   N13       1.0  0.6055489116591632  0.6996402196314337  0.2788235055430164  1.0000
  N   N14       1.0  0.12721723260271026  0.8004007171147763  0.22112336808394423  1.0000
  N   N15       1.0  0.39444329273880646  0.3003569679844204  0.7211762650230187  1.0000
  N   N16       1.0  0.8727811153889891  0.19959781601261992  0.7788743458460203  1.0000
  N   N17       1.0  0.7369297500251335  0.6971750376401856  0.2185905720580408  1.0000
  N   N18       1.0  0.32150293673434777  0.802865977548315  0.2813286468037078  1.0000
  N   N19       1.0  0.2630646038719108  0.3028221502800506  0.7814093242067417  1.0000
  N   N20       1.0  0.6784932617582841  0.19713255527469192  0.7186689414275094  1.0000
  N   N21       1.0  0.5441455054211064  0.6250032807578948  0.9405519211268043  1.0000
  N   N22       1.0  0.4791683736770975  0.8753564727771843  0.5593796584402497  1.0000
  N   N23       1.0  0.4558499232254648  0.37499390731452564  0.05944803798735172  1.0000
  N   N24       1.0  0.520846283669087  0.12465819067384133  0.4406235897505297  1.0000
  Cl  Cl1       1.0  0.8076145654044211  0.9971992847905466  0.06024054423895818  1.0000
  Cl  Cl2       1.0  0.2501151385818048  0.5029269685433917  0.4396896909036911  1.0000
  Cl  Cl3       1.0  0.19237871374308207  0.0027979029774912  0.9397592891764504  1.0000
  Cl  Cl4       1.0  0.7498865229052498  0.49707962897852553  0.5603108641952446  1.0000
  O   O1        1.0  0.8086637674726661  0.8649800997593432  0.1601140930751299  1.0000
  O   O2        1.0  0.2834874385528395  0.6353880208348601  0.33993563872817134  1.0000
  O   O3        1.0  0.19133634817080042  0.1350197769518928  0.839887022593267  1.0000
  O   O4        1.0  0.7165102576934858  0.3646172319745062  0.6600649575410814  1.0000
  O   O5        1.0  0.037110974162225106  0.8684469528678563  0.026214577323806103  1.0000
  O   O6        1.0  0.642464190039995  0.6316569416933009  0.47388409161914075  1.0000
  O   O7        1.0  0.962876175818515  0.131548889635944  0.9737862421454223  1.0000
  O   O8        1.0  0.3575416145438269  0.36834360695888796  0.5261213273355169  1.0000
  O   O9        1.0  0.5733897715406115  0.8351545418378308  0.1163289183962419  1.0000
  O   O10       1.0  0.12155921204840338  0.6649235407885641  0.3836338055579133  1.0000
  O   O11       1.0  0.42661066276205867  0.16484197490876798  0.8836712913936327  1.0000
  O   O12       1.0  0.878435583417513  0.3350783516820215  0.6163653394239503  1.0000
  O   O13       1.0  0.7484793989015657  0.6820871758101958  0.09340434989738358  1.0000
  O   O14       1.0  0.4736994395578692  0.8179388796895996  0.4065858004670133  1.0000
  O   O15       1.0  0.25154685891508427  0.3179113606970958  0.9065974961415578  1.0000
  O   O16       1.0  0.5262943161639129  0.1820670444329124  0.5934153216973996  1.0000
  O   O17       1.0  0.9098600559589869  0.608679858371282  0.1171880176718503  1.0000
  O   O18       1.0  0.6843584784448071  0.8919670343077969  0.3827968320533444  1.0000
  O   O19       1.0  0.09014559965650189  0.3913065785131309  0.8828122239052051  1.0000
  O   O20       1.0  0.3156330728653245  0.1080328417629488  0.6172012827948166  1.0000
  O   O21       1.0  0.020385301377160825  0.838076918957782  0.10157210731290432  1.0000
  O   O22       1.0  0.5806858573979241  0.6618145524118901  0.3984678938217243  1.0000
  O   O23       1.0  0.9796155408314677  0.1619243017621343  0.8984298492192978  1.0000
  O   O24       1.0  0.4193142650682375  0.33819137122238624  0.6015396720716737  1.0000
