data_image0
_chemical_formula_structural       Ca4H56C48N8O20
_chemical_formula_sum              "Ca4 H56 C48 N8 O20"
_cell_length_a       7.499708897309646
_cell_length_b       11.144092351932864
_cell_length_c       15.76800152652702
_cell_angle_alpha    90.00034927124373
_cell_angle_beta     90.00156028619493
_cell_angle_gamma    89.99854833592133

_space_group_name_H-M_alt    "P 1"
_space_group_IT_number       1

loop_
  _space_group_symop_operation_xyz
  'x, y, z'

loop_
  _atom_site_type_symbol
  _atom_site_label
  _atom_site_symmetry_multiplicity
  _atom_site_fract_x
  _atom_site_fract_y
  _atom_site_fract_z
  _atom_site_occupancy
  Ca  Ca1       1.0  0.9892834733923196  0.7965759915140393  0.2319582742059154  1.0000
  Ca  Ca2       1.0  0.0107128054168726  0.2965836663906102  0.768035897467733  1.0000
  Ca  Ca3       1.0  0.510705848273254  0.2965792164671726  0.7319438910101254  1.0000
  Ca  Ca4       1.0  0.48927709697274224  0.7965669815110701  0.2680515489394181  1.0000
  H   H1        1.0  0.14857726009996952  0.39287955612238784  0.0058167547471442  1.0000
  H   H2        1.0  0.8514207546479754  0.8928825976386178  0.994198761604494  1.0000
  H   H3        1.0  0.35142340288560087  0.8928713329426259  0.5058140302925977  1.0000
  H   H4        1.0  0.6485626108652768  0.3928746687403901  0.4941723129404209  1.0000
  H   H5        1.0  0.1514553164613162  0.4896854466632377  0.09056202770321417  1.0000
  H   H6        1.0  0.8485257474561722  0.9896931932104774  0.9094596146976099  1.0000
  H   H7        1.0  0.3485519029415869  0.9896727862042948  0.5905630710839347  1.0000
  H   H8        1.0  0.6514318274032505  0.4896825227822104  0.4094313008653145  1.0000
  H   H9        1.0  0.41410933095441044  0.5813840253719957  0.14424796961935724  1.0000
  H   H10       1.0  0.5859069894261566  0.08141667201860509  0.8557852265305144  1.0000
  H   H11       1.0  0.08591220936464342  0.08139672667309128  0.6442402705729293  1.0000
  H   H12       1.0  0.9140761089705335  0.5813806400010364  0.3557440922697808  1.0000
  H   H13       1.0  0.43164425540365414  0.32183363269589893  0.9402399620944663  1.0000
  H   H14       1.0  0.5683230792055837  0.821819146172487  0.0597612946583723  1.0000
  H   H15       1.0  0.06835720383200791  0.8218403310135115  0.4402374638611376  1.0000
  H   H16       1.0  0.9316407977637552  0.32183577827309756  0.559748572442544  1.0000
  H   H17       1.0  0.9141991935393323  0.48809483153824124  0.0290049580902689  1.0000
  H   H18       1.0  0.08579792908173539  0.9881350545672943  0.9709906755835787  1.0000
  H   H19       1.0  0.5858060503490848  0.9881028369655237  0.5290178103972706  1.0000
  H   H20       1.0  0.4141684052613214  0.48810999997533594  0.47098543344191046  1.0000
  H   H21       1.0  0.0310861343841466  0.22934525637413122  0.3693271457356957  1.0000
  H   H22       1.0  0.968952658090018  0.7293628951713699  0.6306768828022837  1.0000
  H   H23       1.0  0.4689373983786139  0.7293565506712126  0.8693284839107205  1.0000
  H   H24       1.0  0.5310627262425952  0.2293560879485382  0.13068949669301594  1.0000
  H   H25       1.0  0.9924364572847538  0.076346645198079  0.39796192264196145  1.0000
  H   H26       1.0  0.007601384520604901  0.5763644010495027  0.602028126531394  1.0000
  H   H27       1.0  0.5075665736696281  0.5763550973288998  0.8979648802614617  1.0000
  H   H28       1.0  0.492441934032719  0.0763604359209396  0.1020410236255955  1.0000
  H   H29       1.0  0.8118615815859513  0.1733133644090046  0.3726730373093901  1.0000
  H   H30       1.0  0.18817797085171145  0.6733237488361112  0.627318065137068  1.0000
  H   H31       1.0  0.6881563834693551  0.6733079462761322  0.8726891211404108  1.0000
  H   H32       1.0  0.3118525017443973  0.17331660458241768  0.1273159333869174  1.0000
  H   H33       1.0  0.847817606709299  0.3273700899178492  0.285381628347082  1.0000
  H   H34       1.0  0.15219085553626852  0.827380945518186  0.7146209210472135  1.0000
  H   H35       1.0  0.6521709489110208  0.8273814417370173  0.7853845612085806  1.0000
  H   H36       1.0  0.34779084481426287  0.3273776701440737  0.2146217930748335  1.0000
  H   H37       1.0  0.759857758733503  0.3335009983718819  0.1808047234388468  1.0000
  H   H38       1.0  0.24012780691389676  0.8335193182366321  0.8192035600822009  1.0000
  H   H39       1.0  0.7401125947224401  0.8335260939697092  0.6808062616124813  1.0000
  H   H40       1.0  0.2598876375473793  0.33353191065634036  0.31920519306412837  1.0000
  H   H41       1.0  0.9847115845130859  0.3733561356947916  0.19865000187905218  1.0000
  H   H42       1.0  0.0152658250856206  0.8733557315820375  0.8013470382751819  1.0000
  H   H43       1.0  0.5152489658798771  0.8733554821376542  0.6986574988831933  1.0000
  H   H44       1.0  0.4847417774805009  0.373357282350163  0.301337004576439  1.0000
  H   H45       1.0  0.016707859922732396  0.0674423400125477  0.10989877225510718  1.0000
  H   H46       1.0  0.9833143143368019  0.5674332475494381  0.8900867989043846  1.0000
  H   H47       1.0  0.4833162404788923  0.5674390299300285  0.6099041022829252  1.0000
  H   H48       1.0  0.5166926003724513  0.06744194184683039  0.39010049467498215  1.0000
  H   H49       1.0  0.007333025624873801  0.22243920465059822  0.07809159126266249  1.0000
  H   H50       1.0  0.9926620234550186  0.7224275328603224  0.9219028941439118  1.0000
  H   H51       1.0  0.49270213418014924  0.722433938714701  0.5780894327436171  1.0000
  H   H52       1.0  0.5073235828064356  0.2224417719297662  0.4219126632307989  1.0000
  H   H53       1.0  0.8081993232928469  0.1365797044310924  0.08774526003419678  1.0000
  H   H54       1.0  0.19180960100207767  0.6365763238824726  0.912257098947826  1.0000
  H   H55       1.0  0.6918317433013428  0.6365661472183887  0.5877556837261578  1.0000
  H   H56       1.0  0.30819051521802265  0.13658539434213418  0.4122568224651956  1.0000
  C   C1        1.0  0.6751947837963357  0.5409404084369882  0.09394136304440077  1.0000
  C   C2        1.0  0.3248083800332894  0.040980664945060086  0.9060808769142878  1.0000
  C   C3        1.0  0.8248148748352762  0.0409543894756013  0.5939354979056191  1.0000
  C   C4        1.0  0.1751642874161163  0.5409460452194208  0.4060505926932692  1.0000
  C   C5        1.0  0.7770814258755081  0.6249519982158629  0.1496347425741646  1.0000
  C   C6        1.0  0.22294659949760393  0.12499083393487345  0.8503682005648938  1.0000
  C   C7        1.0  0.7229416082970348  0.12496772950230906  0.6496332622608916  1.0000
  C   C8        1.0  0.2770504155431581  0.6249571561582599  0.35035319151540273  1.0000
  C   C9        1.0  0.49036532462682203  0.528171125559723  0.0989458426972973  1.0000
  C   C10       1.0  0.5096383166888075  0.028188422381987294  0.9010744394397605  1.0000
  C   C11       1.0  0.009648950053929198  0.02818065029071449  0.5989434953487773  1.0000
  C   C12       1.0  0.990336023071599  0.5281654376068374  0.4010400032828371  1.0000
  C   C13       1.0  0.40021516374145705  0.4463525352235889  0.0455857503757997  1.0000
  C   C14       1.0  0.5997915200722589  0.9463631470790475  0.9544331681331782  1.0000
  C   C15       1.0  0.09979510588261321  0.9463567109529549  0.545581661007759  1.0000
  C   C16       1.0  0.9001875761289354  0.4463580740858291  0.45440618175030767  1.0000
  C   C17       1.0  0.4992803367685354  0.3823765291458514  0.9841516135584953  1.0000
  C   C18       1.0  0.5006967360380942  0.8823852604034528  0.015860052101587  1.0000
  C   C19       1.0  0.0007173677625260999  0.8823879787690602  0.48414570025412457  1.0000
  C   C20       1.0  0.9992823715295958  0.3823908598658716  0.5158399635630602  1.0000
  C   C21       1.0  0.684136398440792  0.39792037401149116  0.9786791035896201  1.0000
  C   C22       1.0  0.31584142644110363  0.8979332252840417  0.021316774369005  1.0000
  C   C23       1.0  0.8158605603073994  0.8979255123753161  0.4786804534796403  1.0000
  C   C24       1.0  0.184143931954317  0.3979307786595426  0.5213059117212707  1.0000
  C   C25       1.0  0.7717767315814542  0.4750667534753176  0.03446696767358759  1.0000
  C   C26       1.0  0.2282155447996814  0.9750937148676255  0.9655381225705353  1.0000
  C   C27       1.0  0.7282199768713654  0.9750776962123024  0.5344658144333749  1.0000
  C   C28       1.0  0.2717642987270565  0.4750818747893317  0.4655221524708465  1.0000
  C   C29       1.0  0.9644256723018217  0.10808779939384999  0.26587785461457253  1.0000
  C   C30       1.0  0.035632317666397705  0.6081115934992382  0.7341155028641848  1.0000
  C   C31       1.0  0.5356086308185796  0.6081074354301916  0.7658824445808745  1.0000
  C   C32       1.0  0.4643800234423594  0.10809823947888482  0.23412613315996814  1.0000
  C   C33       1.0  0.7945171159922283  0.34174497477935256  0.91040344975503  1.0000
  C   C34       1.0  0.20545080760779652  0.8417504387219736  0.08959599051258488  1.0000
  C   C35       1.0  0.7054647090200136  0.8417367548359564  0.41040843975903124  1.0000
  C   C36       1.0  0.2945298823910392  0.3417469930464065  0.5895871954818475  1.0000
  C   C37       1.0  0.9498855900196191  0.14953359166882046  0.35657291964238164  1.0000
  C   C38       1.0  0.0501575176331954  0.6495482803217383  0.6434187142580257  1.0000
  C   C39       1.0  0.5501310102315102  0.6495404153728825  0.8565808692520633  1.0000
  C   C40       1.0  0.4498694296069062  0.1495423543996708  0.1434291560508285  1.0000
  C   C41       1.0  0.8783918445896219  0.3117352475601222  0.21857497558241326  1.0000
  C   C42       1.0  0.12160520136384179  0.8117445108625033  0.7814262377702617  1.0000
  C   C43       1.0  0.6215908131184094  0.8117498166877865  0.7185787797889204  1.0000
  C   C44       1.0  0.3783982322811354  0.31174878588485905  0.2814262387272066  1.0000
  C   C45       1.0  0.9417290007017061  0.1512303822865277  0.11465254874600818  1.0000
  C   C46       1.0  0.058284709486663595  0.6512281669408181  0.8853422632392806  1.0000
  C   C47       1.0  0.5583003880270639  0.6512316817379329  0.6146606043424327  1.0000
  C   C48       1.0  0.44171598916224036  0.1512358408907417  0.3853481599866981  1.0000
  N   N1        1.0  0.21947010992564486  0.42788246007491176  0.0555046273144555  1.0000
  N   N2        1.0  0.7805279304375716  0.9278880869804593  0.9445154796930452  1.0000
  N   N3        1.0  0.28053608316686507  0.9278691733937449  0.5555041532998785  1.0000
  N   N4        1.0  0.7194499561630748  0.42788522157817954  0.4444855121974455  1.0000
  N   N5        1.0  0.9296343907909942  0.18740160185193833  0.2034418599393533  1.0000
  N   N6        1.0  0.07039663519956461  0.6874002098714482  0.7965505717060565  1.0000
  N   N7        1.0  0.5703947168917266  0.6874089748868852  0.7034507067948113  1.0000
  N   N8        1.0  0.42959364094242136  0.18740719465125003  0.2965569453032728  1.0000
  O   O1        1.0  0.9375819853384398  0.6006490361538609  0.16863306666940048  1.0000
  O   O2        1.0  0.062461615188595894  0.1006671348647714  0.8313513798130002  1.0000
  O   O3        1.0  0.5624510426556456  0.10065585931798886  0.6686421861717662  1.0000
  O   O4        1.0  0.4375378895521891  0.6006351867502885  0.3313422599014046  1.0000
  O   O5        1.0  0.7005200356604389  0.7219656009945083  0.17509931821845728  1.0000
  O   O6        1.0  0.29948836458768097  0.22199841602542844  0.824911020218515  1.0000
  O   O7        1.0  0.7994834936804907  0.22198540116549734  0.6750912216094987  1.0000
  O   O8        1.0  0.20051557242332047  0.7219813078839152  0.3249051644655623  1.0000
  O   O9        1.0  0.7183103692004024  0.2999366440732486  0.8437469857349953  1.0000
  O   O10       1.0  0.28165911674611976  0.7999341932235282  0.15625481061661617  1.0000
  O   O11       1.0  0.781657210708346  0.7999262177203761  0.3437485258376469  1.0000
  O   O12       1.0  0.21833760962727675  0.29994461936968964  0.6562558074615694  1.0000
  O   O13       1.0  0.008567422558947201  0.0015417247999990995  0.24931446914171565  1.0000
  O   O14       1.0  0.9914812147869582  0.5015438563444761  0.7506727199841661  1.0000
  O   O15       1.0  0.49147510221565927  0.5015427613754894  0.7493154656340052  1.0000
  O   O16       1.0  0.5085188668319418  0.0015437176513230996  0.2506894806206645  1.0000
  O   O17       1.0  0.9636492167684594  0.3420863359939261  0.9177282414552577  1.0000
  O   O18       1.0  0.03632402742128701  0.8420838744021705  0.0822591505853225  1.0000
  O   O19       1.0  0.5363396812673927  0.842071150926095  0.41774752435176765  1.0000
  O   O20       1.0  0.4636468974753498  0.34207213929267505  0.5822468438707771  1.0000
