data_image0
_chemical_formula_structural       Zn4H48C72N8O20
_chemical_formula_sum              "Zn4 H48 C72 N8 O20"
_cell_length_a       11.514678290866035
_cell_length_b       11.953273960565317
_cell_length_c       20.039970939114838
_cell_angle_alpha    89.99992399656664
_cell_angle_beta     90.00038859529933
_cell_angle_gamma    102.34853563670198

_space_group_name_H-M_alt    "P 1"
_space_group_IT_number       1

loop_
  _space_group_symop_operation_xyz
  'x, y, z'

loop_
  _atom_site_type_symbol
  _atom_site_label
  _atom_site_symmetry_multiplicity
  _atom_site_fract_x
  _atom_site_fract_y
  _atom_site_fract_z
  _atom_site_occupancy
  Zn  Zn1       1.0  0.5051272320274194  0.9183262062199375  0.9183672345455918  1.0000
  Zn  Zn2       1.0  0.4948744654712129  0.5816738549340881  0.41836711774497093  1.0000
  Zn  Zn3       1.0  0.4948706659599935  0.08167355658936509  0.08163328850504571  1.0000
  Zn  Zn4       1.0  0.505127095642969  0.4183267875657251  0.5816324073070405  1.0000
  H   H1        1.0  0.5311464950796819  0.1426544872005167  0.6306346310310148  1.0000
  H   H2        1.0  0.5341359042596777  0.6724459723974121  0.683144988599125  1.0000
  H   H3        1.0  0.5271097080096611  0.025431694392906896  0.7223683341304508  1.0000
  H   H4        1.0  0.8789174137975377  0.7376666085409481  0.9452962163065665  1.0000
  H   H5        1.0  0.9573177579607233  0.09784006831324626  0.8927286745513785  1.0000
  H   H6        1.0  0.5374568814336628  0.9077738749074059  0.5191152257225866  1.0000
  H   H7        1.0  0.2707642520728442  0.7497282218452525  0.9431927261327645  1.0000
  H   H8        1.0  0.34144997917378106  0.09183027656800388  0.8903946370025722  1.0000
  H   H9        1.0  0.05339648832320878  0.7377442528076799  0.9425590719930101  1.0000
  H   H10       1.0  0.6671901446120359  0.7469264386649568  0.9495018933934888  1.0000
  H   H11       1.0  0.1292669536017925  0.0977117759409651  0.8899426231121836  1.0000
  H   H12       1.0  0.7408778235363371  0.08985843160393608  0.8984463273012013  1.0000
  H   H13       1.0  0.4688535849357294  0.3573458757129231  0.1306337019140642  1.0000
  H   H14       1.0  0.46586717851786824  0.827553227398383  0.1831445697026481  1.0000
  H   H15       1.0  0.4728895321695534  0.4745678137844821  0.22236733073667383  1.0000
  H   H16       1.0  0.12108670974861012  0.7623351809392604  0.44529549951845143  1.0000
  H   H17       1.0  0.042682993741941296  0.4021611715082045  0.3927305383104027  1.0000
  H   H18       1.0  0.4625455014763489  0.5922270196990809  0.0191139766010266  1.0000
  H   H19       1.0  0.7292354466333677  0.7502692621026199  0.44319089975056875  1.0000
  H   H20       1.0  0.6585487699407012  0.40816581878328145  0.39039490840691127  1.0000
  H   H21       1.0  0.946602885801184  0.7622557943742052  0.4425570869808412  1.0000
  H   H22       1.0  0.33281384442315703  0.7530744950410337  0.4495030082846655  1.0000
  H   H23       1.0  0.8707342664823656  0.4022877565346831  0.3899432283755432  1.0000
  H   H24       1.0  0.259120887835337  0.4101410846250174  0.3984480318804486  1.0000
  H   H25       1.0  0.46885351078908133  0.8573470000302946  0.3693653930203595  1.0000
  H   H26       1.0  0.46586497134515537  0.32755552066007  0.3168560334593807  1.0000
  H   H27       1.0  0.472891351801259  0.9745706550486729  0.277631689922643  1.0000
  H   H28       1.0  0.1210825920712253  0.2623348786898632  0.0547038077448079  1.0000
  H   H29       1.0  0.0426811939511466  0.9021605567066187  0.10726885448467272  1.0000
  H   H30       1.0  0.4625405152445908  0.0922275948435995  0.4808847983237002  1.0000
  H   H31       1.0  0.7292364393200118  0.2502724148280607  0.05680829592570552  1.0000
  H   H32       1.0  0.6585487885467458  0.908169492067941  0.10960638505248  1.0000
  H   H33       1.0  0.9466020951794435  0.262254659444018  0.057440952056573714  1.0000
  H   H34       1.0  0.33281017834506343  0.25307248523987613  0.0504971326540442  1.0000
  H   H35       1.0  0.870732683837119  0.9022879985214374  0.1100564029336866  1.0000
  H   H36       1.0  0.2591198902243548  0.9101404748210201  0.10155170073581128  1.0000
  H   H37       1.0  0.5311453669967818  0.6426547493071836  0.8693673201410236  1.0000
  H   H38       1.0  0.5341333286630032  0.1724465528907615  0.8168564523557933  1.0000
  H   H39       1.0  0.5271081816058825  0.5254310926406589  0.7776331923139355  1.0000
  H   H40       1.0  0.8789162224078524  0.23766376044549284  0.5547050235423256  1.0000
  H   H41       1.0  0.9573176976450098  0.5978394651650375  0.6072694857426342  1.0000
  H   H42       1.0  0.5374553741255355  0.40777447335837286  0.9808865464547624  1.0000
  H   H43       1.0  0.2707629526543656  0.24972879376488066  0.5568086252962631  1.0000
  H   H44       1.0  0.3414515530105007  0.5918331051214807  0.6096031196351817  1.0000
  H   H45       1.0  0.05339606612837849  0.2377448306458732  0.5574434360715304  1.0000
  H   H46       1.0  0.6671892719511804  0.2469253027279592  0.5504985127815801  1.0000
  H   H47       1.0  0.12926866567408976  0.5977111848500626  0.6100572946852338  1.0000
  H   H48       1.0  0.740878749606523  0.5898586898374205  0.6015514931681383  1.0000
  C   C1        1.0  0.5297059699366216  0.8466223377648276  0.7101579262875435  1.0000
  C   C2        1.0  0.5365387264812895  0.6868097731490082  0.5478019771342632  1.0000
  C   C3        1.0  0.9404076776773423  0.9177481465471188  0.918858105083473  1.0000
  C   C4        1.0  0.5344255332872406  0.7584101629371814  0.6650486225238055  1.0000
  C   C5        1.0  0.5306373196871165  0.9572430935397731  0.686868929695365  1.0000
  C   C6        1.0  0.8546166717237397  0.8190021771532442  0.9347676792556429  1.0000
  C   C7        1.0  0.8977265283094623  0.017167910568105096  0.9055494660886937  1.0000
  C   C8        1.0  0.522093877298218  0.8231308256863842  0.7840896643892777  1.0000
  C   C9        1.0  0.5353265065033952  0.980748375158143  0.6181602473494225  1.0000
  C   C10       1.0  0.5374187681038906  0.7816740474599868  0.5963798571777232  1.0000
  C   C11       1.0  0.069113259716829  0.9178278486922975  0.9170280583659008  1.0000
  C   C12       1.0  0.5374820529396444  0.8920221809538161  0.5727086229125788  1.0000
  C   C13       1.0  0.23456429580618016  0.8245584761066667  0.9313752443286205  1.0000
  C   C14       1.0  0.2746108378686429  0.015346831326645799  0.9025682062563688  1.0000
  C   C15       1.0  0.11281054709410643  0.819203672040416  0.9310945691995016  1.0000
  C   C16       1.0  0.7348217046295532  0.8229593975847325  0.9373288248621777  1.0000
  C   C17       1.0  0.15442513259566235  0.017342285154782602  0.9019437184914237  1.0000
  C   C18       1.0  0.7766222056495168  0.014242662936403897  0.9087004329971367  1.0000
  C   C19       1.0  0.4702962451820127  0.6533794234472124  0.21015865646661072  1.0000
  C   C20       1.0  0.46345772304827176  0.8131902284467499  0.047802058879213405  1.0000
  C   C21       1.0  0.05959439404664829  0.5822536274464412  0.4188582845594128  1.0000
  C   C22       1.0  0.465574225184838  0.7415907236965893  0.16504826851559073  1.0000
  C   C23       1.0  0.4693635663178384  0.5427578020844662  0.1868677451893248  1.0000
  C   C24       1.0  0.14538558797389806  0.6809995991472134  0.4347681178079555  1.0000
  C   C25       1.0  0.10227487617257935  0.48283162417055075  0.40555050252082486  1.0000
  C   C26       1.0  0.47790852579334603  0.6768717968030841  0.2840879112286032  1.0000
  C   C27       1.0  0.4646740690095966  0.5192508035616256  0.11815856358819592  1.0000
  C   C28       1.0  0.4625793093085591  0.7183268233901927  0.09637851134368702  1.0000
  C   C29       1.0  0.9308873680184536  0.5821713500567897  0.41702814632661506  1.0000
  C   C30       1.0  0.46251556058200544  0.6079778300798536  0.0727068625827343  1.0000
  C   C31       1.0  0.7654370027435179  0.6754390177809667  0.43137461475041056  1.0000
  C   C32       1.0  0.7253899787386686  0.4846501338270385  0.40256668384245137  1.0000
  C   C33       1.0  0.8871900626269565  0.6807946723641577  0.43109490982370613  1.0000
  C   C34       1.0  0.2651810866370923  0.677040672145388  0.43732973412290477  1.0000
  C   C35       1.0  0.8455772318873969  0.4826538351774587  0.4019431658089303  1.0000
  C   C36       1.0  0.22337942027606061  0.48575772864334255  0.40870193996149606  1.0000
  C   C37       1.0  0.47029335041100506  0.15338000002351748  0.2898415987594448  1.0000
  C   C38       1.0  0.4634610951725477  0.31319085769759875  0.45219754791435934  1.0000
  C   C39       1.0  0.0595931979156958  0.08225334651022112  0.08114092096415253  1.0000
  C   C40       1.0  0.46557378706628344  0.24159217485122753  0.3349519005286226  1.0000
  C   C41       1.0  0.4693616322394973  0.042757531480262394  0.3131310943542758  1.0000
  C   C42       1.0  0.14538333413913312  0.18099931007749598  0.0652313467902843  1.0000
  C   C43       1.0  0.10227310912355135  0.9828318638942191  0.09444856195173663  1.0000
  C   C44       1.0  0.47790475754005973  0.17687236265962974  0.2159113576642042  1.0000
  C   C45       1.0  0.46467244542321856  0.0192522498618999  0.38183977670022534  1.0000
  C   C46       1.0  0.46258036804060515  0.21832743394428886  0.4036211648773929  1.0000
  C   C47       1.0  0.930885507991917  0.08217191994349798  0.08297096767827132  1.0000
  C   C48       1.0  0.4625170831989537  0.10797930045039553  0.4272914011370971  1.0000
  C   C49       1.0  0.7654351574325418  0.17544044197170897  0.0686257777281014  1.0000
  C   C50       1.0  0.7253887995820562  0.9846529431358987  0.09743281580038142  1.0000
  C   C51       1.0  0.8871890903477536  0.18079610242202193  0.06890495584909223  1.0000
  C   C52       1.0  0.26517811701544497  0.1770412332617609  0.062669203178281  1.0000
  C   C53       1.0  0.8455751903673345  0.9826566387501288  0.09805630556155621  1.0000
  C   C54       1.0  0.2233774317834971  0.9857571115259277  0.09129759504330082  1.0000
  C   C55       1.0  0.5297051317260825  0.3466203626684958  0.7898418665908125  1.0000
  C   C56       1.0  0.536539305203071  0.18680952853588195  0.9521974661642928  1.0000
  C   C57       1.0  0.9404067986494695  0.4177453022850982  0.581142238497975  1.0000
  C   C58       1.0  0.5344262819930847  0.2584090565925194  0.8349522545401342  1.0000
  C   C59       1.0  0.5306360711299122  0.45724197237804276  0.813132777864702  1.0000
  C   C60       1.0  0.8546156047281173  0.31899933058440405  0.5652334032548724  1.0000
  C   C61       1.0  0.8977252625813819  0.51716644335022  0.5944500205348433  1.0000
  C   C62       1.0  0.5220947747841224  0.323128857349964  0.7159121128295141  1.0000
  C   C63       1.0  0.5353255684381538  0.4807489709008835  0.8818419594658382  1.0000
  C   C64       1.0  0.537418588678854  0.2816729394191171  0.9036220117069506  1.0000
  C   C65       1.0  0.0691127707325592  0.4178267174639458  0.5829718777263295  1.0000
  C   C66       1.0  0.537484076865745  0.3920219443826554  0.9272936604712997  1.0000
  C   C67       1.0  0.2345631360045459  0.32455904973973293  0.5686249102998104  1.0000
  C   C68       1.0  0.2746101600035047  0.5153479336935902  0.5974318432023296  1.0000
  C   C69       1.0  0.11281007612701191  0.31920339515661306  0.568905613231955  1.0000
  C   C70       1.0  0.7348207915801622  0.32295740702863174  0.5626712879388691  1.0000
  C   C71       1.0  0.1544220371334504  0.5173442265166771  0.598056858242316  1.0000
  C   C72       1.0  0.7766207184749588  0.5142403388773928  0.5912980840914486  1.0000
  N   N1        1.0  0.31499647817578585  0.9211751377226635  0.9179531890714048  1.0000
  N   N2        1.0  0.6959178850874324  0.9192272531108043  0.9247288932831027  1.0000
  N   N3        1.0  0.6850020526058882  0.5788223367390372  0.4179533177020929  1.0000
  N   N4        1.0  0.30408370337571006  0.5807719525816495  0.4247310263637516  1.0000
  N   N5        1.0  0.6850033434868977  0.07882549312405018  0.0820478329853742  1.0000
  N   N6        1.0  0.30408001288524394  0.08077250969832052  0.07526913475393833  1.0000
  N   N7        1.0  0.3149985874424956  0.4211740238398606  0.5820452093443295  1.0000
  N   N8        1.0  0.6959181748415446  0.41922612659236347  0.5752699956980224  1.0000
  O   O1        1.0  0.5363438833304457  0.0867385459603511  0.5936415950320466  1.0000
  O   O2        1.0  0.5483806785708794  0.590468370718021  0.570356960174955  1.0000
  O   O3        1.0  0.5052482490770771  0.9074170090864514  0.8202453401928268  1.0000
  O   O4        1.0  0.5318285162619603  0.7262870149446314  0.8050817669916414  1.0000
  O   O5        1.0  0.5237165601992757  0.7081051885857546  0.48597301195133724  1.0000
  O   O6        1.0  0.4636564451289048  0.4132609610315611  0.0936406026787608  1.0000
  O   O7        1.0  0.45161727559109716  0.9095333527430115  0.07035542468779  1.0000
  O   O8        1.0  0.4947516035900676  0.5925838883975415  0.3202452145368824  1.0000
  O   O9        1.0  0.4681720269699383  0.7737138861671653  0.3050804004453412  1.0000
  O   O10       1.0  0.4762845650197817  0.7918965834860998  0.9859716162529114  1.0000
  O   O11       1.0  0.4636550685991168  0.9132620790597271  0.4063589280203175  1.0000
  O   O12       1.0  0.45162106675527997  0.409533128165954  0.4296425648770921  1.0000
  O   O13       1.0  0.4947488305069427  0.09258702399045399  0.1797546838518542  1.0000
  O   O14       1.0  0.46817309619963515  0.2737179036496328  0.1949207520751486  1.0000
  O   O15       1.0  0.47628239173028664  0.29189543643432353  0.514027511101027  1.0000
  O   O16       1.0  0.5363430081098174  0.5867379570468144  0.9063604193779612  1.0000
  O   O17       1.0  0.5483804381843386  0.09046555368212239  0.9296450983628192  1.0000
  O   O18       1.0  0.5052523825055886  0.4074159151979372  0.6797548095229118  1.0000
  O   O19       1.0  0.5318304038803064  0.22628676215931154  0.6949201226138088  1.0000
  O   O20       1.0  0.52371246323451  0.20810317349656768  0.014028407793311706  1.0000
