data_image0
_chemical_formula_structural       Zn8H30C30N6O26
_chemical_formula_sum              "Zn8 H30 C30 N6 O26"
_cell_length_a       15.921836346169174
_cell_length_b       17.063666013696523
_cell_length_c       16.404285202755958
_cell_angle_alpha    58.73288786938656
_cell_angle_beta     62.05668875431736
_cell_angle_gamma    90.14184586642678

_space_group_name_H-M_alt    "P 1"
_space_group_IT_number       1

loop_
  _space_group_symop_operation_xyz
  'x, y, z'

loop_
  _atom_site_type_symbol
  _atom_site_label
  _atom_site_symmetry_multiplicity
  _atom_site_fract_x
  _atom_site_fract_y
  _atom_site_fract_z
  _atom_site_occupancy
  Zn  Zn1       1.0  0.03641834437854643  0.9526556174280145  0.0672589462754872  1.0000
  Zn  Zn2       1.0  0.8365522014038262  0.9477870437866258  0.07735293568921968  1.0000
  Zn  Zn3       1.0  0.030365743263097038  0.9576560490917674  0.8723812143240791  1.0000
  Zn  Zn4       1.0  0.024883500128673602  0.1436657411369495  0.8855870705242594  1.0000
  Zn  Zn5       1.0  0.4264784023002335  0.5530836064370207  0.8694864998569545  1.0000
  Zn  Zn6       1.0  0.628517327891437  0.5496131816211972  0.8716285813771805  1.0000
  Zn  Zn7       1.0  0.43251837132996235  0.3614229246868206  0.06444230600511257  1.0000
  Zn  Zn8       1.0  0.43519781174274647  0.5477061639488312  0.06428431207822177  1.0000
  H   H1        1.0  0.80842902002248  0.8893833329445187  0.4070707317344573  1.0000
  H   H2        1.0  0.8258129518042736  0.7331823456788908  0.526757876969967  1.0000
  H   H3        1.0  0.8536194192577753  0.7117009803012947  0.42235540707696384  1.0000
  H   H4        1.0  0.6712806013642307  0.6356367699534431  0.5188213977037396  1.0000
  H   H5        1.0  0.6480752080385982  0.7880071015687947  0.42746417946896315  1.0000
  H   H6        1.0  0.08837065435235301  0.6755229030049038  0.1161978129015538  1.0000
  H   H7        1.0  0.24816945455380335  0.7123925338966831  0.09947401428355088  1.0000
  H   H8        1.0  0.2709970913639665  0.8383455081494233  0.0019666997505540062  1.0000
  H   H9        1.0  0.35275592822021196  0.8248121484736471  0.8410803893402489  1.0000
  H   H10       1.0  0.19617403958028493  0.761132710220025  0.877004820552834  1.0000
  H   H11       1.0  0.31248098467923296  0.174738709969688  0.9198631784494539  1.0000
  H   H12       1.0  0.2541929973247932  0.16417559432134962  0.09506633787401604  1.0000
  H   H13       1.0  0.1281577591220753  0.1394191880655598  0.1295968929097455  1.0000
  H   H14       1.0  0.15486798167988522  0.3161887425466077  0.015741461364086665  1.0000
  H   H15       1.0  0.23512685529082936  0.3313229011715251  0.8427305523105417  1.0000
  H   H16       1.0  0.7188166547612552  0.8885173060783275  0.9071602428949606  1.0000
  H   H17       1.0  0.5877493672604075  0.7304262202830145  0.07733144235658784  1.0000
  H   H18       1.0  0.6665009512603743  0.7070500535986782  0.13124543171930003  1.0000
  H   H19       1.0  0.7511227980269053  0.6370914582398229  0.026874939589859634  1.0000
  H   H20       1.0  0.8553529026544026  0.7918512971074348  0.8461707246065588  1.0000
  H   H21       1.0  0.7335114472149158  0.17516096219964794  0.12719277574165494  1.0000
  H   H22       1.0  0.5862707217139373  0.16077271837223608  0.11422157232320981  1.0000
  H   H23       1.0  0.6522989643834336  0.12923016994387376  0.01848953403099787  1.0000
  H   H24       1.0  0.7314962305851509  0.30344423262553016  0.8548856708586214  1.0000
  H   H25       1.0  0.8530701772356293  0.3332100967818477  0.8909431231843146  1.0000
  H   H26       1.0  0.3032982722876767  0.2389413179365009  0.5630447669205126  1.0000
  H   H27       1.0  0.2932927923812159  0.38961759527813916  0.4227111495769477  1.0000
  H   H28       1.0  0.15974089163566424  0.3355059541336658  0.5120979840328133  1.0000
  H   H29       1.0  0.16781359680545896  0.259282398103295  0.4161403407599167  1.0000
  H   H30       1.0  0.23191648924569813  0.1357523395764559  0.5049901649116748  1.0000
  C   C1        1.0  0.841893214330419  0.8735207466082785  0.2768183854773414  1.0000
  C   C2        1.0  0.7867355944561396  0.831606288764469  0.4018272665131095  1.0000
  C   C3        1.0  0.8034600085455137  0.7353147792881884  0.472156914667167  1.0000
  C   C4        1.0  0.6900078143547858  0.6860327868154954  0.5352227576893612  1.0000
  C   C5        1.0  0.6265565959394266  0.6359717684367682  0.6635810737174735  1.0000
  C   C6        1.0  0.10350611838397576  0.8211864091417096  0.006090995316803719  1.0000
  C   C7        1.0  0.14878156251788968  0.7403362239746015  0.03221280709331623  1.0000
  C   C8        1.0  0.24722197279706395  0.765893000688017  0.02458498866850089  1.0000
  C   C9        1.0  0.30024518607021383  0.7559775671932983  0.9254799162719181  1.0000
  C   C10       1.0  0.3543695572412915  0.6808286573554128  0.9388026862182811  1.0000
  C   C11       1.0  0.16661957855961868  0.14318102077359635  0.9534047131079149  1.0000
  C   C12       1.0  0.24628479068093864  0.1978133391043286  0.9476789249826824  1.0000
  C   C13       1.0  0.20646642168734528  0.18587748316569733  0.06164905671960243  1.0000
  C   C14       1.0  0.22372895651751173  0.2959191938944413  0.9929479819438215  1.0000
  C   C15       1.0  0.2986447555388238  0.3579538997239737  0.9867847403809336  1.0000
  C   C16       1.0  0.8206723816768645  0.8715314907033261  0.9573638804096519  1.0000
  C   C17       1.0  0.7472952538528403  0.8294680873064735  0.9447849462864398  1.0000
  C   C18       1.0  0.6643084490029806  0.7325566236027398  0.0559496574815059  1.0000
  C   C19       1.0  0.712353088469257  0.6858619372451571  0.9934572399531592  1.0000
  C   C20       1.0  0.6442673087931823  0.6314620953855297  0.9849310977693976  1.0000
  C   C21       1.0  0.8223510999060081  0.1440665195697903  0.011513727650260852  1.0000
  C   C22       1.0  0.751243345056281  0.19650831060103266  0.043361269720406916  1.0000
  C   C23       1.0  0.6580783800452893  0.17997590957818943  0.03884152867439641  1.0000
  C   C24       1.0  0.7021326485180379  0.28880630567877574  0.9389485809847288  1.0000
  C   C25       1.0  0.6361032009389972  0.35161239690705764  0.9504232187284032  1.0000
  C   C26       1.0  0.1499439581839184  0.1600152046179701  0.6711255081063856  1.0000
  C   C27       1.0  0.24247412684851352  0.22899197989340078  0.5507863794313793  1.0000
  C   C28       1.0  0.23097399006817196  0.3241072982999568  0.47137591343237534  1.0000
  C   C29       1.0  0.24018606414239227  0.28376017610003157  0.4032755509482584  1.0000
  C   C30       1.0  0.3169745354807744  0.3486098270367108  0.27488377745539344  1.0000
  N   N1        1.0  0.6772364150337181  0.7821688177228338  0.4733179477906761  1.0000
  N   N2        1.0  0.20163238042558623  0.7214641054823759  0.9458671570362611  1.0000
  N   N3        1.0  0.27063949131176196  0.3040542042857979  0.8846173244567839  1.0000
  N   N4        1.0  0.7804392109915312  0.7833544645080722  0.8849477934476867  1.0000
  N   N5        1.0  0.7807327490905108  0.3021575714967923  0.9598695779940273  1.0000
  N   N6        1.0  0.2702500312816127  0.2044456192960737  0.46946299622485543  1.0000
  O   O1        1.0  0.9829031817053461  0.002334025627561694  0.9697162587907685  1.0000
  O   O2        1.0  0.7931671993592033  0.8598330013424088  0.23928685385282492  1.0000
  O   O3        1.0  0.9355580139121572  0.9194397601984861  0.21844516374451944  1.0000
  O   O4        1.0  0.6723184183311304  0.6341743115779082  0.7103799056402879  1.0000
  O   O5        1.0  0.532252684692665  0.6015311060930201  0.7123316035842395  1.0000
  O   O6        1.0  0.10406483044261715  0.8653566418710597  0.9147456373647742  1.0000
  O   O7        1.0  0.06765166140605325  0.8373683891711111  0.08159473931722513  1.0000
  O   O8        1.0  0.3716485138033647  0.6469277157191372  0.01728334711556571  1.0000
  O   O9        1.0  0.3769998408127506  0.6586935082561356  0.8698356782487622  1.0000
  O   O10       1.0  0.11643167491724431  0.18899875535915814  0.914189674705554  1.0000
  O   O11       1.0  0.15553339686902484  0.052976846463785386  0.0006466885884038363  1.0000
  O   O12       1.0  0.3386803880982043  0.31376671632008174  0.04163565059220533  1.0000
  O   O13       1.0  0.31573688082818313  0.44904306404976074  0.9250901824654393  1.0000
  O   O14       1.0  0.9139763609023959  0.8865041332651913  0.8943322251948307  1.0000
  O   O15       1.0  0.7799425673087298  0.8900476606185068  0.030626831883488005  1.0000
  O   O16       1.0  0.5498669640867959  0.6056170836532359  0.05460732241966341  1.0000
  O   O17       1.0  0.6883670290105002  0.6161990418919673  0.9092979940851226  1.0000
  O   O18       1.0  0.9123867131112533  0.1944545707509278  0.9244898561918616  1.0000
  O   O19       1.0  0.7844826076962973  0.0520857473071175  0.07780983637496793  1.0000
  O   O20       1.0  0.5425128831803292  0.3079993557750314  0.02742375229199469  1.0000
  O   O21       1.0  0.6812508578459668  0.4425929186421271  0.8813833422904909  1.0000
  O   O22       1.0  0.12270552780453411  0.07075693783738053  0.7109975912665831  1.0000
  O   O23       1.0  0.11042932694594748  0.1984597317450181  0.7227551295945177  1.0000
  O   O24       1.0  0.3365438899546901  0.43980618823586337  0.22564555993874802  1.0000
  O   O25       1.0  0.3528654262829889  0.30591900844749637  0.22814930679724907  1.0000
  O   O26       1.0  0.4807545643841209  0.5033513530343967  0.9669703489167388  1.0000
