data_image0
_chemical_formula_structural       Cd2CuH14C10N4Cl4O8
_chemical_formula_sum              "Cd2 Cu1 H14 C10 N4 Cl4 O8"
_cell_length_a       6.663532436994456
_cell_length_b       8.0631189278548
_cell_length_c       10.414271374879847
_cell_angle_alpha    76.09193333673242
_cell_angle_beta     75.79837446530021
_cell_angle_gamma    86.13864122193421

_space_group_name_H-M_alt    "P 1"
_space_group_IT_number       1

loop_
  _space_group_symop_operation_xyz
  'x, y, z'

loop_
  _atom_site_type_symbol
  _atom_site_label
  _atom_site_symmetry_multiplicity
  _atom_site_fract_x
  _atom_site_fract_y
  _atom_site_fract_z
  _atom_site_occupancy
  Cd  Cd1       1.0  0.2880495233141431  0.4925590833706082  0.9129426414845554  1.0000
  Cd  Cd2       1.0  0.7119527068247606  0.5074390636369728  0.08705871181106767  1.0000
  Cu  Cu1       1.0  5.393579705499851e-06  5.236889194300025e-06  0.4999952299595449  1.0000
  H   H1        1.0  0.9603302575839409  0.4769508655651651  0.7280628223525624  1.0000
  H   H2        1.0  0.03966881778959671  0.5230549438557263  0.2719395440941809  1.0000
  H   H3        1.0  0.4127997044598217  0.12016871289778663  0.8264828398523889  1.0000
  H   H4        1.0  0.5871917436878817  0.8798268745876003  0.17352455030172104  1.0000
  H   H5        1.0  0.3195241194880225  0.9400485271478659  0.6829346214201166  1.0000
  H   H6        1.0  0.6804672697154004  0.05995090305886211  0.3170691894126705  1.0000
  H   H7        1.0  0.37937688136538833  0.1921283152100983  0.3176405274440057  1.0000
  H   H8        1.0  0.6206299163438302  0.8078685886226893  0.6823488016283291  1.0000
  H   H9        1.0  0.22573247818224473  0.15486640122204426  0.23814581068955926  1.0000
  H   H10       1.0  0.7742649801126618  0.8451381667892477  0.7618464805249302  1.0000
  H   H11       1.0  0.552899133539441  0.566416141866462  0.6375681230246354  1.0000
  H   H12       1.0  0.4471139081627554  0.4335845519102649  0.36243103197156756  1.0000
  H   H13       1.0  0.3530578507380255  0.6852687484286264  0.6272081501877054  1.0000
  H   H14       1.0  0.6469582500200488  0.31473195881268623  0.37278571193403554  1.0000
  C   C1        1.0  0.9909827323487405  0.25906505768751487  0.6365862577623176  1.0000
  C   C2        1.0  0.009014799876354096  0.7409394784411562  0.3634156298498254  1.0000
  C   C3        1.0  0.04045515804694589  0.35682470432631425  0.7179458218027364  1.0000
  C   C4        1.0  0.9595454678680398  0.6431823751985348  0.2820579831183778  1.0000
  C   C5        1.0  0.2900452438997051  0.15962666767511288  0.7725542207613287  1.0000
  C   C6        1.0  0.709950811514247  0.8403727492517348  0.22745172697729998  1.0000
  C   C7        1.0  0.23987094914167528  0.05981113979056829  0.6926076481161514  1.0000
  C   C8        1.0  0.7601266198486343  0.9401895631815479  0.3073949398980176  1.0000
  C   C9        1.0  0.8348786504728878  0.31374686478968533  0.5519993318650264  1.0000
  C   C10       1.0  0.16511578320026393  0.6862564024733898  0.44800136461056883  1.0000
  N   N1        1.0  0.09237089425391082  0.11172172987875943  0.6243147269739708  1.0000
  N   N2        1.0  0.9076250629195856  0.8882840915836501  0.37568525522911494  1.0000
  N   N3        1.0  0.19126031908293578  0.3077585831200977  0.7839156723470352  1.0000
  N   N4        1.0  0.808732608406878  0.6922433949094399  0.21608934349277578  1.0000
  Cl  Cl1       1.0  0.39862890039786697  0.6983476842589199  0.045081800116221794  1.0000
  Cl  Cl2       1.0  0.6013627416997808  0.30163382281301665  0.9549358352967731  1.0000
  Cl  Cl3       1.0  0.023581557936473995  0.3004834207546168  0.119614388623198  1.0000
  Cl  Cl4       1.0  0.976409796632936  0.6995134795205119  0.8803822120261555  1.0000
  O   O1        1.0  0.8243218173879824  0.21718128134433104  0.47114165641662  1.0000
  O   O2        1.0  0.1756942514669291  0.7828219845229399  0.5288507791306784  1.0000
  O   O3        1.0  0.7321684415941263  0.44805673144922054  0.5577818306437479  1.0000
  O   O4        1.0  0.2678275715929175  0.5519363415190455  0.44221184947487296  1.0000
  O   O5        1.0  0.2927519345615721  0.09989483119623802  0.31218885907648536  1.0000
  O   O6        1.0  0.7072486123612903  0.9001097375265845  0.6878019778226018  1.0000
  O   O7        1.0  0.4556603636016661  0.645055130656651  0.6837421454255973  1.0000
  O   O8        1.0  0.5443465202928195  0.3549404635746641  0.3162570135117235  1.0000
