data_image0
_chemical_formula_structural       Cd2H48C38N12O10
_chemical_formula_sum              "Cd2 H48 C38 N12 O10"
_cell_length_a       10.320648746132747
_cell_length_b       11.22844698116526
_cell_length_c       11.863873603493788
_cell_angle_alpha    70.21274566192238
_cell_angle_beta     65.24213248390083
_cell_angle_gamma    68.00815310116548

_space_group_name_H-M_alt    "P 1"
_space_group_IT_number       1

loop_
  _space_group_symop_operation_xyz
  'x, y, z'

loop_
  _atom_site_type_symbol
  _atom_site_label
  _atom_site_symmetry_multiplicity
  _atom_site_fract_x
  _atom_site_fract_y
  _atom_site_fract_z
  _atom_site_occupancy
  Cd  Cd1       1.0  0.5673087792452661  0.1862209212254555  0.07820744285012897  1.0000
  Cd  Cd2       1.0  0.43269207023009665  0.8137802616688603  0.9217926720408939  1.0000
  H   H1        1.0  0.826567533873181  0.9939131567494924  0.9877319604929228  1.0000
  H   H2        1.0  0.1734340378878443  0.0060928948544258996  0.012256210135951988  1.0000
  H   H3        1.0  0.7178587717328283  0.9277893473407274  0.9753509817733246  1.0000
  H   H4        1.0  0.2821415274442812  0.0722137770846416  0.024642805112584713  1.0000
  H   H5        1.0  0.06390974466847871  0.18000240337917717  0.08555487584503399  1.0000
  H   H6        1.0  0.9360943697356208  0.8199987383408356  0.9144364904411829  1.0000
  H   H7        1.0  0.6777807428226909  0.49871011570978396  0.18004445840880826  1.0000
  H   H8        1.0  0.3222152689286162  0.5012822625636345  0.8199669795820197  1.0000
  H   H9        1.0  0.09196406079380638  0.5028416379663128  0.1837797783974864  1.0000
  H   H10       1.0  0.9080378143433595  0.49715266206656133  0.8162221855625517  1.0000
  H   H11       1.0  0.8757865577564985  0.6786507153253964  0.24644888178995228  1.0000
  H   H12       1.0  0.12421227772863123  0.32134654469910356  0.7535540655957149  1.0000
  H   H13       1.0  0.6989660337724857  0.646602050587127  0.3064054270110217  1.0000
  H   H14       1.0  0.30103280171264407  0.3533952094373659  0.6935975203746523  1.0000
  H   H15       1.0  0.7700743739063967  0.7235999349877245  0.1454773554054184  1.0000
  H   H16       1.0  0.2299247606459005  0.27639634138774477  0.8545258013272914  1.0000
  H   H17       1.0  0.5974120816962554  0.1641021806135541  0.7791845461994527  1.0000
  H   H18       1.0  0.4025825178681471  0.8359019739986805  0.22081854722368635  1.0000
  H   H19       1.0  0.6213251421559961  0.4859686719606629  0.869207964152949  1.0000
  H   H20       1.0  0.37866934944929653  0.5140394035229293  0.13079137568042398  1.0000
  H   H21       1.0  0.5528482288039669  0.6574904062803527  0.649806650425397  1.0000
  H   H22       1.0  0.447152499044833  0.3425147048473249  0.3501913992504412  1.0000
  H   H23       1.0  0.6200078493095732  0.5732731968602208  0.5252411688435286  1.0000
  H   H24       1.0  0.37999424541479954  0.4267309279366599  0.4747567065396154  1.0000
  H   H25       1.0  0.7964428924587282  0.6896152659727832  0.4925470729149878  1.0000
  H   H26       1.0  0.20356145267527376  0.31038492890821356  0.5074529445911722  1.0000
  H   H27       1.0  0.8010612780819952  0.6189119238725808  0.6494048457345586  1.0000
  H   H28       1.0  0.19893956455963752  0.381089262702737  0.3505961133437551  1.0000
  H   H29       1.0  0.9166140034708549  0.4634979829710844  0.4406159133089814  1.0000
  H   H30       1.0  0.08338502995606231  0.5365022105947261  0.5593826456466786  1.0000
  H   H31       1.0  0.921849247772485  0.39582581441339215  0.5966117589984703  1.0000
  H   H32       1.0  0.07814898957830248  0.6041734129091623  0.4033907696931179  1.0000
  H   H33       1.0  0.273804964123336  0.14794202967282638  0.36969923660108617  1.0000
  H   H34       1.0  0.7261966335920677  0.8520601452317678  0.6303028178650363  1.0000
  H   H35       1.0  0.6985907518236019  0.8883270809550866  0.2682030486312072  1.0000
  H   H36       1.0  0.3014056831461929  0.11167114967695818  0.7317962357504371  1.0000
  H   H37       1.0  0.30169140183609483  0.8502153436820169  0.6461389480185602  1.0000
  H   H38       1.0  0.6983082297251711  0.14978288258573264  0.3538600296311785  1.0000
  H   H39       1.0  0.18161914054788753  0.007979070016730799  0.6115379558840458  1.0000
  H   H40       1.0  0.8183804705121959  0.9920191672940247  0.3884635543275577  1.0000
  H   H41       1.0  0.08888784499645648  0.813342436016967  0.6432431719759818  1.0000
  H   H42       1.0  0.9111117933985327  0.18665578656978  0.356754961486466  1.0000
  H   H43       1.0  0.23726429465698823  0.7707081571013107  0.5063268914458945  1.0000
  H   H44       1.0  0.7627396013041405  0.22929006212038416  0.49367139583220865  1.0000
  H   H45       1.0  0.13344426459816117  0.9941445488301139  0.37577836968272044  1.0000
  H   H46       1.0  0.8665639094302761  0.0058536559835289  0.6242175388491589  1.0000
  H   H47       1.0  0.02241651617614325  0.8854369445283797  0.4438370458178013  1.0000
  H   H48       1.0  0.9775892573369731  0.11456223089280826  0.5561551997100551  1.0000
  C   C1        1.0  0.25715519242241675  0.2728126222918164  0.11536922377874245  1.0000
  C   C2        1.0  0.7428417053877112  0.7271875766375259  0.8846301024563772  1.0000
  C   C3        1.0  0.0956049677702424  0.3340151828564757  0.13452107267823268  1.0000
  C   C4        1.0  0.9043981526159326  0.6659820590789565  0.865478651773927  1.0000
  C   C5        1.0  0.013397389879536127  0.2735970296342244  0.1145228325455179  1.0000
  C   C6        1.0  0.9866029967555009  0.7264021849628006  0.8854772404920224  1.0000
  C   C7        1.0  0.8631737684744322  0.3331309843040131  0.1310529065714832  1.0000
  C   C8        1.0  0.1368299227111791  0.6668643050573665  0.8689506133239174  1.0000
  C   C9        1.0  0.7949073138624956  0.4535117240751275  0.16859341347591075  1.0000
  C   C10       1.0  0.20509298962358  0.546480632428228  0.831413957394119  1.0000
  C   C11       1.0  0.8752355411209294  0.5164213170128844  0.1886887462934013  1.0000
  C   C12       1.0  0.1247620422814606  0.4835730047900526  0.8113172847874282  1.0000
  C   C13       1.0  0.025574101911388397  0.4553744033551084  0.17125036069680988  1.0000
  C   C14       1.0  0.9744271682577051  0.5446218676568292  0.8287520287564334  1.0000
  C   C15       1.0  0.7766346751154671  0.26722455053456423  0.10831348624858356  1.0000
  C   C16       1.0  0.22336325633441587  0.7327756641180228  0.8916896772832529  1.0000
  C   C17       1.0  0.8014301622002546  0.6479358163177906  0.22425763142626914  1.0000
  C   C18       1.0  0.1985695773201144  0.3520584890786083  0.7757450998132285  1.0000
  C   C19       1.0  0.6070217397543445  0.25989405291038986  0.7711191924052583  1.0000
  C   C20       1.0  0.39297744377827126  0.7401090999637531  0.22888088743141566  1.0000
  C   C21       1.0  0.6185961410152672  0.4207655075675234  0.8207335183398642  1.0000
  C   C22       1.0  0.3814006283345608  0.5792386232761756  0.17926458686736163  1.0000
  C   C23       1.0  0.6412664913954629  0.5778403988077869  0.6065629382048525  1.0000
  C   C24       1.0  0.35873238623625536  0.42216374139638907  0.39343777647206934  1.0000
  C   C25       1.0  0.7935578446699907  0.5991627151453328  0.5677923162864716  1.0000
  C   C26       1.0  0.2064440794475004  0.400838461386222  0.4322065707775308  1.0000
  C   C27       1.0  0.9254832969068332  0.4857145599309475  0.520441515870857  1.0000
  C   C28       1.0  0.07451601508607551  0.5142846610288387  0.4795597849937037  1.0000
  C   C29       1.0  0.36915458137987395  0.06300750944163269  0.3693620067104603  1.0000
  C   C30       1.0  0.6308465603289262  0.9369926934846545  0.6306391617148961  1.0000
  C   C31       1.0  0.583955506396414  0.9292484531244936  0.3215006248363892  1.0000
  C   C32       1.0  0.4160461049864494  0.070753714418089  0.6784997412551518  1.0000
  C   C33       1.0  0.2504290518996016  0.9180939481527799  0.5754885091133415  1.0000
  C   C34       1.0  0.7495710425019837  0.08190624641227369  0.42451051038987236  1.0000
  C   C35       1.0  0.16043495192038654  0.8545672932370537  0.5499152099965553  1.0000
  C   C36       1.0  0.8395689372070124  0.1454309296656433  0.4500839214688382  1.0000
  C   C37       1.0  0.06476800621840083  0.9469288789792073  0.4680327282582937  1.0000
  C   C38       1.0  0.9352380458607  0.0530693238359561  0.5319622591784707  1.0000
  N   N1        1.0  0.6066942233048779  0.297375651068279  0.8692645682652157  1.0000
  N   N2        1.0  0.3933005537001364  0.7026314481282796  0.13073666928978145  1.0000
  N   N3        1.0  0.6263205571993851  0.4540921041508241  0.6984892060070677  1.0000
  N   N4        1.0  0.3736783272660631  0.5459120323723496  0.3015106644825635  1.0000
  N   N5        1.0  0.6191140782110905  0.35253068077793154  0.6648560756222749  1.0000
  N   N6        1.0  0.3808858808964856  0.647473449382474  0.3351425670403358  1.0000
  N   N7        1.0  0.5022639657883444  0.05073724022857819  0.27888231692214294  1.0000
  N   N8        1.0  0.497733680261824  0.9492639507110356  0.7211189488880688  1.0000
  N   N9        1.0  0.5089063501698236  0.8661458159747041  0.4327754936795357  1.0000
  N   N10       1.0  0.4910925263176651  0.133851421963783  0.5672223885823939  1.0000
  N   N11       1.0  0.3718140117270181  0.9532491683410028  0.4618964534639856  1.0000
  N   N12       1.0  0.6281842392912226  0.04675005161954719  0.5381043868530212  1.0000
  O   O1        1.0  0.323282501863325  0.3285627997249634  0.14372856965820802  1.0000
  O   O2        1.0  0.6767165110624164  0.6714374048838536  0.8562725218593172  1.0000
  O   O3        1.0  0.3254147445272508  0.1671403978465023  0.07250724439434457  1.0000
  O   O4        1.0  0.674586253909581  0.8328568420904503  0.9274915589627  1.0000
  O   O5        1.0  0.84074100784413  0.1594566258457704  0.0719693895036856  1.0000
  O   O6        1.0  0.1592549463089128  0.8405504117729947  0.928017957414937  1.0000
  O   O7        1.0  0.6376148786661915  0.32575149014302696  0.12912269389600087  1.0000
  O   O8        1.0  0.36237806609817375  0.6742438628460192  0.8708931042696191  1.0000
  O   O9        1.0  0.7253242715520403  0.9880652678376477  0.017692179462940646  1.0000
  O   O10       1.0  0.2746783406824704  0.011940795808520501  0.9822989842753672  1.0000
