data_image0
_chemical_formula_structural       Cu12H84C180N12O48
_chemical_formula_sum              "Cu12 H84 C180 N12 O48"
_cell_length_a       18.277765905353547
_cell_length_b       18.27775321778556
_cell_length_c       26.461248049243753
_cell_angle_alpha    69.79889057559355
_cell_angle_beta     69.7989318661189
_cell_angle_gamma    60.00034625713733

_space_group_name_H-M_alt    "P 1"
_space_group_IT_number       1

loop_
  _space_group_symop_operation_xyz
  'x, y, z'

loop_
  _atom_site_type_symbol
  _atom_site_label
  _atom_site_symmetry_multiplicity
  _atom_site_fract_x
  _atom_site_fract_y
  _atom_site_fract_z
  _atom_site_occupancy
  Cu  Cu1       1.0  0.684490907072558  0.24026659921310772  0.7915115570368555  1.0000
  Cu  Cu2       1.0  0.2837394165204828  0.6844879902345512  0.7915059080104639  1.0000
  Cu  Cu3       1.0  0.24025835078651173  0.2837536504356351  0.7915046719322519  1.0000
  Cu  Cu4       1.0  0.8155135660321876  0.2162601947020165  0.708492948994916  1.0000
  Cu  Cu5       1.0  0.21624711921145232  0.2597422162207153  0.7084941266504926  1.0000
  Cu  Cu6       1.0  0.25973278540771366  0.8155107715975162  0.7084880571481306  1.0000
  Cu  Cu7       1.0  0.31550711531836134  0.7597344153013309  0.208489594761069  1.0000
  Cu  Cu8       1.0  0.7162599000131494  0.3155130490223284  0.20849379617710886  1.0000
  Cu  Cu9       1.0  0.7597416121315562  0.7162465263051349  0.208495083691801  1.0000
  Cu  Cu10      1.0  0.18448445645259434  0.7837396543064656  0.29150810224383855  1.0000
  Cu  Cu11      1.0  0.7837521972008191  0.7402582401147697  0.29150571629327976  1.0000
  Cu  Cu12      1.0  0.740266531004565  0.1844896847379688  0.29151178579564163  1.0000
  H   H1        1.0  0.7190533676531603  0.16004867297944955  0.41216121959887897  1.0000
  H   H2        1.0  0.7087284924173859  0.7190684080847802  0.41216130704294335  1.0000
  H   H3        1.0  0.160045162162028  0.7087374817339765  0.41215983104651605  1.0000
  H   H4        1.0  0.7809319685449838  0.7912725237946177  0.08783843646233433  1.0000
  H   H5        1.0  0.7912629058010483  0.33995568176268887  0.08783957057530495  1.0000
  H   H6        1.0  0.33995178140478544  0.7809473612290389  0.08783783186503065  1.0000
  H   H7        1.0  0.2809472414341131  0.839951223829772  0.5878388267770303  1.0000
  H   H8        1.0  0.2912721165485266  0.2809309058030465  0.5878388780891584  1.0000
  H   H9        1.0  0.8399567410679651  0.29126243981768607  0.5878387677190418  1.0000
  H   H10       1.0  0.21906799425172352  0.20872707002475718  0.9121614579179177  1.0000
  H   H11       1.0  0.20873705699565195  0.6600439120566863  0.9121603238049544  1.0000
  H   H12       1.0  0.6600494756560026  0.21905284025417868  0.9121604761486707  1.0000
  H   H13       1.0  0.7650760647680528  0.9887404090248567  0.3233756044387377  1.0000
  H   H14       1.0  0.9228180149584517  0.7650427381599914  0.32337866491457135  1.0000
  H   H15       1.0  0.9887432825535003  0.92282562856564  0.32338273897673975  1.0000
  H   H16       1.0  0.7349574060438259  0.5771827527126306  0.17662121847362044  1.0000
  H   H17       1.0  0.5771738729690911  0.5112594643397018  0.17661530079571008  1.0000
  H   H18       1.0  0.5112607490806554  0.7349240716993537  0.1766229964642463  1.0000
  H   H19       1.0  0.23492325130763453  0.01126004697380271  0.6766246165766105  1.0000
  H   H20       1.0  0.07718194762302491  0.2349574382439457  0.6766214687810574  1.0000
  H   H21       1.0  0.011258620891723602  0.07717371040146051  0.6766156204734486  1.0000
  H   H22       1.0  0.26504320325867076  0.4228165615120291  0.8233785885869194  1.0000
  H   H23       1.0  0.42282673623954287  0.48874101539090714  0.8233846068239928  1.0000
  H   H24       1.0  0.4887398614743432  0.2650764093785797  0.8233753988691743  1.0000
  H   H25       1.0  0.7308530682723244  0.8869330717407495  0.4093201530158622  1.0000
  H   H26       1.0  0.9728991992221054  0.730826007880083  0.40931513617716314  1.0000
  H   H27       1.0  0.8869344868223479  0.9729159833330173  0.4093232437651224  1.0000
  H   H28       1.0  0.7691744968097681  0.5271012098500732  0.09068475950800804  1.0000
  H   H29       1.0  0.5270853300840342  0.6130674982182998  0.09067452314737069  1.0000
  H   H30       1.0  0.6130679414715133  0.7691470509007915  0.09067849670442742  1.0000
  H   H31       1.0  0.2691475409363093  0.11306740798986681  0.5906797546038475  1.0000
  H   H32       1.0  0.027100116853574698  0.2691744481185765  0.5906850848381778  1.0000
  H   H33       1.0  0.11306741640764531  0.02708393821864521  0.5906753550004352  1.0000
  H   H34       1.0  0.23082546565034795  0.4728983836324759  0.9093155129438201  1.0000
  H   H35       1.0  0.4729152790032388  0.3869323985909217  0.9093255232285316  1.0000
  H   H36       1.0  0.38693331491609234  0.23085314990876074  0.9093205674524255  1.0000
  H   H37       1.0  0.687779589622629  0.9261137121335498  0.5007642824090651  1.0000
  H   H38       1.0  0.8853757569669372  0.6877592634099159  0.5007696670612418  1.0000
  H   H39       1.0  0.9260902179425726  0.8853584777971408  0.5007791428931085  1.0000
  H   H40       1.0  0.8122402464811105  0.6146247764776549  0.9992306026638643  1.0000
  H   H41       1.0  0.6146431848844076  0.5739108528469713  0.999218951250313  1.0000
  H   H42       1.0  0.5738869992636425  0.8122197285856037  0.9992347909331653  1.0000
  H   H43       1.0  0.3122210194646442  0.07388618467567207  0.499235763966844  1.0000
  H   H44       1.0  0.1146248519989754  0.3122400504779108  0.4992305180708669  1.0000
  H   H45       1.0  0.07391168528742041  0.11464144375452887  0.4992194558724491  1.0000
  H   H46       1.0  0.18775971585764492  0.38537423408349997  0.0007698085441631919  1.0000
  H   H47       1.0  0.3853574243242265  0.4260896268836447  0.0007809563693968375  1.0000
  H   H48       1.0  0.4261149037236223  0.18777902712327696  0.0007640853447981136  1.0000
  H   H49       1.0  0.7268291992319932  0.131263617931225  0.6098218234504954  1.0000
  H   H50       1.0  0.5321141231474515  0.7268067938692295  0.6098123567161976  1.0000
  H   H51       1.0  0.13125188118096534  0.5321174576153426  0.6098139479362813  1.0000
  H   H52       1.0  0.7731922691215802  0.9678866541161426  0.8901871461987269  1.0000
  H   H53       1.0  0.96788345060061  0.36874864884676145  0.8901856004380659  1.0000
  H   H54       1.0  0.36873719689623397  0.7731706183239168  0.8901764045227338  1.0000
  H   H55       1.0  0.2731707625549405  0.8687359748776583  0.3901792051444701  1.0000
  H   H56       1.0  0.4678871335767455  0.2731934072771552  0.3901863293690794  1.0000
  H   H57       1.0  0.8687493750852797  0.4678821602728148  0.39018525497676393  1.0000
  H   H58       1.0  0.2268070461595642  0.03211321828746348  0.10981396971595808  1.0000
  H   H59       1.0  0.03211780487109191  0.6312503854463428  0.1098144973743231  1.0000
  H   H60       1.0  0.6312634133221664  0.22682986241718328  0.10982236888226282  1.0000
  H   H61       1.0  0.5043700267948809  0.23168030410891305  0.7361523173687274  1.0000
  H   H62       1.0  0.5277890395306102  0.504389413669756  0.7361772321489256  1.0000
  H   H63       1.0  0.23164846856365534  0.5278206756020724  0.7361625584267983  1.0000
  H   H64       1.0  0.9956097105007446  0.9722108292844781  0.7638225053804533  1.0000
  H   H65       1.0  0.9721806329187006  0.26835176045618436  0.7638369821461735  1.0000
  H   H66       1.0  0.268319741187078  0.9956318301723004  0.763846315393394  1.0000
  H   H67       1.0  0.4956292890380781  0.7683189860469641  0.2638481811590195  1.0000
  H   H68       1.0  0.4722089835609822  0.4956133499456927  0.26382312530882507  1.0000
  H   H69       1.0  0.7683521405236179  0.4721792212071421  0.26383748794910383  1.0000
  H   H70       1.0  0.004388959433228501  0.027791655073080807  0.23617738668600904  1.0000
  H   H71       1.0  0.027818683250856704  0.7316475300365183  0.23616313831000474  1.0000
  H   H72       1.0  0.7316802223103026  0.004369512748091606  0.23615278464669123  1.0000
  H   H73       1.0  0.4780672211116227  0.15933805621970987  0.6075894781831649  1.0000
  H   H74       1.0  0.7549940443441089  0.47803733029553563  0.6076222854601666  1.0000
  H   H75       1.0  0.15931376294083324  0.7550366114161022  0.6076103132691557  1.0000
  H   H76       1.0  0.021962803425772403  0.7450054117515634  0.8923772761890233  1.0000
  H   H77       1.0  0.7449644713627138  0.34068668398609964  0.8923876722304058  1.0000
  H   H78       1.0  0.34066238865553805  0.021931873859173806  0.8924098027845062  1.0000
  H   H79       1.0  0.5219327421430365  0.8406621208578925  0.3924098993693191  1.0000
  H   H80       1.0  0.24500527103089811  0.5219613766021142  0.39237872989535544  1.0000
  H   H81       1.0  0.8406868468196224  0.24496328606677759  0.3923889769636089  1.0000
  H   H82       1.0  0.9780371596136562  0.254995347910601  0.1076223406788372  1.0000
  H   H83       1.0  0.25503484403979126  0.6593137713389013  0.10761330492807984  1.0000
  H   H84       1.0  0.6593388674893462  0.9780671611075891  0.10758953888474576  1.0000
  C   C1        1.0  0.721540542403787  0.09856989962084842  0.4134549768920336  1.0000
  C   C2        1.0  0.7664345186719502  0.7215358170175392  0.4134535109801972  1.0000
  C   C3        1.0  0.09856793866331512  0.7664391290141026  0.41345516411895744  1.0000
  C   C4        1.0  0.778465275683054  0.7335663093650454  0.08654611524541879  1.0000
  C   C5        1.0  0.7335611692088407  0.40143322085103267  0.08654416563176429  1.0000
  C   C6        1.0  0.4014307367193767  0.7784597169608176  0.08654453059073575  1.0000
  C   C7        1.0  0.2784594198410987  0.9014302764462627  0.5865455348751567  1.0000
  C   C8        1.0  0.2335654439095265  0.27846435938640457  0.5865466227154315  1.0000
  C   C9        1.0  0.9014339644453174  0.23356020961616522  0.5865435734027995  1.0000
  C   C10       1.0  0.22153533374081044  0.26643358778100185  0.9134535530589217  1.0000
  C   C11       1.0  0.2664394395418412  0.5985666756213632  0.9134562588157068  1.0000
  C   C12       1.0  0.5985705198834594  0.22153990126417267  0.9134542942507409  1.0000
  C   C13       1.0  0.7474284822218352  0.0026912702843446905  0.36394596259656703  1.0000
  C   C14       1.0  0.8859595471401533  0.7473451225808393  0.3639407163564529  1.0000
  C   C15       1.0  0.0027024800069313007  0.8859659309903593  0.3639546176413474  1.0000
  C   C16       1.0  0.7526557062231731  0.6140407888661342  0.13605872602820313  1.0000
  C   C17       1.0  0.6140344059599131  0.4972986738346776  0.1360442937637245  1.0000
  C   C18       1.0  0.4973094146488465  0.7525715639503263  0.13605284664741643  1.0000
  C   C19       1.0  0.25257148081759345  0.9973094893778195  0.6360536542712865  1.0000
  C   C20       1.0  0.11403976893553391  0.25265533341782037  0.6360595046588884  1.0000
  C   C21       1.0  0.997298776474537  0.11403310431323636  0.6360443459563285  1.0000
  C   C22       1.0  0.24734490307932333  0.3859585253585254  0.8639410810323368  1.0000
  C   C23       1.0  0.3859668496331495  0.5027009433798214  0.8639556652924653  1.0000
  C   C24       1.0  0.5026911954482004  0.24742833386938654  0.8639460655137794  1.0000
  C   C25       1.0  0.7279454920744116  0.9465314922535912  0.4119161912912829  1.0000
  C   C26       1.0  0.9136376409790544  0.7278616148736888  0.41191222658554233  1.0000
  C   C27       1.0  0.9465316666687189  0.9136321145119195  0.41192770227781483  1.0000
  C   C28       1.0  0.7721378707514149  0.5863639597186675  0.08808724160880389  1.0000
  C   C29       1.0  0.5863684596039038  0.5534692347926509  0.0880705164302852  1.0000
  C   C30       1.0  0.5534690246528697  0.7720542256584655  0.08808266262915503  1.0000
  C   C31       1.0  0.27205447062842586  0.05346926707174055  0.5880838036481392  1.0000
  C   C32       1.0  0.0863623216024223  0.2721385615302482  0.5880879071100863  1.0000
  C   C33       1.0  0.053469590149340704  0.08636692112850848  0.5880708832482924  1.0000
  C   C34       1.0  0.2278620920452923  0.4136356341007146  0.9119126527714554  1.0000
  C   C35       1.0  0.41363214960472305  0.4465312449379654  0.9119293911894175  1.0000
  C   C36       1.0  0.4465315851075858  0.22794567182441475  0.9119166276036096  1.0000
  C   C37       1.0  0.7039618415777583  0.9683074236543802  0.46255641274765946  1.0000
  C   C38       1.0  0.86521209830984  0.7038918217050211  0.462564550595438  1.0000
  C   C39       1.0  0.9682875093623908  0.8651880136009995  0.4625729962887773  1.0000
  C   C40       1.0  0.7961096346593168  0.6347881508077151  0.037435144461355194  1.0000
  C   C41       1.0  0.6348135592727573  0.5317130603287056  0.03742507429992513  1.0000
  C   C42       1.0  0.5316932290854768  0.796038227159066  0.03744269630451662  1.0000
  C   C43       1.0  0.29603876750951497  0.031692473154841125  0.5374436336282428  1.0000
  C   C44       1.0  0.1347878643930045  0.29610893762031054  0.537435444343984  1.0000
  C   C45       1.0  0.03171439408283311  0.13481132536610124  0.537425363161411  1.0000
  C   C46       1.0  0.20389032801602983  0.365210860090265  0.9625648886751037  1.0000
  C   C47       1.0  0.36518704981451583  0.46828683648051594  0.9625749720759769  1.0000
  C   C48       1.0  0.4683086736865648  0.20396111113436882  0.9625564192888091  1.0000
  C   C49       1.0  0.6997950749050477  0.04659663122243526  0.46411992700484456  1.0000
  C   C50       1.0  0.7894843882789716  0.699786911850147  0.46412187027858204  1.0000
  C   C51       1.0  0.046575868544934514  0.7894739976589165  0.46412381968584526  1.0000
  C   C52       1.0  0.8002142580033154  0.7105157908870796  0.0358775208704926  1.0000
  C   C53       1.0  0.7105279948390051  0.45342439093723647  0.03587493179066571  1.0000
  C   C54       1.0  0.4534045367268719  0.8002043663202938  0.03587965323878  1.0000
  C   C55       1.0  0.3002048874611988  0.9534041277660706  0.5358804460061463  1.0000
  C   C56       1.0  0.2105155743025051  0.3002132645537968  0.5358782634170395  1.0000
  C   C57       1.0  0.9534260345636911  0.21052534097135117  0.5358749178359189  1.0000
  C   C58       1.0  0.1997857047933849  0.2894838029322955  0.9641223735097595  1.0000
  C   C59       1.0  0.289472613911677  0.5465755055351593  0.9641254926568122  1.0000
  C   C60       1.0  0.5465973663817535  0.19979497230998094  0.9641190842829773  1.0000
  C   C61       1.0  0.671667408889455  0.07557159127295425  0.5137477734606931  1.0000
  C   C62       1.0  0.7389543671817408  0.6717186193404172  0.5137418425937241  1.0000
  C   C63       1.0  0.0755939493927045  0.738965096561749  0.5137404247778222  1.0000
  C   C64       1.0  0.8282819940679788  0.7610459027525138  0.9862578295961837  1.0000
  C   C65       1.0  0.7610373842531148  0.4244064003113835  0.9862587525628469  1.0000
  C   C66       1.0  0.4244284116089574  0.8283317026146407  0.9862519495891107  1.0000
  C   C67       1.0  0.3283325540286129  0.9244285854678155  0.48625198216335963  1.0000
  C   C68       1.0  0.2610462422421165  0.3282812778056369  0.4862578257106094  1.0000
  C   C69       1.0  0.9244079535006976  0.26103482465308747  0.48625855205930435  1.0000
  C   C70       1.0  0.17171861489792659  0.23895341113531293  0.013742355535917721  1.0000
  C   C71       1.0  0.2389638711247244  0.5755937994876846  0.013741445808712213  1.0000
  C   C72       1.0  0.5755734909203624  0.17166646983601208  0.01374744351662123  1.0000
  C   C73       1.0  0.6438645659921606  0.10494817789474105  0.5550311587312962  1.0000
  C   C74       1.0  0.6961830434615591  0.6438732244025118  0.5550589765068353  1.0000
  C   C75       1.0  0.10496072807317353  0.6961749747144808  0.5550303503724905  1.0000
  C   C76       1.0  0.8561272630624758  0.8038169882837778  0.9449400242621235  1.0000
  C   C77       1.0  0.8038257044296773  0.39504056736592463  0.9449682857565733  1.0000
  C   C78       1.0  0.39505263286239506  0.8561332612389448  0.9449686690491176  1.0000
  C   C79       1.0  0.35613539625273216  0.8950519981723631  0.4449693530358941  1.0000
  C   C80       1.0  0.30381691887719603  0.35612578615863544  0.44494143470119235  1.0000
  C   C81       1.0  0.8950411744836303  0.30382494616352335  0.44496900453620464  1.0000
  C   C82       1.0  0.14387334578206895  0.19618174268265418  0.05506029962618438  1.0000
  C   C83       1.0  0.1961749043210048  0.6049593291064639  0.05503213869090475  1.0000
  C   C84       1.0  0.6049486240495412  0.14386460889551972  0.05502981591782686  1.0000
  C   C85       1.0  0.6073404742255378  0.13974201981801568  0.6031659464918986  1.0000
  C   C86       1.0  0.6497831003692982  0.6073265491446661  0.6031995425882855  1.0000
  C   C87       1.0  0.1397294269052765  0.6497813290423978  0.6031738780782304  1.0000
  C   C88       1.0  0.8926723892108087  0.8502180496306905  0.8967999371394699  1.0000
  C   C89       1.0  0.8502194517527856  0.3602713303094021  0.8968244963099749  1.0000
  C   C90       1.0  0.36025939950239666  0.892658522348171  0.8968330694765854  1.0000
  C   C91       1.0  0.39265948811321755  0.8602569907431389  0.3968344647161287  1.0000
  C   C92       1.0  0.3502175085966143  0.3926727647431607  0.3968006425438162  1.0000
  C   C93       1.0  0.8602724759881256  0.35021859217243195  0.39682509875889593  1.0000
  C   C94       1.0  0.1073269268648787  0.1497824063679687  0.10320028387587848  1.0000
  C   C95       1.0  0.14978115721311985  0.6397279835784248  0.10317568882213383  1.0000
  C   C96       1.0  0.6397412102580519  0.107341375134709  0.10316622075617936  1.0000
  C   C97       1.0  0.6582996723329372  0.14947840385946884  0.6277405780620383  1.0000
  C   C98       1.0  0.5645251153939556  0.6582991371507135  0.6277629812308588  1.0000
  C   C99       1.0  0.14943013179197348  0.5645320347973878  0.6277445615296954  1.0000
  C   C100      1.0  0.841701192427678  0.9354751511977424  0.8722356012231813  1.0000
  C   C101      1.0  0.9354688849331367  0.3505691282577743  0.8722549062778598  1.0000
  C   C102      1.0  0.3505204200706444  0.8417014491631891  0.8722581781926521  1.0000
  C   C103      1.0  0.34169834935730153  0.8505208615539602  0.3722613680760529  1.0000
  C   C104      1.0  0.4354742013549143  0.3417013195216044  0.37223648364134476  1.0000
  C   C105      1.0  0.8505711244742714  0.43546758309076944  0.3722546413833497  1.0000
  C   C106      1.0  0.15829747601107874  0.0645250004637532  0.1277659800827919  1.0000
  C   C107      1.0  0.0645304310211898  0.6494307448194903  0.12774545349368083  1.0000
  C   C108      1.0  0.6494795433053754  0.15829931083580098  0.1277410606036326  1.0000
  C   C109      1.0  0.6209580689942059  0.182354497398535  0.6756378506781857  1.0000
  C   C110      1.0  0.5210718174533258  0.6209692411672093  0.6756475515795088  1.0000
  C   C111      1.0  0.18231664642032544  0.5210837265311312  0.6756384742322581  1.0000
  C   C112      1.0  0.879028924321773  0.9789281149898131  0.8243520024061012  1.0000
  C   C113      1.0  0.9789166345599798  0.31768490797954024  0.8243613478644177  1.0000
  C   C114      1.0  0.31764427294959313  0.8790428091148996  0.824362099367896  1.0000
  C   C115      1.0  0.37904253917716363  0.8176442328942386  0.3243632293532599  1.0000
  C   C116      1.0  0.4789281459226942  0.37903151883178066  0.324351687216776  1.0000
  C   C117      1.0  0.8176839632187695  0.478915588030354  0.32436095475670607  1.0000
  C   C118      1.0  0.1209710379506106  0.02107380950464231  0.1756484711640596  1.0000
  C   C119      1.0  0.0210833285733116  0.6823146861766602  0.17563816844427288  1.0000
  C   C120      1.0  0.6823556907630106  0.12095795122092315  0.1756367613568201  1.0000
  C   C121      1.0  0.533100851185239  0.2064721651292771  0.6988050933414555  1.0000
  C   C122      1.0  0.5616219038290852  0.5331135558141894  0.6988385705851172  1.0000
  C   C123      1.0  0.20644960788214214  0.5616388090707076  0.698813991803881  1.0000
  C   C124      1.0  0.9668862253825312  0.9383790689040695  0.8011599928135523  1.0000
  C   C125      1.0  0.9383643664481557  0.29354894754142435  0.8011851159075859  1.0000
  C   C126      1.0  0.2935269882216859  0.9669013840618134  0.8011929139988965  1.0000
  C   C127      1.0  0.4668984644324895  0.7935277076111618  0.30119564450165365  1.0000
  C   C128      1.0  0.43837611868319476  0.46688804162164393  0.30116244245660784  1.0000
  C   C129      1.0  0.7935497080721846  0.438361064006564  0.30118636796766635  1.0000
  C   C130      1.0  0.03311179645656641  0.061622527858105486  0.19884177637131017  1.0000
  C   C131      1.0  0.06163430312173551  0.7064517880519574  0.1988151924274817  1.0000
  C   C132      1.0  0.7064723287698983  0.033100238453286655  0.19880627336090836  1.0000
  C   C133      1.0  0.4814817810302757  0.19926174080493553  0.6740739488334383  1.0000
  C   C134      1.0  0.6451489099595238  0.48149428052714416  0.6741063241205508  1.0000
  C   C135      1.0  0.19925071667056227  0.6451747355463411  0.6740919488747181  1.0000
  C   C136      1.0  0.0185043731973096  0.8548497684164431  0.8258948914364479  1.0000
  C   C137      1.0  0.854826545280055  0.3007498085716235  0.825907505149452  1.0000
  C   C138      1.0  0.3007394344719502  0.01851880083957983  0.8259251768381474  1.0000
  C   C139      1.0  0.5185181818602943  0.8007366875084827  0.32592584498765115  1.0000
  C   C140      1.0  0.35484975948899944  0.5185058721448427  0.3258941229707162  1.0000
  C   C141      1.0  0.8007492462475057  0.3548254411944285  0.32590780674933484  1.0000
  C   C142      1.0  0.9814955889537063  0.14515157315662439  0.17410572088991932  1.0000
  C   C143      1.0  0.14517341763801284  0.6992503681691461  0.17409225047460092  1.0000
  C   C144      1.0  0.6992611749519144  0.9814810963064745  0.17407449146619305  1.0000
  C   C145      1.0  0.5183673410980917  0.16557775756817245  0.6265307604008328  1.0000
  C   C146      1.0  0.6895107877712052  0.5183449871781673  0.6265568082139907  1.0000
  C   C147      1.0  0.1655668431774515  0.6895521150718339  0.6265472469872364  1.0000
  C   C148      1.0  0.9816546178851056  0.8104891537484918  0.8734420640868378  1.0000
  C   C149      1.0  0.8104495422517816  0.3344333950497499  0.873451040204479  1.0000
  C   C150      1.0  0.3344227888067977  0.9816318597283599  0.873468397347871  1.0000
  C   C151      1.0  0.48163197485622794  0.8344221155090993  0.37346959937071483  1.0000
  C   C152      1.0  0.31048723483493756  0.48165544475170907  0.37344410426856467  1.0000
  C   C153      1.0  0.834433765788461  0.3104471988159928  0.37345293814486513  1.0000
  C   C154      1.0  0.018345344359779903  0.18951102231861944  0.1265584476803596  1.0000
  C   C155      1.0  0.18954912686015757  0.6655667572854043  0.1265497849583497  1.0000
  C   C156      1.0  0.6655778201591147  0.01836745415946693  0.12653178778423774  1.0000
  C   C157      1.0  0.6725838983780792  0.19426715467513125  0.7029223731631687  1.0000
  C   C158      1.0  0.4302321150106181  0.6725885657745962  0.7029106973501129  1.0000
  C   C159      1.0  0.19422316276088483  0.4302457541321657  0.7029094592149505  1.0000
  C   C160      1.0  0.8274154701407  0.06976812763714706  0.7970863094779685  1.0000
  C   C161      1.0  0.0697542949805126  0.3057766904636807  0.7970877620484416  1.0000
  C   C162      1.0  0.30573054595259214  0.8274233173526537  0.7970733059085973  1.0000
  C   C163      1.0  0.327413476469772  0.8057323899961873  0.297080038366218  1.0000
  C   C164      1.0  0.5697678476922193  0.3274121935507425  0.29708929758930935  1.0000
  C   C165      1.0  0.8057768001571832  0.5697544226086035  0.29709029640910967  1.0000
  C   C166      1.0  0.1725806103766985  0.9302337233036442  0.2029177507801022  1.0000
  C   C167      1.0  0.9302456670216516  0.6942223197606411  0.20291302723115465  1.0000
  C   C168      1.0  0.6942687704596794  0.17257713898283106  0.20292653703517516  1.0000
  C   C169      1.0  0.3871030213628758  0.22779562671722428  0.6998347236441232  1.0000
  C   C170      1.0  0.6852423154961614  0.3871196888671379  0.6998436393959508  1.0000
  C   C171      1.0  0.22779841118919822  0.6852443641807111  0.6998559974266243  1.0000
  C   C172      1.0  0.11287863372386653  0.814761525964542  0.8001534232641134  1.0000
  C   C173      1.0  0.8147633605807985  0.272201260662449  0.8001394790041018  1.0000
  C   C174      1.0  0.27220481254490647  0.11289649217537351  0.8001629232959074  1.0000
  C   C175      1.0  0.612896294591444  0.7722042463600404  0.3001656361274243  1.0000
  C   C176      1.0  0.3147511791858052  0.6128809494406154  0.3001605690226583  1.0000
  C   C177      1.0  0.7722015508129657  0.31475464604361775  0.3001447918529719  1.0000
  C   C178      1.0  0.8871206820152296  0.18523892969729167  0.19984717582279635  1.0000
  C   C179      1.0  0.18523078152285422  0.72780026456703  0.19986360843924436  1.0000
  C   C180      1.0  0.727795796878951  0.887103404970681  0.19983674500843301  1.0000
  N   N1        1.0  0.7445049259041455  0.07731280863896474  0.3648241623089632  1.0000
  N   N2        1.0  0.8133637314559438  0.7444713769008688  0.36481681444581676  1.0000
  N   N3        1.0  0.07732486501002711  0.8133883177599586  0.3648231911499877  1.0000
  N   N4        1.0  0.7555295840264195  0.6866371547072632  0.13518245502336862  1.0000
  N   N5        1.0  0.6866117570761575  0.4226759956992367  0.13517587465310046  1.0000
  N   N6        1.0  0.4226872969564753  0.7554955263842443  0.13517543225689366  1.0000
  N   N7        1.0  0.2554943901715347  0.9226876473596946  0.635176058706385  1.0000
  N   N8        1.0  0.18663558474109723  0.2555296620191854  0.6351832678133249  1.0000
  N   N9        1.0  0.9226763912562179  0.1866113001281988  0.6351760117630575  1.0000
  N   N10       1.0  0.24447037889164855  0.31336302203350647  0.8648173006006913  1.0000
  N   N11       1.0  0.31338885201111577  0.5773239011099847  0.8648241717228017  1.0000
  N   N12       1.0  0.577313312925334  0.24450495402002997  0.8648237192196716  1.0000
  O   O1        1.0  0.6344816141525415  0.21190833246709662  0.7506995025074801  1.0000
  O   O2        1.0  0.40291051067877254  0.6344694419876973  0.7506778217413838  1.0000
  O   O3        1.0  0.21188507779962157  0.40292305363275466  0.7506803965290557  1.0000
  O   O4        1.0  0.8655298568292907  0.09708855167165362  0.7493228624456447  1.0000
  O   O5        1.0  0.0970767550734379  0.288115961267394  0.7493188740030733  1.0000
  O   O6        1.0  0.28809121712919966  0.8655185723133275  0.74930080217743  1.0000
  O   O7        1.0  0.3655183489807571  0.7880912616891037  0.24930001380120362  1.0000
  O   O8        1.0  0.5970894528186081  0.3655319009326872  0.24932127829870143  1.0000
  O   O9        1.0  0.7881142386126502  0.5970774027027306  0.24931944641471637  1.0000
  O   O10       1.0  0.13446945979821123  0.9029113220792765  0.2506767411827582  1.0000
  O   O11       1.0  0.9029225616754318  0.7118844954049237  0.2506805908691305  1.0000
  O   O12       1.0  0.7119080994983024  0.13448130143760303  0.25069880145097295  1.0000
  O   O13       1.0  0.7478782164664183  0.1873764262625458  0.6770450745059761  1.0000
  O   O14       1.0  0.3877167480963025  0.7478860473121854  0.6770278296535537  1.0000
  O   O15       1.0  0.18733218793055784  0.38773087014848784  0.6770187188773348  1.0000
  O   O16       1.0  0.7521106685912005  0.11228625397200181  0.8229725121860412  1.0000
  O   O17       1.0  0.11227128619476902  0.312667999827312  0.8229805720455231  1.0000
  O   O18       1.0  0.31262326079907143  0.7521210008684138  0.8229546931365235  1.0000
  O   O19       1.0  0.2521236854172102  0.8126234939417998  0.3229550365458565  1.0000
  O   O20       1.0  0.6122825685586905  0.2521155748660889  0.32297173577781985  1.0000
  O   O21       1.0  0.8126677749875102  0.6122693065922814  0.3229810367467253  1.0000
  O   O22       1.0  0.2478905867866388  0.8877139458270592  0.17702768618551093  1.0000
  O   O23       1.0  0.8877286770598901  0.6873321772502905  0.17701880550696816  1.0000
  O   O24       1.0  0.6873760556131999  0.24787945546707837  0.17704514980725608  1.0000
  O   O25       1.0  0.36234951868056703  0.246793676033036  0.7468085078801605  1.0000
  O   O26       1.0  0.6440322330124887  0.3623646367412974  0.746821773724136  1.0000
  O   O27       1.0  0.24679014170601485  0.6440257757738267  0.7468296832933774  1.0000
  O   O28       1.0  0.1376332049011992  0.8559659271626574  0.7531797762656749  1.0000
  O   O29       1.0  0.8559761841345621  0.2532109684504392  0.7531698551901725  1.0000
  O   O30       1.0  0.25320797022597225  0.13764978236444855  0.7531911632342696  1.0000
  O   O31       1.0  0.6376497980682955  0.753206780639282  0.2531909569920429  1.0000
  O   O32       1.0  0.3559638498610412  0.6376372165573018  0.25317964003293975  1.0000
  O   O33       1.0  0.7532098212120532  0.355974400966943  0.2531700723306755  1.0000
  O   O34       1.0  0.8623661113897114  0.1440339462514334  0.24682020543430372  1.0000
  O   O35       1.0  0.14402248519260044  0.7467886013001533  0.24683073065729383  1.0000
  O   O36       1.0  0.746791993028687  0.8623503947131466  0.2468082143182144  1.0000
  O   O37       1.0  0.3393140642353388  0.23076994734535106  0.6728456603407268  1.0000
  O   O38       1.0  0.7570354361422391  0.33933385907068475  0.6728523252919132  1.0000
  O   O39       1.0  0.23076665242367517  0.7570452934033512  0.6728605735458186  1.0000
  O   O40       1.0  0.16066654923587012  0.7429628393260046  0.8271482290865179  1.0000
  O   O41       1.0  0.7429555543913652  0.2692347440969911  0.8271383861204312  1.0000
  O   O42       1.0  0.26923031184799845  0.16068643851689762  0.8271540538260849  1.0000
  O   O43       1.0  0.6606846055497827  0.7692302056634687  0.32715440867896467  1.0000
  O   O44       1.0  0.2429625853052784  0.6606642404999619  0.3271498983585843  1.0000
  O   O45       1.0  0.7692333103730322  0.24295430041602362  0.3271393208344406  1.0000
  O   O46       1.0  0.8393314742861764  0.25703875912031293  0.17285164974049383  1.0000
  O   O47       1.0  0.25704182183034163  0.7307665503489958  0.1728624749256369  1.0000
  O   O48       1.0  0.7307696511639394  0.8393125727179155  0.17284560123880502  1.0000
