data_image0
_chemical_formula_structural       Al8H72C120O48
_chemical_formula_sum              "Al8 H72 C120 O48"
_cell_length_a       13.001168657352
_cell_length_b       13.00076017411344
_cell_length_c       27.744022951348384
_cell_angle_alpha    103.55000700645805
_cell_angle_beta     103.5477269246778
_cell_angle_gamma    90.00465233336983

_space_group_name_H-M_alt    "P 1"
_space_group_IT_number       1

loop_
  _space_group_symop_operation_xyz
  'x, y, z'

loop_
  _atom_site_type_symbol
  _atom_site_label
  _atom_site_symmetry_multiplicity
  _atom_site_fract_x
  _atom_site_fract_y
  _atom_site_fract_z
  _atom_site_occupancy
  Al  Al1       1.0  0.4999998683293541  4.866280817910993e-07  2.531035576808405e-07  1.0000
  Al  Al2       1.0  0.0  0.0  0.0  1.0000
  Al  Al3       1.0  2.570795486773953e-08  0.5000001068990585  0.5000004501073505  1.0000
  Al  Al4       1.0  3.191787812111666e-07  3.326041380013342e-07  0.5000002504975143  1.0000
  Al  Al5       1.0  0.7565650435527475  0.0065555633553557695  0.01311761226664025  1.0000
  Al  Al6       1.0  0.0065563159761979585  0.7565433177372183  0.5131014543363293  1.0000
  Al  Al7       1.0  0.24343506378143331  0.9934455319711047  0.9868825286681399  1.0000
  Al  Al8       1.0  0.993443364496805  0.24345703229992202  0.4868990522184616  1.0000
  H   H1        1.0  0.625194433669833  0.8656224936388667  0.9986449014740444  1.0000
  H   H2        1.0  0.8733977068105787  0.1330702744969514  0.9986226862500371  1.0000
  H   H3        1.0  0.13302916363597464  0.625177084105296  0.4986175814734324  1.0000
  H   H4        1.0  0.8656042448604778  0.8733940057579088  0.4986405290576029  1.0000
  H   H5        1.0  0.37480476177393035  0.13437872780760068  0.001354464981446293  1.0000
  H   H6        1.0  0.1266023962083906  0.8669293641762649  0.0013775875791922172  1.0000
  H   H7        1.0  0.8669721122033566  0.3748248020826423  0.5013837275978403  1.0000
  H   H8        1.0  0.1343955889408477  0.12660788089682737  0.501359338392909  1.0000
  H   H9        1.0  0.764949860435415  0.07042137657435178  0.881842302715846  1.0000
  H   H10       1.0  0.6168452318519185  0.8113318322511488  0.8818231212074251  1.0000
  H   H11       1.0  0.8114349000769181  0.7649803489171987  0.38183447136410814  1.0000
  H   H12       1.0  0.0703901276358678  0.6168387192774034  0.3818199210608739  1.0000
  H   H13       1.0  0.2350506657378872  0.9295772532728533  0.11815667237435427  1.0000
  H   H14       1.0  0.38315355364878195  0.1886669355962453  0.1181764906951557  1.0000
  H   H15       1.0  0.1885661811841501  0.23501990904201617  0.6181658509192189  1.0000
  H   H16       1.0  0.9296123544132727  0.3831614466038856  0.6181802169509893  1.0000
  H   H17       1.0  0.7523563301176851  0.057418841499170994  0.7889480098826169  1.0000
  H   H18       1.0  0.5366245007321878  0.7314529030863994  0.788888832474491  1.0000
  H   H19       1.0  0.7316010884000903  0.7523493240314707  0.2889246749858501  1.0000
  H   H20       1.0  0.057351239237021845  0.5366010005739595  0.28889817667468515  1.0000
  H   H21       1.0  0.2476430688004001  0.9425790890976838  0.21105142296332244  1.0000
  H   H22       1.0  0.4633747116296902  0.26854661005031477  0.21111041380808618  1.0000
  H   H23       1.0  0.26840086720830675  0.24765247031193377  0.711075729003575  1.0000
  H   H24       1.0  0.9426502688852236  0.46340000267456805  0.7111017799886381  1.0000
  H   H25       1.0  0.411972098560163  0.02676747571510419  0.7591715973663467  1.0000
  H   H26       1.0  0.8472391252053696  0.7323745037826155  0.7591574127528986  1.0000
  H   H27       1.0  0.732469516740288  0.4119824733018973  0.25914287295155697  1.0000
  H   H28       1.0  0.026716587441093505  0.847236194386916  0.25915651330061  1.0000
  H   H29       1.0  0.5880291486321454  0.9732311538987019  0.2408280985342302  1.0000
  H   H30       1.0  0.1527587527201177  0.26762584683803675  0.2408412917759435  1.0000
  H   H31       1.0  0.2675327124009642  0.5880185297132314  0.7408578045221432  1.0000
  H   H32       1.0  0.9732803578074468  0.15276508521210266  0.7408436357719097  1.0000
  H   H33       1.0  0.42549953031199544  0.038128499571541886  0.8514775210357327  1.0000
  H   H34       1.0  0.9259468603269099  0.8132521880029913  0.8514364045528849  1.0000
  H   H35       1.0  0.8133294243052375  0.42546973796967075  0.3514303911615498  1.0000
  H   H36       1.0  0.038089174851869134  0.9259517913800649  0.3514607487668114  1.0000
  H   H37       1.0  0.5744999555827449  0.9618702222368964  0.14852199873111255  1.0000
  H   H38       1.0  0.07405154403932099  0.18674653415554582  0.14856203399839527  1.0000
  H   H39       1.0  0.1866721044419819  0.5745313110844207  0.6485703784478857  1.0000
  H   H40       1.0  0.9619086573469103  0.07404785964013172  0.6485394947333417  1.0000
  H   H41       1.0  0.4762361346445303  0.1408270514101559  0.6468167866234396  1.0000
  H   H42       1.0  0.6705841923792876  0.5060185046698038  0.646840021348055  1.0000
  H   H43       1.0  0.5060749803553647  0.47630503489920534  0.1468282792990934  1.0000
  H   H44       1.0  0.14080192542952827  0.6706254533031312  0.14684571672118096  1.0000
  H   H45       1.0  0.5237640516442355  0.8591716243593125  0.35318264100767743  1.0000
  H   H46       1.0  0.32942036575021666  0.49398086929970475  0.3531621921740253  1.0000
  H   H47       1.0  0.49392411992812396  0.5236930332310409  0.8531732319799871  1.0000
  H   H48       1.0  0.8591975684872606  0.3293764792738755  0.8531546032702476  1.0000
  H   H49       1.0  0.30135924169870526  0.09244122671530867  0.5835839645434291  1.0000
  H   H50       1.0  0.7822364130677643  0.4911270979986924  0.5835895643702144  1.0000
  H   H51       1.0  0.49116507919823965  0.30137725906534024  0.08358550346093807  1.0000
  H   H52       1.0  0.09253892860473907  0.7822237840521353  0.08363003563067649  1.0000
  H   H53       1.0  0.6986409445900604  0.9075574490541597  0.41641546308768795  1.0000
  H   H54       1.0  0.2177662967875235  0.5088715769538652  0.4164123860972281  1.0000
  H   H55       1.0  0.5088364827768572  0.6986206708313104  0.9164160918161385  1.0000
  H   H56       1.0  0.907461705170178  0.21777568281220994  0.916369839326542  1.0000
  H   H57       1.0  0.27889152691219726  0.8004068775818282  0.6286937326104365  1.0000
  H   H58       1.0  0.8498574860733683  0.8282868866016526  0.6287012602606906  1.0000
  H   H59       1.0  0.8282815249281016  0.27890177593072707  0.1286788249016055  1.0000
  H   H60       1.0  0.8004458405208227  0.8498820603114295  0.12869138282177056  1.0000
  H   H61       1.0  0.7211077266996211  0.19959272716600648  0.37130713956436506  1.0000
  H   H62       1.0  0.15013483442655223  0.1717145319311655  0.37129664238270266  1.0000
  H   H63       1.0  0.17171756722925113  0.7211000651518519  0.8713195087924104  1.0000
  H   H64       1.0  0.1995539063038547  0.1501190351317305  0.8713083977078282  1.0000
  H   H65       1.0  0.4498572470545739  0.8504852960344136  0.6940864797803528  1.0000
  H   H66       1.0  0.744251521454622  0.8435994108446607  0.6941193422905982  1.0000
  H   H67       1.0  0.843648873616921  0.44993353858008317  0.19407940418359707  1.0000
  H   H68       1.0  0.8504778886992811  0.7442657350080922  0.19411353015563285  1.0000
  H   H69       1.0  0.5501414594915346  0.1495158913699726  0.3059138454258985  1.0000
  H   H70       1.0  0.2557417729721863  0.1564011703209189  0.30587874170133483  1.0000
  H   H71       1.0  0.15635270085700623  0.5500682100744639  0.8059198264545271  1.0000
  H   H72       1.0  0.14952345349172455  0.2557368965858586  0.8058870528904406  1.0000
  C   C1        1.0  0.6028158669214889  0.05288906858224611  0.9261147887984293  1.0000
  C   C2        1.0  0.8233022759042256  0.8731966995475561  0.9261202235960723  1.0000
  C   C3        1.0  0.873176255304095  0.6028154681652893  0.42611476671524423  1.0000
  C   C4        1.0  0.052876350483515404  0.8232876543448524  0.4261048890381786  1.0000
  C   C5        1.0  0.39718421978771795  0.9471119809386508  0.07388453919023871  1.0000
  C   C6        1.0  0.1766968494810115  0.12680202237757499  0.0738789357655918  1.0000
  C   C7        1.0  0.12682473898032492  0.39718399858235637  0.5738854686471696  1.0000
  C   C8        1.0  0.947124303916368  0.1767118583250493  0.573895798865152  1.0000
  C   C9        1.0  0.5957121362301763  0.054837756254968895  0.8718274766327169  1.0000
  C   C10       1.0  0.7761007870448892  0.8169530610960436  0.8718289602914024  1.0000
  C   C11       1.0  0.8169189731022045  0.5957190438600221  0.37183425890606964  1.0000
  C   C12       1.0  0.054872874013469145  0.7761011443748558  0.37182670673102075  1.0000
  C   C13       1.0  0.4042886714980369  0.9451632930325288  0.12817257216633487  1.0000
  C   C14       1.0  0.22389878582649203  0.1830464519239641  0.12817064639636297  1.0000
  C   C15       1.0  0.1830817682743273  0.4042812600214631  0.6281665159181813  1.0000
  C   C16       1.0  0.9451282942242473  0.22389990479593536  0.6281737024732194  1.0000
  C   C17       1.0  0.6882006204876276  0.06142168768566588  0.8545640716009828  1.0000
  C   C18       1.0  0.6663326500963862  0.7930700564854192  0.8545440267238787  1.0000
  C   C19       1.0  0.7930646466246712  0.6882195472595639  0.3545659299055827  1.0000
  C   C20       1.0  0.061469539290619914  0.6663344844912229  0.3545496650947868  1.0000
  C   C21       1.0  0.31179965277779337  0.9385777792953789  0.1454354429510545  1.0000
  C   C22       1.0  0.33366613540431433  0.20692871136197505  0.14545558517870205  1.0000
  C   C23       1.0  0.20693554768615038  0.3117823392784728  0.6454342979501176  1.0000
  C   C24       1.0  0.9385318818549847  0.3336657275457355  0.6454502046476163  1.0000
  C   C25       1.0  0.6813902473553028  0.053202657342247064  0.8030987463449292  1.0000
  C   C26       1.0  0.6217199848269672  0.749839346654298  0.8030772415463829  1.0000
  C   C27       1.0  0.7498325265707849  0.6813980967009241  0.3030960623972517  1.0000
  C   C28       1.0  0.053235756904555745  0.6217162743234539  0.30308180960243186  1.0000
  C   C29       1.0  0.31861108681364675  0.9467967634831284  0.19690103647656088  1.0000
  C   C30       1.0  0.378278547765845  0.2501602583269431  0.196922909818035  1.0000
  C   C31       1.0  0.25016831438531284  0.31859983342912557  0.6969048120694409  1.0000
  C   C32       1.0  0.9467650508236571  0.3782847749640439  0.6969182391966199  1.0000
  C   C33       1.0  0.5819450434789886  0.038683424152502296  0.76804613064688  1.0000
  C   C34       1.0  0.6861232522509937  0.7293288619790559  0.7680356915303432  1.0000
  C   C35       1.0  0.7293068920831659  0.5819570843020045  0.26804889701958245  1.0000
  C   C36       1.0  0.038748773488023906  0.6861415850522831  0.2680466875537348  1.0000
  C   C37       1.0  0.41805531676307334  0.9613168340401186  0.23195347082607035  1.0000
  C   C38       1.0  0.3138765941532426  0.270669859712676  0.2319641886416974  1.0000
  C   C39       1.0  0.2706946366640537  0.418043964752087  0.7319518725898462  1.0000
  C   C40       1.0  0.9612516943556598  0.31385951015747776  0.7319538137862407  1.0000
  C   C41       1.0  0.48946214213768247  0.034960765718118084  0.7857555413036932  1.0000
  C   C42       1.0  0.7962974691245962  0.7507759078806444  0.7857472821727427  1.0000
  C   C43       1.0  0.7507807963690497  0.4894822633945139  0.28574946682687846  1.0000
  C   C44       1.0  0.03497782548363664  0.7963144745497462  0.285747856616922  1.0000
  C   C45       1.0  0.5105381311277313  0.9650387012629267  0.21424397324834388  1.0000
  C   C46       1.0  0.20370070295871295  0.2492236972172889  0.21425250878647964  1.0000
  C   C47       1.0  0.24922037186866675  0.5105187857762772  0.7142509423773689  1.0000
  C   C48       1.0  0.9650201806684393  0.20368675889361035  0.7142525607250574  1.0000
  C   C49       1.0  0.49636639086264706  0.04255347421759839  0.8372664071220297  1.0000
  C   C50       1.0  0.8408854198743968  0.7946489585915728  0.8372550984650573  1.0000
  C   C51       1.0  0.7946648228732442  0.49636588310397645  0.33725303322260897  1.0000
  C   C52       1.0  0.042559662421993494  0.8408961854024781  0.3372564521587549  1.0000
  C   C53       1.0  0.5036338824027737  0.9574459927634466  0.16273310743000738  1.0000
  C   C54       1.0  0.15911370551083337  0.2053497633335581  0.16274406089660687  1.0000
  C   C55       1.0  0.20533477062311076  0.5036336757215947  0.6627473864112686  1.0000
  C   C56       1.0  0.9574391311007631  0.1591057932134845  0.6627439599684095  1.0000
  C   C57       1.0  0.5773155559083563  0.032512044594611184  0.7131885317837002  1.0000
  C   C58       1.0  0.6359081019339925  0.6806481883574164  0.7131828121918672  1.0000
  C   C59       1.0  0.6806928217367699  0.5773003221517142  0.21319126004771496  1.0000
  C   C60       1.0  0.032518355811653465  0.6358807709451779  0.21318290607234758  1.0000
  C   C61       1.0  0.42268717904866554  0.9674872841528381  0.286811066766326  1.0000
  C   C62       1.0  0.3640877080372745  0.31934918122268396  0.286816994411815  1.0000
  C   C63       1.0  0.3193082595242984  0.4226999358075004  0.7868090622356121  1.0000
  C   C64       1.0  0.9674808771751915  0.36411878799709285  0.7868171531563348  1.0000
  C   C65       1.0  0.47334977387166766  0.9998625623916338  0.6749320136353204  1.0000
  C   C66       1.0  0.701625742399976  0.6750793493394198  0.6749439493798235  1.0000
  C   C67       1.0  0.6751021892054753  0.473341406500154  0.17494567248228066  1.0000
  C   C68       1.0  0.9998131154510831  0.7015906481596657  0.17493113496508528  1.0000
  C   C69       1.0  0.5266511128111374  0.00013606733886459998  0.32506732186006804  1.0000
  C   C70       1.0  0.298374124629227  0.32491941815786873  0.32505674373832966  1.0000
  C   C71       1.0  0.3248981046849123  0.5266581062864545  0.8250546550158615  1.0000
  C   C72       1.0  0.00018690490644953975  0.2984096559552185  0.8250689190487818  1.0000
  C   C73       1.0  0.43220173735431894  0.0667963010391048  0.6429896656859453  1.0000
  C   C74       1.0  0.7107967779900689  0.5761942886319673  0.6429926977372843  1.0000
  C   C75       1.0  0.576231962810219  0.43221724156474284  0.14299880176147886  1.0000
  C   C76       1.0  0.06675079577467362  0.7107673987854144  0.1429846939821715  1.0000
  C   C77       1.0  0.5677992363051346  0.9332031199029771  0.3570097567303492  1.0000
  C   C78       1.0  0.2892051238695572  0.4238035953424202  0.3570084449988684  1.0000
  C   C79       1.0  0.42377063944344684  0.5677805963706746  0.8570022488389383  1.0000
  C   C80       1.0  0.9332502854863947  0.2892328591738077  0.8570156283011555  1.0000
  C   C81       1.0  0.33511023634304854  0.0398105537442106  0.607721823147024  1.0000
  C   C82       1.0  0.7726224912314804  0.567924111619888  0.6077239139860139  1.0000
  C   C83       1.0  0.567946136192525  0.3351340231726923  0.10773319381103617  1.0000
  C   C84       1.0  0.0397954791500226  0.7726055456195056  0.1077208813842176  1.0000
  C   C85       1.0  0.6648904763864607  0.9601864935631355  0.3922773385065311  1.0000
  C   C86       1.0  0.2273782707700249  0.43207623806715395  0.39227767378434203  1.0000
  C   C87       1.0  0.4320512691450773  0.6648648825581986  0.8922674153091206  1.0000
  C   C88       1.0  0.9602033933273192  0.22739401343947208  0.8922788174392835  1.0000
  C   C89       1.0  0.2792463932434685  0.944126969733304  0.6028406282542419  1.0000
  C   C90       1.0  0.823592953620306  0.6587169536362083  0.6028351577855631  1.0000
  C   C91       1.0  0.6587361768197441  0.2792645091764144  0.10284442545003707  1.0000
  C   C92       1.0  0.9441133743860206  0.8235713746458657  0.10282495230315189  1.0000
  C   C93       1.0  0.7207547669721919  0.05587086866891868  0.39715898072541467  1.0000
  C   C94       1.0  0.176406279366546  0.34128260530606264  0.3971649014431192  1.0000
  C   C95       1.0  0.341264456955173  0.7207349576879309  0.8971554495071885  1.0000
  C   C96       1.0  0.055885858600831305  0.1764281842964124  0.8971751069255305  1.0000
  C   C97       1.0  0.32212781542765623  0.8754239500923332  0.6335460863624292  1.0000
  C   C98       1.0  0.8114320359859306  0.758127540508127  0.6335484190574049  1.0000
  C   C99       1.0  0.7581410285501561  0.3221498133804275  0.1335469204397981  1.0000
  C   C100      1.0  0.8754137647744075  0.8113909815891277  0.1335346343990196  1.0000
  C   C101      1.0  0.677872631791054  0.12457709931186395  0.3664536020314344  1.0000
  C   C102      1.0  0.18856428782316206  0.24187136557286237  0.36645110884717974  1.0000
  C   C103      1.0  0.24186194671183608  0.6778518431961941  0.8664521259268624  1.0000
  C   C104      1.0  0.12458765637119042  0.1886092304478311  0.8664652353433908  1.0000
  C   C105      1.0  0.41779604423044236  0.9038139331581546  0.669938351630634  1.0000
  C   C106      1.0  0.7521913438642969  0.7661417576095959  0.6699586549258855  1.0000
  C   C107      1.0  0.7661637649519122  0.4178027534629293  0.16994882235472622  1.0000
  C   C108      1.0  0.9037837961888329  0.7521616635099236  0.1699488061278629  1.0000
  C   C109      1.0  0.5822053895180731  0.09618311391579229  0.3300615308332979  1.0000
  C   C110      1.0  0.24780477276362223  0.23385868520568917  0.3300398734692321  1.0000
  C   C111      1.0  0.23383596124779876  0.582198296174674  0.8300501452287605  1.0000
  C   C112      1.0  0.09621561075131521  0.2478394778555  0.8300514269426528  1.0000
  C   C113      1.0  0.17439390327324844  0.915804334091078  0.5656329574082548  1.0000
  C   C114      1.0  0.8912712640895251  0.649830611271689  0.565639801280966  1.0000
  C   C115      1.0  0.649822944208438  0.17442013405193524  0.0656366269301785  1.0000
  C   C116      1.0  0.9158078253174722  0.8912860436972776  0.06564217881663838  1.0000
  C   C117      1.0  0.8256057565747811  0.08419597014050587  0.43436673620042393  1.0000
  C   C118      1.0  0.10872744245659055  0.35017057613269736  0.43436052392528524  1.0000
  C   C119      1.0  0.3501783110059264  0.8255817063304319  0.934363869194982  1.0000
  C   C120      1.0  0.08419386936098054  0.10871337701139791  0.9343579644100402  1.0000
  O   O1        1.0  0.6301397233869251  0.9416496317687831  0.01266036590919842  1.0000
  O   O2        1.0  0.8825030469335148  0.0710561300969914  0.012637849350369386  1.0000
  O   O3        1.0  0.07103913501357792  0.6301328063441927  0.5126478619052222  1.0000
  O   O4        1.0  0.9416300929811355  0.882500509723904  0.5126427071096414  1.0000
  O   O5        1.0  0.36986029697060724  0.05835067234610139  0.9873396881046687  1.0000
  O   O6        1.0  0.11749740028519534  0.9289449193072059  0.9873618390434941  1.0000
  O   O7        1.0  0.92896045848277  0.3698667524813786  0.4873525577286557  1.0000
  O   O8        1.0  0.058368866472854095  0.1174998405466425  0.4873570786347727  1.0000
  O   O9        1.0  0.5182486769937638  0.026142746623740692  0.9367405164427608  1.0000
  O   O10       1.0  0.9184638549009279  0.9105584360198691  0.9367390634568051  1.0000
  O   O11       1.0  0.9105644232439047  0.5182765556578985  0.4367376432194233  1.0000
  O   O12       1.0  0.02606348326699502  0.9184530066575147  0.4367201740529296  1.0000
  O   O13       1.0  0.4817519648032089  0.973859931009173  0.0632601587390482  1.0000
  O   O14       1.0  0.0815359045266604  0.08943949446028648  0.0632607297943224  1.0000
  O   O15       1.0  0.08943559711362076  0.4817237484569858  0.5632624107944437  1.0000
  O   O16       1.0  0.9739360232527119  0.08154576095648028  0.5632801586600349  1.0000
  O   O17       1.0  0.6930471875512367  0.0744133666616946  0.957874613496486  1.0000
  O   O18       1.0  0.7648409387705614  0.88340780826546  0.9579018594722014  1.0000
  O   O19       1.0  0.8834155078510548  0.6930810992647523  0.45789336863494867  1.0000
  O   O20       1.0  0.07444838097126191  0.7648390766660355  0.4578844699315425  1.0000
  O   O21       1.0  0.3069542335943609  0.9255868453752638  0.0421252562459244  1.0000
  O   O22       1.0  0.23515829421628348  0.116591750676811  0.04209819975648091  1.0000
  O   O23       1.0  0.11658523352548403  0.30691920461672595  0.5421074061892952  1.0000
  O   O24       1.0  0.925552426756951  0.23516197262146218  0.5421155788675164  1.0000
  O   O25       1.0  0.12667872624179932  0.8286912465615329  0.5634296843640101  1.0000
  O   O26       1.0  0.9367835133928181  0.7347462420782592  0.5634358176547777  1.0000
  O   O27       1.0  0.7347327649616986  0.12670818286842686  0.06341429202527137  1.0000
  O   O28       1.0  0.8287017422619486  0.9368276672122134  0.06346788114466759  1.0000
  O   O29       1.0  0.8733212941157333  0.1713090575533514  0.43657036964986407  1.0000
  O   O30       1.0  0.06321510617664212  0.26525415411455106  0.4365644206305531  1.0000
  O   O31       1.0  0.26526838265105124  0.8732928204968073  0.9365853042328567  1.0000
  O   O32       1.0  0.1712976646781995  0.06317347415321711  0.9365323519258482  1.0000
  O   O33       1.0  0.13914176080333365  0.9805884401248476  0.5382610926000311  1.0000
  O   O34       1.0  0.8991976894609836  0.5576721050634886  0.5382842958773891  1.0000
  O   O35       1.0  0.5576483557901  0.13913991685161153  0.03829702904354089  1.0000
  O   O36       1.0  0.9805537698710297  0.8992134663151174  0.038278281294033364  1.0000
  O   O37       1.0  0.860858707040343  0.019412655084913393  0.4617394087399375  1.0000
  O   O38       1.0  0.10080269140604517  0.4423281989346961  0.4617161185416734  1.0000
  O   O39       1.0  0.4423520250769358  0.8608603871465731  0.9617033853755146  1.0000
  O   O40       1.0  0.0194464164177431  0.1007852094543509  0.9617211463370834  1.0000
  O   O41       1.0  0.6558309938338455  0.05583015534375587  0.6991925919743733  1.0000
  O   O42       1.0  0.5434056601722334  0.6433405962759268  0.6991808303240745  1.0000
  O   O43       1.0  0.6434256180708147  0.6558264154274626  0.19917002021266939  1.0000
  O   O44       1.0  0.05576068309689218  0.5433787388651297  0.19918341637016818  1.0000
  O   O45       1.0  0.3441697395206377  0.9441669377691542  0.3008073826252939  1.0000
  O   O46       1.0  0.4565968218769001  0.3566595696053625  0.3008193076877888  1.0000
  O   O47       1.0  0.3565745888429177  0.3441723061475698  0.8008302203645598  1.0000
  O   O48       1.0  0.9442372360785356  0.4566217033666433  0.8008169140508983  1.0000
