data_image0
_chemical_formula_structural       Zn2H7C22Br7N2O8
_chemical_formula_sum              "Zn2 H7 C22 Br7 N2 O8"
_cell_length_a       9.969768991584308
_cell_length_b       11.192974976015988
_cell_length_c       16.144987392657654
_cell_angle_alpha    89.29653081508835
_cell_angle_beta     88.5551915104668
_cell_angle_gamma    89.19403765895312

_space_group_name_H-M_alt    "P 1"
_space_group_IT_number       1

loop_
  _space_group_symop_operation_xyz
  'x, y, z'

loop_
  _atom_site_type_symbol
  _atom_site_label
  _atom_site_symmetry_multiplicity
  _atom_site_fract_x
  _atom_site_fract_y
  _atom_site_fract_z
  _atom_site_occupancy
  Zn  Zn1       1.0  0.6353958473254127  0.5076025727788717  0.4979112341559855  1.0000
  Zn  Zn2       1.0  0.35654180118736895  0.4932358772999521  0.5055336773212531  1.0000
  H   H1        1.0  0.8596776196077871  0.4471087068005843  0.6047833014960773  1.0000
  H   H2        1.0  0.11476951841716955  0.4941000024593832  0.44375074074848453  1.0000
  H   H3        1.0  0.29135055784264813  0.6084455282886265  0.056259354972922906  1.0000
  H   H4        1.0  0.10248399984691053  0.47299404205382695  0.624764231001194  1.0000
  H   H5        1.0  0.29103212921588556  0.4044758077326664  0.9527622440307442  1.0000
  H   H6        1.0  0.6933936031753734  0.3987249433403831  0.948779336787112  1.0000
  H   H7        1.0  0.6361162289905594  0.0986633581878138  0.5045268559672637  1.0000
  C   C1        1.0  0.4880669325855466  0.73245689765703  0.4946471625883717  1.0000
  C   C2        1.0  0.5421884967997173  0.1398837245596098  0.5265333058767183  1.0000
  C   C3        1.0  0.46866681244453207  0.9361207660578044  0.5600098032820997  1.0000
  C   C4        1.0  0.48404645728153656  0.49201538697769825  0.3406330290552901  1.0000
  C   C5        1.0  0.47226000291203724  0.8665796275092105  0.49279522914400087  1.0000
  C   C6        1.0  0.9194853738844846  0.48399254055334506  0.5525801214883758  1.0000
  C   C7        1.0  0.06622857587176162  0.48155166942820643  0.5613934714019493  1.0000
  C   C8        1.0  0.5344641262467322  0.27155745929615444  0.5165349766452607  1.0000
  C   C9        1.0  0.48894547086739254  0.5113443774837377  0.6641067762273067  1.0000
  C   C10       1.0  0.4915539626306188  0.6178347455495227  0.9756808240908086  1.0000
  C   C11       1.0  0.37971161212503557  0.5607197477002472  0.031766849455912904  1.0000
  C   C12       1.0  0.4898132693710339  0.5008740730142945  0.08834530679280311  1.0000
  C   C13       1.0  0.4864441674331276  0.493012224377395  0.2510498886840652  1.0000
  C   C14       1.0  0.49281797011102674  0.5123365789332652  0.7535934788131015  1.0000
  C   C15       1.0  0.6030654563619606  0.5565861712892043  0.02933428390819871  1.0000
  C   C16       1.0  0.6036488675902805  0.4451001360663084  0.9725211659025919  1.0000
  C   C17       1.0  0.4926905992215184  0.5048837102104216  0.9165354972933175  1.0000
  C   C18       1.0  0.4909625542894815  0.38881389605260347  0.0283605530299482  1.0000
  C   C19       1.0  0.37972921614930044  0.44877895620576413  0.975054792731683  1.0000
  C   C20       1.0  0.4876883750363136  0.4968469833840245  0.17566443586019895  1.0000
  C   C21       1.0  0.49385665101630866  0.508824682197705  0.828991225577191  1.0000
  C   C22       1.0  0.44970569184982184  0.06587751264810747  0.5597072826095086  1.0000
  Br  Br1       1.0  0.44828464046545974  0.9281880439366789  0.3840816126176848  1.0000
  Br  Br2       1.0  0.9181994647814735  0.5978117042132567  0.39786328204944976  1.0000
  Br  Br3       1.0  0.4914847584243206  0.7794404746820899  0.9379954815751362  1.0000
  Br  Br4       1.0  0.49126096141805686  0.22622804600265306  0.0651957762415378  1.0000
  Br  Br5       1.0  0.7598434842241064  0.6320045238149915  0.06694933559484181  1.0000
  Br  Br6       1.0  0.28266641873211285  0.11644758974372851  0.6086473098894774  1.0000
  Br  Br7       1.0  0.48670422382021894  0.8611666763824034  0.6664377638577221  1.0000
  N   N1        1.0  0.8453511234448359  0.5244052075830651  0.49429732818848043  1.0000
  N   N2        1.0  0.15345360488768733  0.4863900474872622  0.5020512642710244  1.0000
  O   O1        1.0  0.606760938525092  0.6907683408177475  0.49168188057797835  1.0000
  O   O2        1.0  0.3793446776217167  0.6752331475566891  0.4975978221416639  1.0000
  O   O3        1.0  0.5979032368162012  0.4958337134021135  0.3747545799851224  1.0000
  O   O4        1.0  0.3694781865544031  0.488180399844019  0.37690238158031525  1.0000
  O   O5        1.0  0.6469764378942885  0.32492869336187613  0.5109859640990848  1.0000
  O   O6        1.0  0.4191325396651778  0.3209124045176424  0.5129025524208615  1.0000
  O   O7        1.0  0.6017413396602721  0.5154001630147178  0.6250555571845808  1.0000
  O   O8        1.0  0.37338032555970824  0.5053715978542994  0.6327626508359998  1.0000
