data_image0
_chemical_formula_structural       Zn2H24C18N8O6
_chemical_formula_sum              "Zn2 H24 C18 N8 O6"
_cell_length_a       9.210641644179514
_cell_length_b       9.616356404699568
_cell_length_c       9.659977773539447
_cell_angle_alpha    122.59330637638305
_cell_angle_beta     90.00047924827241
_cell_angle_gamma    89.99930628002438

_space_group_name_H-M_alt    "P 1"
_space_group_IT_number       1

loop_
  _space_group_symop_operation_xyz
  'x, y, z'

loop_
  _atom_site_type_symbol
  _atom_site_label
  _atom_site_symmetry_multiplicity
  _atom_site_fract_x
  _atom_site_fract_y
  _atom_site_fract_z
  _atom_site_occupancy
  Zn  Zn1       1.0  0.5669677911356886  0.4056492394374872  0.2739658611954355  1.0000
  Zn  Zn2       1.0  0.066967502761166  0.5943486107033776  0.7260196932428612  1.0000
  H   H1        1.0  0.2538276449989496  0.5366433020394369  0.4268330659607146  1.0000
  H   H2        1.0  0.7538286264438768  0.46338370876080154  0.5731707609797425  1.0000
  H   H3        1.0  0.43614254946803044  0.309211323719353  0.7937770665664701  1.0000
  H   H4        1.0  0.9361462993575815  0.6907685059947042  0.20620803692217754  1.0000
  H   H5        1.0  0.2452490616150982  0.34785094796669114  0.8124836530572069  1.0000
  H   H6        1.0  0.7452553104503749  0.6521415990883808  0.1875028526750171  1.0000
  H   H7        1.0  0.5998792098628841  0.580429006730732  0.9326978822425147  1.0000
  H   H8        1.0  0.0998832026965815  0.41956558979372716  0.06729470106410672  1.0000
  H   H9        1.0  0.5737942698922326  0.3059506152433542  0.5465723572102661  1.0000
  H   H10       1.0  0.0738023958160241  0.6940624360836198  0.4534390932919339  1.0000
  H   H11       1.0  0.6199410961576675  0.08501399190591033  0.2643963500860592  1.0000
  H   H12       1.0  0.1199705280662968  0.9149814839512941  0.7356217221065364  1.0000
  H   H13       1.0  0.7803355186709098  0.0979772079821046  0.1681935584730141  1.0000
  H   H14       1.0  0.2803637460295861  0.9020251841545602  0.8318414610672492  1.0000
  H   H15       1.0  0.28168319131843594  0.6430299327651879  0.0007637759262380054  1.0000
  H   H16       1.0  0.781674954216797  0.35696584077594207  0.9992234895639385  1.0000
  H   H17       1.0  0.6806459056944548  0.8494441983151615  0.8966499444340457  1.0000
  H   H18       1.0  0.18062859892816624  0.150549818413559  0.1033720609138626  1.0000
  H   H19       1.0  0.7392802197372035  0.8048400535715315  0.04182202754119405  1.0000
  H   H20       1.0  0.23926733072701722  0.1951648297822146  0.9582096951418393  1.0000
  H   H21       1.0  0.6408902243538322  0.14103942791901153  0.9952575126139322  1.0000
  H   H22       1.0  0.1408892756280906  0.8589571629583616  0.0047622834765448365  1.0000
  H   H23       1.0  0.4861177388552493  0.1054139703275823  0.0615654688297838  1.0000
  H   H24       1.0  0.9861163727676401  0.8945874287411614  0.9384426285533963  1.0000
  C   C1        1.0  0.30994047986847323  0.4901567845348963  0.4925776552811101  1.0000
  C   C2        1.0  0.8099490148995941  0.5098534690147076  0.507416640979784  1.0000
  C   C3        1.0  0.35168540117452096  0.3967913300737323  0.8074199149897936  1.0000
  C   C4        1.0  0.8516901339321736  0.603219346023394  0.19257074737449636  1.0000
  C   C5        1.0  0.4734708194438469  0.36822854514487363  0.5528645592093611  1.0000
  C   C6        1.0  0.9734697230156971  0.6317854349821133  0.4471244401600956  1.0000
  C   C7        1.0  0.3614049656324028  0.415057700821329  0.6640498591958348  1.0000
  C   C8        1.0  0.8614013548088976  0.5849394377629834  0.3359355461030801  1.0000
  C   C9        1.0  0.6669081928687747  0.0574208599293087  0.1476701219354624  1.0000
  C   C10       1.0  0.16687962725038835  0.9425857713258379  0.852346291522295  1.0000
  C   C11       1.0  0.3844644268486874  0.522110921449901  0.108589428322695  1.0000
  C   C12       1.0  0.8844613733476411  0.4778663920418751  0.8913878638224234  1.0000
  C   C13       1.0  0.3751329425795333  0.5619286046683245  0.9743483981829899  1.0000
  C   C14       1.0  0.8751307484518451  0.4380546890321  0.025642019947788735  1.0000
  C   C15       1.0  0.6567327907666184  0.8727828481628919  0.01930277713415051  1.0000
  C   C16       1.0  0.1567296267482803  0.12722617657522767  0.9807261065517353  1.0000
  C   C17       1.0  0.5062768041393754  0.8050590484264717  0.017145573788461384  1.0000
  C   C18       1.0  0.006267381258823002  0.19493907522096526  0.9828624870927385  1.0000
  N   N1        1.0  0.5879443442746608  0.15674850321803288  0.0962037022860613  1.0000
  N   N2        1.0  0.08793156745409901  0.8432359106260137  0.9037923047357452  1.0000
  N   N3        1.0  0.5039638192530731  0.6463146263760678  0.9719083523087947  1.0000
  N   N4        1.0  0.003961795327214201  0.3536761892415967  0.028070292796300633  1.0000
  N   N5        1.0  0.44033448288391247  0.4161008233520889  0.44484698017381424  1.0000
  N   N6        1.0  0.9403186038895374  0.5839113203178243  0.5551440154830872  1.0000
  N   N7        1.0  0.25785560864433427  0.49311303458353006  0.6246670271481135  1.0000
  N   N8        1.0  0.7578598190503881  0.5068981092398276  0.37531794247475153  1.0000
  O   O1        1.0  0.5142428657093066  0.49637950327198144  0.13998447032627576  1.0000
  O   O2        1.0  0.014231805818859302  0.5036116678678796  0.8599861140644051  1.0000
  O   O3        1.0  0.270174142411598  0.5091517648465285  0.17088739592193758  1.0000
  O   O4        1.0  0.7701693199296357  0.490836089863997  0.8291022851505829  1.0000
  O   O5        1.0  0.3958552195304393  0.8955566507684908  0.05805293815834757  1.0000
  O   O6        1.0  0.8958453240679844  0.10444775972185742  0.941965227971437  1.0000
