data_image0
_chemical_formula_structural       Cd4H48C60N8O20
_chemical_formula_sum              "Cd4 H48 C60 N8 O20"
_cell_length_a       7.44622979863926
_cell_length_b       11.362441317002633
_cell_length_c       18.513841175789025
_cell_angle_alpha    90.00005019600567
_cell_angle_beta     90.02197848049907
_cell_angle_gamma    90.00005970225392

_space_group_name_H-M_alt    "P 1"
_space_group_IT_number       1

loop_
  _space_group_symop_operation_xyz
  'x, y, z'

loop_
  _atom_site_type_symbol
  _atom_site_label
  _atom_site_symmetry_multiplicity
  _atom_site_fract_x
  _atom_site_fract_y
  _atom_site_fract_z
  _atom_site_occupancy
  Cd  Cd1       1.0  0.5000011937943682  0.5000001139286709  3.9697452789998235e-07  1.0000
  Cd  Cd2       1.0  0.5000015309166201  0.9999986493218885  0.49999915959169533  1.0000
  Cd  Cd3       1.0  2.835842778008208e-07  0.49999976901910503  0.9999990099065813  1.0000
  Cd  Cd4       1.0  2.633801834400091e-06  3.5353463799999995e-07  0.5000007866986422  1.0000
  H   H1        1.0  0.0212322324859073  0.20536807449603603  0.3251074671395885  1.0000
  H   H2        1.0  0.9787700310578061  0.7053655992202438  0.17489354986491895  1.0000
  H   H3        1.0  0.9787687022277395  0.7946337405193088  0.6748927414788215  1.0000
  H   H4        1.0  0.0212255318096339  0.29463269542304  0.8251066602062951  1.0000
  H   H5        1.0  0.46941161445995766  0.5085371303512147  0.18267481670910266  1.0000
  H   H6        1.0  0.5305889909418086  0.0085399448198018  0.3173244733818734  1.0000
  H   H7        1.0  0.5305906603748908  0.49146204438616076  0.8173243112724651  1.0000
  H   H8        1.0  0.4694052261292826  0.9914609900999164  0.6826746567808045  1.0000
  H   H9        1.0  0.03685126587972581  0.31016677642607954  0.20558667493577334  1.0000
  H   H10       1.0  0.9631538519712849  0.8101644594318034  0.2944154785150418  1.0000
  H   H11       1.0  0.9631577308561319  0.6898359186857306  0.7944151519112665  1.0000
  H   H12       1.0  0.03683902781202161  0.18983383521131705  0.7055858125557393  1.0000
  H   H13       1.0  0.1864167375049419  0.42242803579134863  0.3782911368535552  1.0000
  H   H14       1.0  0.8135791484496053  0.9224332925671134  0.12170783927758325  1.0000
  H   H15       1.0  0.8135815056076652  0.577568498666217  0.6217069119449266  1.0000
  H   H16       1.0  0.18641775879400774  0.0775606016142376  0.8782929105653354  1.0000
  H   H17       1.0  0.43736675310739065  0.2973731590248434  0.41826190452331263  1.0000
  H   H18       1.0  0.5626343043060801  0.797377306649814  0.0817359219825278  1.0000
  H   H19       1.0  0.5626368661084911  0.7026277758984846  0.5817377632316296  1.0000
  H   H20       1.0  0.4373599170172042  0.20261834771572745  0.9182648285877452  1.0000
  H   H21       1.0  0.4858996090624572  0.28291919397636184  0.10469075402988892  1.0000
  H   H22       1.0  0.514102774150622  0.7829184711115007  0.39530922480878433  1.0000
  H   H23       1.0  0.5141040101527281  0.7170808608544094  0.8953089137248186  1.0000
  H   H24       1.0  0.4858995035245854  0.21708422399686367  0.6046909834464247  1.0000
  H   H25       1.0  0.20364810485800433  0.5289763628443254  0.25957795332993083  1.0000
  H   H26       1.0  0.7963511884494281  0.028976611003123796  0.24042080808492733  1.0000
  H   H27       1.0  0.7963514797959803  0.4710192915207615  0.7404195549685328  1.0000
  H   H28       1.0  0.20364303287246346  0.9710172831773106  0.7595799424848695  1.0000
  H   H29       1.0  0.1565876499984853  0.028323229539893205  0.05251725569821991  1.0000
  H   H30       1.0  0.8434156768337148  0.528321926775007  0.4474836648166588  1.0000
  H   H31       1.0  0.8434132847165544  0.9716803456605521  0.9474829529206663  1.0000
  H   H32       1.0  0.1565825691199478  0.4716790081460969  0.5525154642557056  1.0000
  H   H33       1.0  0.029692957722559803  0.07250036645791622  0.12986786007423495  1.0000
  H   H34       1.0  0.9703090945168853  0.5725008017370071  0.3701325446541902  1.0000
  H   H35       1.0  0.9703093199519514  0.9275014485578834  0.8701323481807325  1.0000
  H   H36       1.0  0.029689151436088003  0.4274992530915397  0.6298665844179326  1.0000
  H   H37       1.0  0.9928157087550673  0.22392230361603538  0.019475537286602708  1.0000
  H   H38       1.0  0.007186582681406201  0.7239222328305033  0.4805249496562283  1.0000
  H   H39       1.0  0.007187910461510702  0.7760795113998499  0.9805241304685881  1.0000
  H   H40       1.0  0.992817037951184  0.2760760618155444  0.519475258234344  1.0000
  H   H41       1.0  0.2879660974255245  0.1545172020372476  0.18867559094849906  1.0000
  H   H42       1.0  0.712034742829495  0.6545147363066448  0.31132539880996296  1.0000
  H   H43       1.0  0.7120348372881296  0.8454846129780974  0.8113246176699108  1.0000
  H   H44       1.0  0.2879661904653688  0.34548707870831663  0.688674269672106  1.0000
  H   H45       1.0  0.4089417167326915  0.05710415851428511  0.1310367032745603  1.0000
  H   H46       1.0  0.5910603140217248  0.557102571211857  0.3689647733666207  1.0000
  H   H47       1.0  0.5910592179802663  0.9428967764085028  0.8689635053436078  1.0000
  H   H48       1.0  0.4089392763129709  0.44290012389519257  0.6310348954791183  1.0000
  C   C1        1.0  0.6010671318901188  0.32847033837467876  0.3231751529194541  1.0000
  C   C2        1.0  0.3989299514373101  0.8284718676387969  0.1768248521055895  1.0000
  C   C3        1.0  0.39893649016404  0.6715314766419737  0.6768255951084186  1.0000
  C   C4        1.0  0.6010642713047644  0.1715237867271213  0.8231764386010315  1.0000
  C   C5        1.0  0.7687966099490424  0.3757576902217181  0.21180435355819333  1.0000
  C   C6        1.0  0.2312059213385851  0.8757583815698878  0.28819621582387367  1.0000
  C   C7        1.0  0.2312096966087296  0.6242450048880243  0.7881958536066949  1.0000
  C   C8        1.0  0.7687856140657701  0.1242407931649439  0.7118045354742436  1.0000
  C   C9        1.0  0.609767001753525  0.3880939232212057  0.2547094042639061  1.0000
  C   C10       1.0  0.39023286168087873  0.888094663232003  0.2452906324066718  1.0000
  C   C11       1.0  0.3902366174630528  0.6119078917946795  0.7452902634912777  1.0000
  C   C12       1.0  0.6097613568062242  0.11190275131787791  0.7547090378914023  1.0000
  C   C13       1.0  0.7517477571922769  0.2600432104540218  0.34632080556273354  1.0000
  C   C14       1.0  0.24825324976119137  0.7600428432069037  0.1536802414916494  1.0000
  C   C15       1.0  0.2482558662806724  0.7399586045630075  0.6536804826014804  1.0000
  C   C16       1.0  0.7517423173612343  0.23995369125241692  0.8463215889881186  1.0000
  C   C17       1.0  0.7404482050652919  0.18054801212453953  0.41081346645829353  1.0000
  C   C18       1.0  0.2595553608151562  0.680548441538022  0.08918699657115783  1.0000
  C   C19       1.0  0.2595540726085233  0.8194529227987103  0.5891867417964322  1.0000
  C   C20       1.0  0.7404428922303694  0.3194498531073293  0.9108148331822008  1.0000
  C   C21       1.0  0.9076877261307104  0.2571697331174505  0.3056543800246204  1.0000
  C   C22       1.0  0.0923132762828587  0.7571684360723552  0.19434666546935384  1.0000
  C   C23       1.0  0.09231589450534729  0.7428329619913754  0.694345827867153  1.0000
  C   C24       1.0  0.90768229083956  0.24282809838696548  0.8056551650104071  1.0000
  C   C25       1.0  0.46300886860194623  0.46051755414323725  0.23349367997886367  1.0000
  C   C26       1.0  0.5369924522005931  0.960520185241883  0.2665063956511986  1.0000
  C   C27       1.0  0.536993407652382  0.5394825006870789  0.7665059881392795  1.0000
  C   C28       1.0  0.46300042474582886  0.03947898949302699  0.7334938151471351  1.0000
  C   C29       1.0  0.7798481297978981  0.4213050701794855  0.1357209565343425  1.0000
  C   C30       1.0  0.2201571551059018  0.9213067416138117  0.3642780164420359  1.0000
  C   C31       1.0  0.22016085842383154  0.5786958647449224  0.8642776294941615  1.0000
  C   C32       1.0  0.7798370633846758  0.07869507339884052  0.6357216538572248  1.0000
  C   C33       1.0  0.9157491296309459  0.31497944792468496  0.23850997809641686  1.0000
  C   C34       1.0  0.08425196410254901  0.8149773601957405  0.2614910987851289  1.0000
  C   C35       1.0  0.0842558368049424  0.6850250073704701  0.7614913097050791  1.0000
  C   C36       1.0  0.915739572719893  0.18502093444692494  0.7385101926490877  1.0000
  C   C37       1.0  0.3047975742530937  0.41316595825386326  0.344075464382442  1.0000
  C   C38       1.0  0.6951969555282888  0.9131711820248681  0.15592404721962794  1.0000
  C   C39       1.0  0.6952006731172701  0.5868323363899535  0.6559242048255457  1.0000
  C   C40       1.0  0.3047972657949956  0.08682447234067328  0.8440767033506518  1.0000
  C   C41       1.0  0.2413435299825721  0.2798220276850998  0.053035603906323614  1.0000
  C   C42       1.0  0.7586601898802457  0.7798215460067722  0.446963832751031  1.0000
  C   C43       1.0  0.7586587476912355  0.7201789072381503  0.9469646043484095  1.0000
  C   C44       1.0  0.24134611383856003  0.22017938891710284  0.553035294140692  1.0000
  C   C45       1.0  0.4450136776455195  0.34291615465112807  0.3666481627482199  1.0000
  C   C46       1.0  0.5549847700464812  0.8429212501001262  0.13335130962136796  1.0000
  C   C47       1.0  0.5549872556479515  0.6570839001787192  0.6333515057333656  1.0000
  C   C48       1.0  0.4450094526955937  0.1570744042657992  0.8666499810852532  1.0000
  C   C49       1.0  0.3139795603439097  0.47265489018797524  0.2771408728388636  1.0000
  C   C50       1.0  0.6860204366715479  0.9726584421176767  0.22285920974485407  1.0000
  C   C51       1.0  0.6860213715279927  0.5273416442712815  0.7228582555054218  1.0000
  C   C52       1.0  0.31397378323294595  0.0273372122474811  0.7771410006890848  1.0000
  C   C53       1.0  0.1358265547630779  0.09945145065145061  0.09228019745175693  1.0000
  C   C54       1.0  0.8641728555459878  0.5994501059290086  0.4077207627724918  1.0000
  C   C55       1.0  0.8641716968664356  0.9005503643637314  0.907721092166213  1.0000
  C   C56       1.0  0.13582539040628921  0.4005490688069883  0.5922783662993896  1.0000
  C   C57       1.0  0.3128015417682306  0.1298948210799935  0.13195180610903637  1.0000
  C   C58       1.0  0.6871992610109672  0.6298932985821891  0.3680497104172958  1.0000
  C   C59       1.0  0.6871993957836935  0.8701078740286688  0.8680494827822971  1.0000
  C   C60       1.0  0.31279898778166887  0.3701093965247822  0.6319504989282267  1.0000
  N   N1        1.0  0.3775997650821381  0.23091623796482705  0.09062896168650521  1.0000
  N   N2        1.0  0.6224025402396195  0.7309156094455103  0.4093726093262192  1.0000
  N   N3        1.0  0.6224011724683933  0.7690846969587283  0.9093723272043522  1.0000
  N   N4        1.0  0.3776010789762623  0.26908532547782466  0.5906270584287299  1.0000
  N   N5        1.0  0.0930376307059788  0.21075319570731918  0.0566579073082352  1.0000
  N   N6        1.0  0.9069632983852713  0.7107528108712345  0.443343112984124  1.0000
  N   N7        1.0  0.9069619653038786  0.7892494994012653  0.9433439220828819  1.0000
  N   N8        1.0  0.0930389778683676  0.28924636386652486  0.5566565551337845  1.0000
  O   O1        1.0  0.25001337170553484  0.3765943433144159  0.018629815213785202  1.0000
  O   O2        1.0  0.7499891594840448  0.8765939043296883  0.4813702144858924  1.0000
  O   O3        1.0  0.749988907388456  0.6234083517943247  0.9813709331777647  1.0000
  O   O4        1.0  0.2500144611513164  0.12340791068658058  0.5186299934056393  1.0000
  O   O5        1.0  0.8726854742670512  0.17609570003926925  0.4542149339056892  1.0000
  O   O6        1.0  0.1273180845793718  0.6760950970678935  0.04578552670609781  1.0000
  O   O7        1.0  0.1273168034067567  0.8239052348839808  0.5457852743490366  1.0000
  O   O8        1.0  0.8726815085908228  0.3239049577622595  0.9542152224116124  1.0000
  O   O9        1.0  0.5978049549110624  0.1191201454797195  0.41419711945437854  1.0000
  O   O10       1.0  0.4021985153521968  0.6191206681798606  0.08580385035917713  1.0000
  O   O11       1.0  0.4021973227627527  0.8808807894435304  0.5858030888003471  1.0000
  O   O12       1.0  0.5978024193600645  0.3808793866503705  0.9141963582587496  1.0000
  O   O13       1.0  0.6454269260089448  0.4010655065526407  0.09477715537936153  1.0000
  O   O14       1.0  0.3545783255049527  0.9010682083974686  0.40522126647187673  1.0000
  O   O15       1.0  0.3545834051722565  0.5989336681871221  0.9052214302852237  1.0000
  O   O16       1.0  0.6454172331095975  0.09893448670743513  0.5947773231914939  1.0000
  O   O17       1.0  0.9247156062670641  0.47185322266765434  0.11710970417301071  1.0000
  O   O18       1.0  0.07529244582822509  0.9718565810067333  0.38288983565841056  1.0000
  O   O19       1.0  0.0752960692951774  0.5281477122580611  0.882889421264949  1.0000
  O   O20       1.0  0.9247031156239061  0.028146114098937892  0.6171098342776562  1.0000
