data_image0
_chemical_formula_structural       Zn4H52C52N8O20
_chemical_formula_sum              "Zn4 H52 C52 N8 O20"
_cell_length_a       9.530851815900732
_cell_length_b       9.837185254
_cell_length_c       13.9784
_cell_angle_alpha    90.0
_cell_angle_beta     95.38967205808997
_cell_angle_gamma    90.0

_space_group_name_H-M_alt    "P 1"
_space_group_IT_number       1

loop_
  _space_group_symop_operation_xyz
  'x, y, z'

loop_
  _atom_site_type_symbol
  _atom_site_label
  _atom_site_symmetry_multiplicity
  _atom_site_fract_x
  _atom_site_fract_y
  _atom_site_fract_z
  _atom_site_occupancy
  Zn  Zn1       1.0  0.9417291933394764  0.3469783186823747  0.7990010796600302  1.0000
  Zn  Zn2       1.0  0.558269476343412  0.8469780516344442  0.7009990497589912  1.0000
  Zn  Zn3       1.0  0.05827027107694249  0.6530221637727038  0.2009990291173551  1.0000
  Zn  Zn4       1.0  0.4417289341895341  0.15302141426968768  0.29900099152428083  1.0000
  H   H1        1.0  0.07970626090720148  0.363873395445566  0.9718340295242599  1.0000
  H   H2        1.0  0.4202950521262139  0.8638731283976283  0.5281654107161415  1.0000
  H   H3        1.0  0.9202953112761634  0.6361260704585661  0.028165498851890913  1.0000
  H   H4        1.0  0.5797054661736779  0.1361263375065036  0.47183405016589575  1.0000
  H   H5        1.0  0.0855226437918262  0.2023282014731507  0.9406571390302647  1.0000
  H   H6        1.0  0.4144765614746504  0.7023279344252131  0.5593428816113786  1.0000
  H   H7        1.0  0.9144778745080657  0.7976712644309814  0.05934303724123421  1.0000
  H   H8        1.0  0.5855229029417686  0.2976715314789189  0.4406572271660068  1.0000
  H   H9        1.0  0.2145316813086282  0.11326613977783498  0.5757771619644956  1.0000
  H   H10       1.0  0.2854675239578484  0.6132658727298974  0.9242228586771476  1.0000
  H   H11       1.0  0.7854667292243178  0.8867333261262971  0.4242228793187834  1.0000
  H   H12       1.0  0.7145329943420434  0.38673460972518103  0.07577731759435119  1.0000
  H   H13       1.0  0.9503067509220031  0.6461634945235346  0.8140112967273723  1.0000
  H   H14       1.0  0.5496929726443653  0.14616376157146496  0.685988184796301  1.0000
  H   H15       1.0  0.0496927134944158  0.3538359713805974  0.1859880966605516  1.0000
  H   H16       1.0  0.45030859953899943  0.8538357043326669  0.31401134357984267  1.0000
  H   H17       1.0  0.028072294056471495  0.8431243069888835  0.7167265878233453  1.0000
  H   H18       1.0  0.47192796509347085  0.3431235574858674  0.7832735003124043  1.0000
  H   H19       1.0  0.9719271703599474  0.15687515891524836  0.2832735209540402  1.0000
  H   H20       1.0  0.5280736070898939  0.6568759084182643  0.21672674345320087  1.0000
  H   H21       1.0  0.1520258525557878  0.7949916361308736  0.5706645172392157  1.0000
  H   H22       1.0  0.3479744065941617  0.2949919031788113  0.9293355708965265  1.0000
  H   H23       1.0  0.8479736118606311  0.20500884632420477  0.42933487614870813  1.0000
  H   H24       1.0  0.6520271655892032  0.705008579276267  0.0706639574796171  1.0000
  H   H25       1.0  0.1098494359871012  0.36811342945153297  0.6300635002420307  1.0000
  H   H26       1.0  0.3901508231628412  0.8681141789545492  0.8699373032831731  1.0000
  H   H27       1.0  0.8901510823127906  0.6318860364525988  0.3699366760294609  1.0000
  H   H28       1.0  0.6098496951370436  0.1318852869495828  0.1300635883777801  1.0000
  H   H29       1.0  0.1742132613019294  0.4415348382540499  0.4712141263813621  1.0000
  H   H30       1.0  0.3257880517314931  0.9415366043080127  0.0287874600274094  1.0000
  H   H31       1.0  0.8257862031144895  0.5584656442010285  0.5287859823960233  1.0000
  H   H32       1.0  0.6742145743353446  0.05846489469801949  0.9712142820112177  1.0000
  H   H33       1.0  0.1706247880781291  0.6175892639136435  0.4412419922189131  1.0000
  H   H34       1.0  0.3293754710718133  0.11759054751252758  0.0587573805273749  1.0000
  H   H35       1.0  0.8293746763382899  0.3824112185414349  0.5587574011690108  1.0000
  H   H36       1.0  0.6706261011115444  0.8824109514935045  0.9412428632382301  1.0000
  H   H37       1.0  0.38907480813744394  0.3435067971934345  0.5437266302216557  1.0000
  H   H38       1.0  0.1109265048959784  0.8435075466964433  0.9562735254082  1.0000
  H   H39       1.0  0.610924656278975  0.6564936852616512  0.45627276316626825  1.0000
  H   H40       1.0  0.8890750672873863  0.1564929357586351  0.0437274337468665  1.0000
  H   H41       1.0  0.3831214204013946  0.45621993325531207  0.6442696391729116  1.0000
  H   H42       1.0  0.11687883874854782  0.956220682758321  0.8557304489628379  1.0000
  H   H43       1.0  0.6168780440150243  0.54377953264882  0.35572975421501957  1.0000
  H   H44       1.0  0.8831227334348172  0.0437797996967575  0.14426979480276714  1.0000
  H   H45       1.0  0.3731179584806057  0.6319348308981245  0.3720399620147461  1.0000
  H   H46       1.0  0.1268823006693367  0.1319350979460552  0.12796012612100333  1.0000
  H   H47       1.0  0.6268815059358133  0.3680646350060073  0.6279594313731778  1.0000
  H   H48       1.0  0.8731192715140281  0.8680653845090233  0.8720401176446021  1.0000
  H   H49       1.0  0.38355245874164007  0.4518416483203466  0.3779291334644627  1.0000
  H   H50       1.0  0.1164467465248293  0.951841381272416  0.1220716025666349  1.0000
  H   H51       1.0  0.6164459517913058  0.5481588341347319  0.6220709078188165  1.0000
  H   H52       1.0  0.8835548256585355  0.0481591011826623  0.8779293565884316  1.0000
  C   C1        1.0  0.0030868246908966  0.1427684814036567  0.6817270498321264  1.0000
  C   C2        1.0  0.49691343445904584  0.6427682143557191  0.818273038303616  1.0000
  C   C3        1.0  0.9969115858420494  0.8572320010514287  0.3182722760616842  1.0000
  C   C4        1.0  0.5030881377243119  0.3572312515484128  0.18172720546198923  1.0000
  C   C5        1.0  0.9981541144561065  0.0641748613754416  0.5895738798898051  1.0000
  C   C6        1.0  0.501845609110262  0.5641756108784576  0.9104263170233295  1.0000
  C   C7        1.0  0.0018442960768397  0.9358246045286904  0.41042616139347393  1.0000
  C   C8        1.0  0.4981559630731027  0.4358248715766209  0.08957392674227553  1.0000
  C   C9        1.0  0.8760174510633475  0.9995359186716398  0.5476807141429489  1.0000
  C   C10       1.0  0.6239822725030137  0.4995361857195774  0.9523194827701787  1.0000
  C   C11       1.0  0.12398095946959839  0.00046354723249209987  0.4523193271403231  1.0000
  C   C12       1.0  0.3760182457968781  0.5004642967355082  0.0476814088907744  1.0000
  C   C13       1.0  0.12070022021976709  0.06309833392104029  0.541705309087277  1.0000
  C   C14       1.0  0.3792989850467094  0.5630990834240492  0.9582954269438205  1.0000
  C   C15       1.0  0.8792981903131788  0.9369001154321451  0.4582954475854564  1.0000
  C   C16       1.0  0.6207015332531824  0.4369013990310293  0.04170546471713271  1.0000
  C   C17       1.0  0.7433282524606426  0.9864569741689235  0.5970836293727686  1.0000
  C   C18       1.0  0.7566704172222528  0.4864572412168613  0.9029157846567915  1.0000
  C   C19       1.0  0.2566701580723034  0.0135424917352083  0.40291641191050337  1.0000
  C   C20       1.0  0.24332904719416598  0.5135432412382244  0.097084324120587  1.0000
  C   C21       1.0  0.005972357638548  0.631468234012786  0.7501714492323828  1.0000
  C   C22       1.0  0.49402684762792143  0.13146850106072347  0.7498285714092602  1.0000
  C   C23       1.0  0.994027106777871  0.368531231891346  0.24982865954500263  1.0000
  C   C24       1.0  0.5059736706719704  0.8685309648434085  0.2501716048622384  1.0000
  C   C25       1.0  0.0498539576657109  0.7392561807294411  0.6960832684491365  1.0000
  C   C26       1.0  0.45014630148423856  0.2392574643283254  0.8039161042971517  1.0000
  C   C27       1.0  0.9501455067507081  0.26074328517469064  0.30391540954933305  1.0000
  C   C28       1.0  0.5498552706991262  0.7607430181267603  0.19608342407899224  1.0000
  C   C29       1.0  0.11712228583068908  0.7119872015373545  0.6142262667376742  1.0000
  C   C30       1.0  0.3828779733192532  0.211987468585292  0.8857738213980753  1.0000
  C   C31       1.0  0.8828782324692027  0.2880122643667775  0.385774624923279  1.0000
  C   C32       1.0  0.6171225449806386  0.78801199731884  0.114225639483962  1.0000
  C   C33       1.0  0.13893661982757516  0.577129519614516  0.5876301378323208  1.0000
  C   C34       1.0  0.3610625854389014  0.07713080321339308  0.9123691674198611  1.0000
  C   C35       1.0  0.8610628445888436  0.42286994628961583  0.41236854016614904  1.0000
  C   C36       1.0  0.6389379328609905  0.9228696792416855  0.0876302934621762  1.0000
  C   C37       1.0  0.0942466911770197  0.47507898645089597  0.6467744313633121  1.0000
  C   C38       1.0  0.4057525140894498  0.9750797359539047  0.8532255892783313  1.0000
  C   C39       1.0  0.9057517193559264  0.524920479453236  0.35322489453050576  1.0000
  C   C40       1.0  0.594248004210442  0.0249207465011736  0.1467745869931676  1.0000
  C   C41       1.0  0.2067234586610169  0.5441058455032746  0.4975643412772186  1.0000
  C   C42       1.0  0.2932768004889255  0.0441071291021586  0.002436462247992201  1.0000
  C   C43       1.0  0.793276005755402  0.4558936204008575  0.5024357675001667  1.0000
  C   C44       1.0  0.7067237178109664  0.9558933533529268  0.9975637140235067  1.0000
  C   C45       1.0  0.42249872246717496  0.4441595728029384  0.5734519080384359  1.0000
  C   C46       1.0  0.0775025905662474  0.9441603223059545  0.9265475322019585  1.0000
  C   C47       1.0  0.577500741949244  0.5558398931011936  0.4265474853494879  1.0000
  C   C48       1.0  0.9224979277336445  0.05584016014913119  0.07345264406953331  1.0000
  C   C49       1.0  0.4177425463558677  0.5467681924372556  0.4158131343954778  1.0000
  C   C50       1.0  0.0822566589106088  0.046766426383293  0.0841847400777809  1.0000
  C   C51       1.0  0.5822569180605512  0.45323229001782284  0.5841855436029846  1.0000
  C   C52       1.0  0.917743859389283  0.9532330395208389  0.9158140054147952  1.0000
  N   N1        1.0  0.028588696957989195  0.501094558323544  0.7260811845753568  1.0000
  N   N2        1.0  0.4714115621919531  0.0010948253714744  0.7739181881709385  1.0000
  N   N3        1.0  0.9714118213419027  0.498904907580588  0.2739182763066808  1.0000
  N   N4        1.0  0.5285889561079387  0.9989046405326574  0.22608198810056027  1.0000
  N   N5        1.0  0.3615758266900002  0.5532954660772305  0.510529147450427  1.0000
  N   N6        1.0  0.1384233785764764  0.053296749676114495  0.989470873191209  1.0000
  N   N7        1.0  0.6384225838429458  0.4467039998269016  0.4894701784433907  1.0000
  N   N8        1.0  0.8615781936068885  0.9467047493299177  0.010530085963857507  1.0000
  O   O1        1.0  0.8893069216513325  0.20982933092173536  0.6963863618879529  1.0000
  O   O2        1.0  0.6106938557985018  0.709829063873805  0.8036139025192881  1.0000
  O   O3        1.0  0.11069254276508639  0.7901711515333432  0.3036137468894324  1.0000
  O   O4        1.0  0.3893077163848631  0.29017040203032707  0.19638634124631693  1.0000
  O   O5        1.0  0.1153233067431643  0.14757066808411418  0.7356371230834143  1.0000
  O   O6        1.0  0.3846769524067781  0.6475704010361837  0.7643629650523281  1.0000
  O   O7        1.0  0.8846751037897816  0.8524287978200177  0.26436291819985774  1.0000
  O   O8        1.0  0.6153235658931138  0.3524290648679482  0.23563721121916362  1.0000
  O   O9        1.0  0.7509657459857095  0.9062460215817366  0.6699594414992305  1.0000
  O   O10       1.0  0.7490329236971789  0.4062462886296672  0.830040687919791  1.0000
  O   O11       1.0  0.2490326645472365  0.09375446087334889  0.3300405997840486  1.0000
  O   O12       1.0  0.2509665407192401  0.5937552103763578  0.16995942085759455  1.0000
  O   O13       1.0  0.6316703524347673  0.0442280986650232  0.563341669736694  1.0000
  O   O14       1.0  0.868329371131601  0.5442278316170855  0.936657096397525  1.0000
  O   O15       1.0  0.3683280580981858  0.9557713672391086  0.4366576561571237  1.0000
  O   O16       1.0  0.1316722010517637  0.45577265083799284  0.0633424319786187  1.0000
  O   O17       1.0  0.0452347864058282  0.2958132763451573  0.9213246992471086  1.0000
  O   O18       1.0  0.4547665266275942  0.7958130092972197  0.578674740993293  1.0000
  O   O19       1.0  0.9547657318940637  0.704187206109921  0.07867547702438321  1.0000
  O   O20       1.0  0.5452339916722977  0.2041864566069123  0.4213247198887444  1.0000
