data_image0
_chemical_formula_structural       K8H8C24N8O16
_chemical_formula_sum              "K8 H8 C24 N8 O16"
_cell_length_a       6.362516477004816
_cell_length_b       6.798227506008472
_cell_length_c       18.29339431801442
_cell_angle_alpha    90.00012915329694
_cell_angle_beta     90.00006241147454
_cell_angle_gamma    90.00012679828203

_space_group_name_H-M_alt    "P 1"
_space_group_IT_number       1

loop_
  _space_group_symop_operation_xyz
  'x, y, z'

loop_
  _atom_site_type_symbol
  _atom_site_label
  _atom_site_symmetry_multiplicity
  _atom_site_fract_x
  _atom_site_fract_y
  _atom_site_fract_z
  _atom_site_occupancy
  K   K1        1.0  0.24843206219702543  0.49307870129064213  0.9398045177465875  1.0000
  K   K2        1.0  0.7484335277670126  0.006921877828744999  0.0601950969585943  1.0000
  K   K3        1.0  0.2515581816931061  0.9930814100004924  0.5601939298514438  1.0000
  K   K4        1.0  0.7515639803636347  0.5069239553537486  0.4398050101130764  1.0000
  K   K5        1.0  0.7515633855193541  0.5069227999811262  0.060196399524173196  1.0000
  K   K6        1.0  0.2515650633580151  0.9930810944112732  0.9398036337317422  1.0000
  K   K7        1.0  0.748430979207029  0.0069259751464301  0.4398053474843521  1.0000
  K   K8        1.0  0.2484393258760207  0.4930790168894745  0.5601931739327455  1.0000
  H   H1        1.0  0.8959668017963694  0.8036288582597566  0.7500001913225771  1.0000
  H   H2        1.0  0.39596718599276665  0.6963709214889561  0.2500004432488723  1.0000
  H   H3        1.0  0.6040329768365069  0.30362910881435573  0.7499999273767628  1.0000
  H   H4        1.0  0.10403178932774182  0.1963711720419283  0.25000017930275215  1.0000
  H   H5        1.0  0.15169193895596322  0.6606834765848647  0.7499999907686642  1.0000
  H   H6        1.0  0.6516963592049762  0.8393143276336448  0.2499994580278296  1.0000
  H   H7        1.0  0.34830694703116893  0.1606842316979282  0.7499998193069644  1.0000
  H   H8        1.0  0.8483050804621256  0.3393165537135374  0.2499998332109641  1.0000
  C   C1        1.0  0.619884251464555  0.746928698618653  0.8154155314294158  1.0000
  C   C2        1.0  0.11987513486079142  0.7530719818324839  0.1845849986139356  1.0000
  C   C3        1.0  0.8801138210229952  0.24692912123583707  0.684584539940488  1.0000
  C   C4        1.0  0.380123974901622  0.2530717298880703  0.31541567126744496  1.0000
  C   C5        1.0  0.3801237698905382  0.2530713316927802  0.1845848391977043  1.0000
  C   C6        1.0  0.8801265996736447  0.24692804847244795  0.8154153720119905  1.0000
  C   C7        1.0  0.11987376816585991  0.7530723800244914  0.3154152840379679  1.0000
  C   C8        1.0  0.619884046455212  0.7469297713950167  0.6845846993602862  1.0000
  C   C9        1.0  0.7292937171695755  0.7708554375385431  0.7500001460923753  1.0000
  C   C10       1.0  0.22929103566524128  0.7291454689088112  0.2500004253754326  1.0000
  C   C11       1.0  0.7707091271666257  0.2708560323678242  0.7500004918962233  1.0000
  C   C12       1.0  0.27071116077518553  0.2291445927696358  0.2500002245341476  1.0000
  C   C13       1.0  0.7335438060382417  0.7540514851625916  0.889138342217926  1.0000
  C   C14       1.0  0.23354544343300893  0.7459464881246305  0.11086223085858649  1.0000
  C   C15       1.0  0.7664574267483671  0.2540526952212332  0.6108611884530859  1.0000
  C   C16       1.0  0.26645679284489887  0.2459464501564241  0.38913843307562246  1.0000
  C   C17       1.0  0.26645478508412174  0.2459470741674323  0.11086202840679249  1.0000
  C   C18       1.0  0.7664578628065896  0.2540535421819285  0.8891381397676384  1.0000
  C   C19       1.0  0.23354273608004664  0.7459473350804089  0.38913863552713923  1.0000
  C   C20       1.0  0.7335433699835149  0.7540535801452252  0.6108613909046026  1.0000
  C   C21       1.0  0.31984871219859196  0.6925640190407235  0.7500000359070782  1.0000
  C   C22       1.0  0.8198483417456898  0.8074370744522809  0.2500000232005561  1.0000
  C   C23       1.0  0.18015182108187133  0.19256295584769836  0.7499992541342592  1.0000
  C   C24       1.0  0.6801514506324294  0.30743748223424927  0.2500003347191608  1.0000
  N   N1        1.0  0.41215036332946653  0.708950937872565  0.8154531947873096  1.0000
  N   N2        1.0  0.912148177188186  0.791050346271284  0.18454689926607407  1.0000
  N   N3        1.0  0.08784863710320681  0.208950756575554  0.6845472022235342  1.0000
  N   N4        1.0  0.5878515763334065  0.2910494908555989  0.3154528983292479  1.0000
  N   N5        1.0  0.5878513712067103  0.2910505634040348  0.184547175839235  1.0000
  N   N6        1.0  0.0878535573453902  0.2089496840319924  0.8154529247144422  1.0000
  N   N7        1.0  0.9121452389062982  0.791050744691262  0.31545262175610833  1.0000
  N   N8        1.0  0.4121501582001769  0.7089505394476706  0.6845469256512756  1.0000
  O   O1        1.0  0.6189885973435238  0.757880479563504  0.9461364921732734  1.0000
  O   O2        1.0  0.1189916187253743  0.7421113732185275  0.0538634908841829  1.0000
  O   O3        1.0  0.8810110728174935  0.2578815792826816  0.5538635883389701  1.0000
  O   O4        1.0  0.3810090367590959  0.24211633173862174  0.44613662320513464  1.0000
  O   O5        1.0  0.38100842206495866  0.2421107249065955  0.05386387844807669  1.0000
  O   O6        1.0  0.881011687505506  0.2578813022297268  0.9461368797389723  1.0000
  O   O7        1.0  0.11898594659796659  0.7421155090740613  0.44613678228483883  1.0000
  O   O8        1.0  0.6189879826607411  0.7578851695314411  0.5538632007751048  1.0000
  O   O9        1.0  0.9318678441788252  0.752439496685824  0.8863914859135135  1.0000
  O   O10       1.0  0.43187106571183875  0.7475603572208414  0.1136091622508744  1.0000
  O   O11       1.0  0.5681318130817559  0.2524417847891698  0.6136080434120714  1.0000
  O   O12       1.0  0.06813117439131838  0.24755989288073724  0.3863909563848934  1.0000
  O   O13       1.0  0.0681291752392355  0.24755906264424246  0.11360943135630919  1.0000
  O   O14       1.0  0.568133812235523  0.2524411440606612  0.886391755021677  1.0000
  O   O15       1.0  0.431868349746658  0.7475582455124793  0.3863917805681467  1.0000
  O   O16       1.0  0.931867416732821  0.7524416083892832  0.6136083209502345  1.0000
