data_image0
_chemical_formula_structural       Hg4H20C22S4N4Cl8
_chemical_formula_sum              "Hg4 H20 C22 S4 N4 Cl8"
_cell_length_a       7.7463054151849216
_cell_length_b       9.104391582424308
_cell_length_c       14.168502128769378
_cell_angle_alpha    85.62087158917305
_cell_angle_beta     79.6055837162954
_cell_angle_gamma    64.79887825045236

_space_group_name_H-M_alt    "P 1"
_space_group_IT_number       1

loop_
  _space_group_symop_operation_xyz
  'x, y, z'

loop_
  _atom_site_type_symbol
  _atom_site_label
  _atom_site_symmetry_multiplicity
  _atom_site_fract_x
  _atom_site_fract_y
  _atom_site_fract_z
  _atom_site_occupancy
  Hg  Hg1       1.0  0.03233916061469695  0.9308499589097393  0.8762189629239715  1.0000
  Hg  Hg2       1.0  0.9631175037828043  0.068993607810576  0.3762053225202919  1.0000
  Hg  Hg3       1.0  0.9676684257908191  0.06914449686981071  0.12377917264755212  1.0000
  Hg  Hg4       1.0  0.0368779703610755  0.931009347681403  0.6237950250854496  1.0000
  H   H1        1.0  0.44767342506954577  0.33589891329136634  0.7455071141310513  1.0000
  H   H2        1.0  0.7832474568492246  0.664032875072337  0.24568798356065  1.0000
  H   H3        1.0  0.5523252453427503  0.6641028263592901  0.2544894411594639  1.0000
  H   H4        1.0  0.21674935164794096  0.3359700809206458  0.7543143457659768  1.0000
  H   H5        1.0  0.6175524244552761  0.3463250784934003  0.8608639384337522  1.0000
  H   H6        1.0  0.9636089029779529  0.6534000219011843  0.3608648169417846  1.0000
  H   H7        1.0  0.3824572233528798  0.6536705922010596  0.139138160769285  1.0000
  H   H8        1.0  0.03637555376673874  0.34660657715055976  0.6391357602183376  1.0000
  H   H9        1.0  0.8647494418131242  0.4389802841204898  0.8842944246711397  1.0000
  H   H10       1.0  0.3034505237831409  0.5606427125159215  0.38448897600816423  1.0000
  H   H11       1.0  0.1352601369945886  0.5610129601119525  0.1157106277925237  1.0000
  H   H12       1.0  0.6965358383723698  0.4393626717919047  0.6155100574252614  1.0000
  H   H13       1.0  0.7655505565372849  0.739431302493365  0.9072831189765723  1.0000
  H   H14       1.0  0.5047078803319989  0.2602190761146872  0.4075701206909272  1.0000
  H   H15       1.0  0.2344596913255258  0.26056315402178143  0.09271827498515961  1.0000
  H   H16       1.0  0.4952811977826882  0.7397887348579603  0.5924278077689351  1.0000
  H   H17       1.0  0.4204772176988598  0.9316375255812516  0.9022539540328864  1.0000
  H   H18       1.0  0.35195883422395013  0.0681101302608411  0.4023748985191702  1.0000
  H   H19       1.0  0.579536917235309  0.06835692817448089  0.0977421042663948  1.0000
  H   H20       1.0  0.6480366326706459  0.9318928249647414  0.5976247440350022  1.0000
  C   C1        1.0  0.2927587334037297  0.41480850040412776  0.7499569383859637  1.0000
  C   C2        1.0  0.7072411878628416  0.5851908127526925  0.2500431417829247  1.0000
  C   C3        1.0  0.3889557920799333  0.5898875987595461  0.8670200205213447  1.0000
  C   C4        1.0  0.9786280319937645  0.4098982284028311  0.3670097323963262  1.0000
  C   C5        1.0  0.6110539247286724  0.41011049839693914  0.1329791254210662  1.0000
  C   C6        1.0  0.021360773876047158  0.5901023007861284  0.6329907103813  1.0000
  C   C7        1.0  0.5791813204203108  0.47545772986230617  0.8681414519459381  1.0000
  C   C8        1.0  0.0543791982608326  0.5242756069719617  0.3681801182410354  1.0000
  C   C9        1.0  0.42083024729722507  0.5245367266210365  0.13186051363354068  1.0000
  C   C10       1.0  0.9456123380667234  0.4757273494146261  0.6318206296661657  1.0000
  C   C11       1.0  0.7174014676376999  0.5285196617496623  0.8811882031945686  1.0000
  C   C12       1.0  0.2456789489742305  0.47114691679610843  0.38132435839755635  1.0000
  C   C13       1.0  0.2826062602610761  0.47147722315592233  0.11881402963201991  1.0000
  C   C14       1.0  0.7543146052602692  0.528857252906988  0.6186761228317438  1.0000
  C   C15       1.0  0.6632602237422917  0.693328720504276  0.8945966916058837  1.0000
  C   C16       1.0  0.3563384516933822  0.30633739780357416  0.3947673088945436  1.0000
  C   C17       1.0  0.33674940956730376  0.3066669496573907  0.10540399749401529  1.0000
  C   C18       1.0  0.6436507534160042  0.6936728417623071  0.6052333067172527  1.0000
  C   C19       1.0  0.4722253389989817  0.8011893099506224  0.892539038758656  1.0000
  C   C20       1.0  0.2732435261200976  0.1985354105318606  0.3926415320021944  1.0000
  C   C21       1.0  0.5277843633110636  0.1988087866730623  0.10745869708061659  1.0000
  C   C22       1.0  0.7267488135065318  0.8014711869970698  0.6073589496065708  1.0000
  S   S1        1.0  0.2000687625238128  0.5337641071284976  0.859826667490495  1.0000
  S   S2        1.0  0.7335855886658179  0.4660543755257861  0.35978284053336307  1.0000
  S   S3        1.0  0.7999409760326374  0.46623399082719885  0.1401745936066163  1.0000
  S   S4        1.0  0.2664084603764891  0.5339461522039598  0.6402163634574052  1.0000
  N   N1        1.0  0.33961178094301664  0.749964647704594  0.8779715703079702  1.0000
  N   N2        1.0  0.08938571786575268  0.2498147247705161  0.37799244358745904  1.0000
  N   N3        1.0  0.6603991432241828  0.2500310213596606  0.12202687020339908  1.0000
  N   N4        1.0  0.9106019713937596  0.7501906597719029  0.6220078665152826  1.0000
  Cl  Cl1       1.0  0.7307504329640224  0.0460023755286088  0.8151479076912552  1.0000
  Cl  Cl2       1.0  0.7768372098902602  0.9537479945535877  0.3151372000374765  1.0000
  Cl  Cl3       1.0  0.2692474776448747  0.9539957245781069  0.18485314420711774  1.0000
  Cl  Cl4       1.0  0.22316280212459813  0.04625374586446179  0.6848620420254933  1.0000
  Cl  Cl5       1.0  0.0874114687766934  0.16995764354612666  0.945703292658834  1.0000
  Cl  Cl6       1.0  0.2573914249598132  0.8297907068204963  0.4456491149429667  1.0000
  Cl  Cl7       1.0  0.9126012918008752  0.8300343843121851  0.05429655738646486  1.0000
  Cl  Cl8       1.0  0.7425967953539113  0.17021103708058402  0.5543534431791031  1.0000
