data_image0
_chemical_formula_structural       Co2H32C48N12O12
_chemical_formula_sum              "Co2 H32 C48 N12 O12"
_cell_length_a       6.069289303
_cell_length_b       10.594477219721519
_cell_length_c       17.4652
_cell_angle_alpha    90.0
_cell_angle_beta     90.0
_cell_angle_gamma    95.75247447081182

_space_group_name_H-M_alt    "P 1"
_space_group_IT_number       1

loop_
  _space_group_symop_operation_xyz
  'x, y, z'

loop_
  _atom_site_type_symbol
  _atom_site_label
  _atom_site_symmetry_multiplicity
  _atom_site_fract_x
  _atom_site_fract_y
  _atom_site_fract_z
  _atom_site_occupancy
  Co  Co1       1.0  2.8819389327945055e-06  0.5000092281417636  0.9999971371641863  1.0000
  Co  Co2       1.0  0.5000046411874735  0.9999975856467955  0.4999988548656731  1.0000
  H   H1        1.0  0.5677014476503787  0.3523551652636883  0.9777792410049672  1.0000
  H   H2        1.0  0.9322948560938472  0.1476578575393006  0.4777729427661868  1.0000
  H   H3        1.0  0.4322889505568952  0.6476689830116769  0.02222820236814021  1.0000
  H   H4        1.0  0.06771972226755447  0.8523349847809669  0.5222259120994863  1.0000
  H   H5        1.0  0.4963615041665719  0.2724671111849801  0.424310056569638  1.0000
  H   H6        1.0  0.003636320211533889  0.2275364249649456  0.924311774271125  1.0000
  H   H7        1.0  0.5036413747388125  0.7275247824699775  0.5756922336990158  1.0000
  H   H8        1.0  0.9963525841717811  0.7724791853226662  0.0756916611318488  1.0000
  H   H9        1.0  0.203777042617169  0.1217839599850308  0.6237838673476404  1.0000
  H   H10       1.0  0.2962417031314146  0.37821673016897966  0.1237810045118266  1.0000
  H   H11       1.0  0.7962169341696069  0.8782041390087088  0.37622185832398  1.0000
  H   H12       1.0  0.7038055325515913  0.6218026747798575  0.8762167052195196  1.0000
  H   H13       1.0  0.3303924210952403  0.4746580451710686  0.44326947300918124  1.0000
  H   H14       1.0  0.16958744523023483  0.0253464396441672  0.9432717632778349  1.0000
  H   H15       1.0  0.6696012358956835  0.5253376431451144  0.5567282367221653  1.0000
  H   H16       1.0  0.8303752507385767  0.9746606326556915  0.0567282367221651  1.0000
  H   H17       1.0  0.10675652804602721  0.5049897209979619  0.5621263999267114  1.0000
  H   H18       1.0  0.39322592419889457  0.9949962221538656  0.062124109658064704  1.0000
  H   H19       1.0  0.8932240894803131  0.49498794267741186  0.4378724549389617  1.0000
  H   H20       1.0  0.606752916202737  0.0050089528153734  0.9378741726404486  1.0000
  H   H21       1.0  0.556444042445051  0.28021580940392  0.7342515402056693  1.0000
  H   H22       1.0  0.9435469742551561  0.21978582941540034  0.2342435242653949  1.0000
  H   H23       1.0  0.4435476349456168  0.7197779815816503  0.2657553306002782  1.0000
  H   H24       1.0  0.05645741063921859  0.7802240888803738  0.7657530403316315  1.0000
  H   H25       1.0  0.3751406887106797  0.24995623214027773  0.8619116872409123  1.0000
  H   H26       1.0  0.1248431368152936  0.250052047336176  0.3619042438678051  1.0000
  H   H27       1.0  0.624828763796053  0.7500517888248837  0.13809747383368182  1.0000
  H   H28       1.0  0.8751740850681173  0.7499464869759223  0.638094610997868  1.0000
  H   H29       1.0  0.9790467997418021  0.23028470835625822  0.6954143095985188  1.0000
  H   H30       1.0  0.5209498116332442  0.269711238471217  0.19541373703135181  1.0000
  H   H31       1.0  0.020938606887241872  0.7697014933068687  0.3045868355358081  1.0000
  H   H32       1.0  0.4790641271364607  0.7302967824939444  0.8045845452671614  1.0000
  C   C1        1.0  0.9422325276477965  0.4458271578581758  0.8467930513249229  1.0000
  C   C2        1.0  0.5577841873605609  0.0541706862999121  0.34679534159356973  1.0000
  C   C3        1.0  0.057777273775940295  0.5541666331273944  0.1532075212422441  1.0000
  C   C4        1.0  0.4422241445692805  0.9458335400040242  0.6532063761079173  1.0000
  C   C5        1.0  0.16575003382034487  0.5224195486640397  0.8530036873325244  1.0000
  C   C6        1.0  0.33425995468260083  0.9775825217979915  0.3530094130041448  1.0000
  C   C7        1.0  0.8342597797684235  0.4775837289745938  0.1469888692943684  1.0000
  C   C8        1.0  0.6657496929257293  0.0224198071753321  0.6469928772645019  1.0000
  C   C9        1.0  0.8409110468667649  0.3951542005412705  0.7800574857430789  1.0000
  C   C10       1.0  0.6590886938065807  0.104840797620902  0.2800574857430789  1.0000
  C   C11       1.0  0.15907633936252813  0.604833898452469  0.219943086824081  1.0000
  C   C12       1.0  0.3409290260181521  0.8951605826871187  0.719943086824081  1.0000
  C   C13       1.0  0.23480113033127747  0.20223836725138264  0.5850960767698083  1.0000
  C   C14       1.0  0.2652080493769376  0.2977547335801773  0.08509607676980832  1.0000
  C   C15       1.0  0.7651949798711541  0.7977430910852092  0.4149039232301918  1.0000
  C   C16       1.0  0.7348281386067727  0.702258030711512  0.9149016329615449  1.0000
  C   C17       1.0  0.9394964984399791  0.420932282899642  0.7022290039621666  1.0000
  C   C18       1.0  0.5604788474386738  0.0790551259400871  0.20222785882783975  1.0000
  C   C19       1.0  0.06047391345430239  0.5790529700981821  0.297765270366213  1.0000
  C   C20       1.0  0.4395174530742594  0.9209462543679336  0.7977727137393203  1.0000
  C   C21       1.0  0.6392414276281216  0.3603002372009528  0.9206891418363341  1.0000
  C   C22       1.0  0.8607555400378645  0.1397165802632614  0.42068456129904064  1.0000
  C   C23       1.0  0.36074384951557903  0.6397134757560465  0.0793154387009594  1.0000
  C   C24       1.0  0.1392603661670577  0.8602838513794566  0.5793137209994725  1.0000
  C   C25       1.0  0.141112884278833  0.3149132429687569  0.6020102833062353  1.0000
  C   C26       1.0  0.3588849279342413  0.1850808065281129  0.1020085656047485  1.0000
  C   C27       1.0  0.8588784489859266  0.6850691640331448  0.3979897166937648  1.0000
  C   C28       1.0  0.6411280271178585  0.8149310090982738  0.8979891441266048  1.0000
  C   C29       1.0  0.17664527847614414  0.4165959337861764  0.5506624602065813  1.0000
  C   C30       1.0  0.3233447813163721  0.0833914750535456  0.05066016993793451  1.0000
  C   C31       1.0  0.8233509977067258  0.5833864732157252  0.4493381123605787  1.0000
  C   C32       1.0  0.6766385040620477  0.9166108539197779  0.9493392574949056  1.0000
  C   C33       1.0  0.5339467074957724  0.3060631443296202  0.8563909946636771  1.0000
  C   C34       1.0  0.966042175788779  0.1939451351468335  0.3563829787234027  1.0000
  C   C35       1.0  0.4660256961637899  0.6939334926518654  0.1436170212765973  1.0000
  C   C36       1.0  0.0339734106202982  0.806062885818328  0.6436147310079505  1.0000
  C   C37       1.0  0.3934149318234006  0.2857617067824592  0.4741485926299164  1.0000
  C   C38       1.0  0.10657250877716248  0.2142389833715512  0.9741526006000499  1.0000
  C   C39       1.0  0.6065722884254542  0.7142254435459705  0.525849117101437  1.0000
  C   C40       1.0  0.8934271113445719  0.7857813702425888  0.025849117101437  1.0000
  C   C41       1.0  0.635782875250719  0.3226590951917743  0.7853359824107358  1.0000
  C   C42       1.0  0.8642155497441381  0.1773378003010109  0.2853285390376286  1.0000
  C   C43       1.0  0.3642180240544094  0.6773309011325708  0.21467031582804455  1.0000
  C   C44       1.0  0.1357861916282204  0.8226664260029253  0.7146691706937248  1.0000
  C   C45       1.0  0.3030983536572194  0.3996736420587794  0.4857029979616598  1.0000
  C   C46       1.0  0.1968823182403909  0.1003166127768651  0.9857052882303067  1.0000
  C   C47       1.0  0.696879964473027  0.600309713608425  0.5142912763667198  1.0000
  C   C48       1.0  0.8031097032761922  0.8996885621923809  0.0142918489338797  1.0000
  N   N1        1.0  0.8400628313736362  0.4268823116985132  0.915886448480407  1.0000
  N   N2        1.0  0.6599489528816492  0.0731250191126378  0.41588530334608015  1.0000
  N   N3        1.0  0.15993116974319582  0.5731247606013454  0.08411183381810622  1.0000
  N   N4        1.0  0.34007502553969005  0.9268744638647702  0.584113551519593  1.0000
  N   N5        1.0  0.3583370302159707  0.1874771350909228  0.5229925795295786  1.0000
  N   N6        1.0  0.1416795699519184  0.3125207090671722  0.0229897166937647  1.0000
  N   N7        1.0  0.64167507060386  0.8125109639028167  0.4770102833062353  1.0000
  N   N8        1.0  0.8583381620378463  0.6874901578939117  0.9770102833062353  1.0000
  N   N9        1.0  0.020828669033832597  0.3171359657805795  0.669951675331518  1.0000
  N   N10       1.0  0.4791693091596728  0.1828590323815931  0.169951102764351  1.0000
  N   N11       1.0  0.9791646438311761  0.6828483385519348  0.330048324668482  1.0000
  N   N12       1.0  0.520839354731045  0.8171470912529557  0.830048897235649  1.0000
  O   O1        1.0  0.2213619168056766  0.5498653846302517  0.923458649199553  1.0000
  O   O2        1.0  0.2786439586813644  0.9501414291583075  0.4234655200054931  1.0000
  O   O3        1.0  0.778635225774494  0.45015022565735313  0.0765327622930201  1.0000
  O   O4        1.0  0.7213661747032561  0.0498542591578754  0.5765361976959869  1.0000
  O   O5        1.0  0.28196685531989374  0.5544787440130534  0.7959044270892977  1.0000
  O   O6        1.0  0.21803787046909665  0.9455309157714282  0.2959101527609179  1.0000
  O   O7        1.0  0.7180477352065396  0.4455235849602772  0.2040904198062421  1.0000
  O   O8        1.0  0.781968149899612  0.05446951587128981  0.7040921375077291  1.0000
  O   O9        1.0  0.9343603366820407  0.5250264809247653  0.6709863041934838  1.0000
  O   O10       1.0  0.5656258698079953  0.9749708462107307  0.1709851590591569  1.0000
  O   O11       1.0  0.0656418783015837  0.4749616180689671  0.3290136958065162  1.0000
  O   O12       1.0  0.43436483603009896  0.0250362260891208  0.8290136958065162  1.0000
