data_image0
_chemical_formula_structural       AlH6C21NCl6O6
_chemical_formula_sum              "Al1 H6 C21 N1 Cl6 O6"
_cell_length_a       4.153626524114705
_cell_length_b       13.50087569091158
_cell_length_c       13.501017530853696
_cell_angle_alpha    120.00013040886236
_cell_angle_beta     89.99915696037927
_cell_angle_gamma    90.00045126807704

_space_group_name_H-M_alt    "P 1"
_space_group_IT_number       1

loop_
  _space_group_symop_operation_xyz
  'x, y, z'

loop_
  _atom_site_type_symbol
  _atom_site_label
  _atom_site_symmetry_multiplicity
  _atom_site_fract_x
  _atom_site_fract_y
  _atom_site_fract_z
  _atom_site_occupancy
  Al  Al1       1.0  1.1494391600300002e-05  0.49999653553361156  0.49999902034772253  1.0000
  H   H1        1.0  0.2308808678541183  0.028760116297938617  0.9013727518908325  1.0000
  H   H2        1.0  0.7691061835992485  0.028767140943024547  0.6273875857597486  1.0000
  H   H3        1.0  0.7690893171804659  0.09861287449462001  0.9712263373476944  1.0000
  H   H4        1.0  0.23088367051039432  0.3726056687861501  0.9712352178726462  1.0000
  H   H5        1.0  0.7690800773584738  0.37260911357085286  0.9013797983968103  1.0000
  H   H6        1.0  0.23088826085955816  0.09861684493242244  0.6273898428237102  1.0000
  C   C1        1.0  0.5000498168560197  0.41292873601528157  0.32586074215083033  1.0000
  C   C2        1.0  0.4999762206275733  0.4129435133750762  0.5870861583196998  1.0000
  C   C3        1.0  0.4999892368414933  0.6741337593734045  0.5870630808602543  1.0000
  C   C4        1.0  0.35931536711020584  0.8652957530715213  0.7599982541216052  1.0000
  C   C5        1.0  0.3499574311744809  0.9842717639598535  0.8187307860633839  1.0000
  C   C6        1.0  0.5000176197010829  0.04531640870804666  0.7726546726165607  1.0000
  C   C7        1.0  0.6500385915973367  0.984269883763325  0.6655322104326729  1.0000
  C   C8        1.0  0.6406490906216504  0.865296030249219  0.6052880511059727  1.0000
  C   C9        1.0  0.49998697370052975  0.8028244574305105  0.6514117553948325  1.0000
  C   C10       1.0  0.6500796826753827  0.18124950863828096  0.01571516912562032  1.0000
  C   C11       1.0  0.6406882413781148  0.23999015593955164  0.13469809414046816  1.0000
  C   C12       1.0  0.5000111018576447  0.3485750750003191  0.19716897562017274  1.0000
  C   C13       1.0  0.35930962817052864  0.394693893177262  0.13470012649042226  1.0000
  C   C14       1.0  0.3499632072503047  0.33445078586721166  0.015723492124074305  1.0000
  C   C15       1.0  0.500020484042949  0.2273411363595628  0.9546806911435793  1.0000
  C   C16       1.0  0.6500602466489765  0.33445266045185224  0.8187318775306168  1.0000
  C   C17       1.0  0.6406730328528736  0.39471056741601257  0.7600084698325702  1.0000
  C   C18       1.0  0.49997867811930513  0.3485886382691561  0.6514233862492205  1.0000
  C   C19       1.0  0.3593133327323342  0.24000194621286408  0.6052973089738316  1.0000
  C   C20       1.0  0.34992898208979983  0.18125724270356597  0.6655399399920866  1.0000
  C   C21       1.0  0.5000079413591507  0.22734164448148414  0.7726574629050731  1.0000
  N   N1        1.0  0.500017755821645  0.16666259618188664  0.833332273529514  1.0000
  Cl  Cl1       1.0  0.8079726228826798  0.7941006672876796  0.4701126002826044  1.0000
  Cl  Cl2       1.0  0.1919772297164002  0.7941108042511827  0.8239870822112182  1.0000
  Cl  Cl3       1.0  0.8080166107394788  0.1759998630409783  0.20588759309202231  1.0000
  Cl  Cl4       1.0  0.1920149234283528  0.5298737184636196  0.2058820897451171  1.0000
  Cl  Cl5       1.0  0.8079704487865627  0.5298886761052232  0.8239993937831614  1.0000
  Cl  Cl6       1.0  0.19203297042699322  0.1760152737400844  0.4701179259336214  1.0000
  O   O1        1.0  0.7367571966727764  0.6253614756390107  0.6043088961761002  1.0000
  O   O2        1.0  0.736782405094182  0.478935061899321  0.37462551944475564  1.0000
  O   O3        1.0  0.7367585982759338  0.39569857920842105  0.5210715777601536  1.0000
  O   O4        1.0  0.2632500579058927  0.6253680440110898  0.5210491671106043  1.0000
  O   O5        1.0  0.2632341505585245  0.4789590050698749  0.6043282432486167  1.0000
  O   O6        1.0  0.2632674003820413  0.3956821010046241  0.37463393985696314  1.0000
