data_image0
_chemical_formula_structural       Cu2H16C20N16Cl4
_chemical_formula_sum              "Cu2 H16 C20 N16 Cl4"
_cell_length_a       8.03942434688141
_cell_length_b       8.911480946087849
_cell_length_c       9.468343052085418
_cell_angle_alpha    89.99953918953817
_cell_angle_beta     106.63803510018701
_cell_angle_gamma    90.0003431166258

_space_group_name_H-M_alt    "P 1"
_space_group_IT_number       1

loop_
  _space_group_symop_operation_xyz
  'x, y, z'

loop_
  _atom_site_type_symbol
  _atom_site_label
  _atom_site_symmetry_multiplicity
  _atom_site_fract_x
  _atom_site_fract_y
  _atom_site_fract_z
  _atom_site_occupancy
  Cu  Cu1       1.0  0.9999981363974016  0.9999983220507285  0.9999991586956014  1.0000
  Cu  Cu2       1.0  0.4999981085659329  0.5000026282948155  0.9999988245880189  1.0000
  H   H1        1.0  0.22227004440627238  0.4316079944943923  0.49626908772803097  1.0000
  H   H2        1.0  0.27773513002137656  0.9316046935694403  0.5037335024395373  1.0000
  H   H3        1.0  0.7777306883958346  0.5683892054126929  0.5037307138130273  1.0000
  H   H4        1.0  0.7222668866964597  0.06839026203483202  0.49626872932736876  1.0000
  H   H5        1.0  0.3849009614106933  0.6644788892622842  0.4803911629033023  1.0000
  H   H6        1.0  0.11510308163570931  0.164473553095867  0.5196057745652494  1.0000
  H   H7        1.0  0.6151010838779244  0.33551831065602766  0.5196068512610026  1.0000
  H   H8        1.0  0.8849002689905132  0.8355202803853031  0.48039150663202423  1.0000
  H   H9        1.0  0.9497531770251867  0.3716769689525136  0.2814789554283478  1.0000
  H   H10       1.0  0.5502495839607207  0.8716762018599836  0.7185268707721377  1.0000
  H   H11       1.0  0.0502423344041603  0.6283235973716472  0.7185237780135125  1.0000
  H   H12       1.0  0.4497550077498715  0.12832324232672218  0.28147916701858827  1.0000
  H   H13       1.0  0.7516521560347371  0.7232192181395335  0.8874890486296819  1.0000
  H   H14       1.0  0.7483460966452994  0.2232203402329489  0.11251044729771557  1.0000
  H   H15       1.0  0.24834727142977192  0.2767813482046932  0.11251148587840729  1.0000
  H   H16       1.0  0.251650727285444  0.776786958990094  0.8874904987456061  1.0000
  C   C1        1.0  0.1746275570026086  0.5064263582679943  0.4026655235984861  1.0000
  C   C2        1.0  0.32537316923775716  0.0064237418100035  0.5973349566743733  1.0000
  C   C3        1.0  0.8253718847398372  0.49357196378942786  0.5973329021191913  1.0000
  C   C4        1.0  0.6746301385471868  0.993573458087752  0.4026686509050279  1.0000
  C   C5        1.0  0.2643050330028203  0.6408835242223532  0.39474417594805533  1.0000
  C   C6        1.0  0.23569889855991732  0.1408814750388601  0.60525396854959  1.0000
  C   C7        1.0  0.7356957140822047  0.3591136756938056  0.6052535167953293  1.0000
  C   C8        1.0  0.7643057431383796  0.8591168470316788  0.39474468845290994  1.0000
  C   C9        1.0  0.06541694019168179  0.7103639218908313  0.18396912098994989  1.0000
  C   C10       1.0  0.4345820915536507  0.210364511997156  0.8160293971371785  1.0000
  C   C11       1.0  0.9345824872678608  0.28963440015751024  0.8160314135254011  1.0000
  C   C12       1.0  0.5654160519951362  0.7896382986498836  0.18396870714506264  1.0000
  C   C13       1.0  0.027638999222112704  0.4729740859338492  0.2909196123512387  1.0000
  C   C14       1.0  0.4723650456671536  0.9729745698532284  0.7090844975792548  1.0000
  C   C15       1.0  0.97235913003383  0.5270242361123392  0.7090806007431992  1.0000
  C   C16       1.0  0.5276382549812979  0.0270248743358721  0.2909201643917214  1.0000
  C   C17       1.0  0.8466462471306074  0.6958150575781018  0.990966820690623  1.0000
  C   C18       1.0  0.6533518843590117  0.19581767317848883  0.009032852512341113  1.0000
  C   C19       1.0  0.15335318747287371  0.30418438662271535  0.0090326594222603  1.0000
  C   C20       1.0  0.34664494671071117  0.8041885039011516  0.990967039135775  1.0000
  N   N1        1.0  0.21103515878383663  0.7432573898033752  0.2889563705413707  1.0000
  N   N2        1.0  0.2889614362999496  0.24325472287005565  0.7110391831654893  1.0000
  N   N3        1.0  0.7889655811597294  0.25673981010824315  0.7110423766008507  1.0000
  N   N4        1.0  0.7110367143853226  0.7567458434856391  0.28895786672517687  1.0000
  N   N5        1.0  0.9776732577240141  0.5749265230840095  0.18061327541663277  1.0000
  N   N6        1.0  0.5223269426928425  0.0749304564792581  0.8193867682657012  1.0000
  N   N7        1.0  0.022324885814839497  0.4250717989712598  0.8193848288801318  1.0000
  N   N8        1.0  0.4776737829851854  0.9250745984588774  0.18061408764879158  1.0000
  N   N9        1.0  0.8404131151220469  0.565023722564092  0.0575077307967007  1.0000
  N   N10       1.0  0.659589637909086  0.0650284679820956  0.9424930197870863  1.0000
  N   N11       1.0  0.15958631947894733  0.4349745994887826  0.9424917493198136  1.0000
  N   N12       1.0  0.3404097824263701  0.9349777090972895  0.05750856910169231  1.0000
  N   N13       1.0  0.9778918113618928  0.788232765397545  0.06259239241180124  1.0000
  N   N14       1.0  0.5221067288342738  0.28823231926449466  0.9374066829412085  1.0000
  N   N15       1.0  0.022110219646300805  0.2117655566596284  0.9374077305465462  1.0000
  N   N16       1.0  0.4778901165158728  0.7117727356762841  0.06259109991286486  1.0000
  Cl  Cl1       1.0  0.9611576405968663  0.9159088423171864  0.7606624544304593  1.0000
  Cl  Cl2       1.0  0.538838896400897  0.41590886150633105  0.23933093453391052  1.0000
  Cl  Cl3       1.0  0.0388418011480667  0.0840906018881711  0.2393359712835945  1.0000
  Cl  Cl4       1.0  0.46115794894677015  0.5840950712864981  0.7606668483237938  1.0000
