data_image0
_chemical_formula_structural       Mo4H12C16N16O12
_chemical_formula_sum              "Mo4 H12 C16 N16 O12"
_cell_length_a       7.274958166750158
_cell_length_b       8.780178487958766
_cell_length_c       11.57628956239102
_cell_angle_alpha    87.17444388948164
_cell_angle_beta     74.71704127165299
_cell_angle_gamma    71.92226451669157

_space_group_name_H-M_alt    "P 1"
_space_group_IT_number       1

loop_
  _space_group_symop_operation_xyz
  'x, y, z'

loop_
  _atom_site_type_symbol
  _atom_site_label
  _atom_site_symmetry_multiplicity
  _atom_site_fract_x
  _atom_site_fract_y
  _atom_site_fract_z
  _atom_site_occupancy
  Mo  Mo1       1.0  0.4601839442008854  0.3338632924941152  0.9429503840668048  1.0000
  Mo  Mo2       1.0  0.5398146238835295  0.666136509133004  0.05704968205508009  1.0000
  Mo  Mo3       1.0  0.03733300814529634  0.6353305632188508  0.0887785953694049  1.0000
  Mo  Mo4       1.0  0.9626665217230511  0.3646704377976846  0.9112212686651944  1.0000
  H   H1        1.0  0.8554789822356171  0.5187065068158672  0.3656185381444531  1.0000
  H   H2        1.0  0.14451958584879065  0.481293294811259  0.6343815279774319  1.0000
  H   H3        1.0  0.3574185764425907  0.0757338620670112  0.24240376253860776  1.0000
  H   H4        1.0  0.6425828411314569  0.9242659407172769  0.7575958279037209  1.0000
  H   H5        1.0  0.020132982044096078  0.9192497819104374  0.8472303213434743  1.0000
  H   H6        1.0  0.9798670006377677  0.08075003107946802  0.15276778056830412  1.0000
  H   H7        1.0  0.00879826537185831  0.1475029834996278  0.6672326157987243  1.0000
  H   H8        1.0  0.9912002976388764  0.8524968235195871  0.3327665871379964  1.0000
  H   H9        1.0  0.2885029071638314  0.8597944904912254  0.6423079963502119  1.0000
  H   H10       1.0  0.7114985104102162  0.1402053122930624  0.3576915940921168  1.0000
  H   H11       1.0  0.4648963733941471  0.8683932135306448  0.3915895755220547  1.0000
  H   H12       1.0  0.5351031564742003  0.1316077874858834  0.6084102885125375  1.0000
  C   C1        1.0  0.02055236663934322  0.23908819439353118  0.4881810992945361  1.0000
  C   C2        1.0  0.979449050934704  0.7609116083907567  0.5118184911477857  1.0000
  C   C3        1.0  0.8452848545748071  0.3794442208435738  0.5265909302325156  1.0000
  C   C4        1.0  0.15471656299923356  0.6205555819407209  0.47340866020980604  1.0000
  C   C5        1.0  0.2770971697156597  0.09098880469515788  0.3372201276460701  1.0000
  C   C6        1.0  0.7229042478583806  0.9090109980891369  0.6627794627962514  1.0000
  C   C7        1.0  0.1420773460310443  0.8087437793553889  0.8210124331418241  1.0000
  C   C8        1.0  0.857924066469316  0.19125602882100168  0.1789862941153331  1.0000
  C   C9        1.0  0.5865609534937589  0.5521563536946417  0.6260867084665592  1.0000
  C   C10       1.0  0.41344093211485233  0.44784224488672203  0.3739137094084413  1.0000
  C   C11       1.0  0.08560793972208809  0.12886668202278165  0.5719602781959523  1.0000
  C   C12       1.0  0.9143920531071431  0.8711331201829253  0.4280395500861545  1.0000
  C   C13       1.0  0.4137836466891187  0.6314368419332582  0.7217357723028857  1.0000
  C   C14       1.0  0.5862163461401125  0.36856296027244884  0.27826405597922144  1.0000
  C   C15       1.0  0.3395539134088851  0.9774536664423364  0.41947691276819654  1.0000
  C   C16       1.0  0.6604470412042784  0.0225473351527796  0.5805227134266177  1.0000
  N   N1        1.0  0.7868897197787489  0.5025266199655788  0.4550604744440535  1.0000
  N   N2        1.0  0.21311027305048214  0.49747318224012826  0.5449393538380534  1.0000
  N   N3        1.0  0.11687829845686083  0.22068973936585215  0.37087149280380766  1.0000
  N   N4        1.0  0.8831231140434995  0.779310068810531  0.6291272344533497  1.0000
  N   N5        1.0  0.7205018369388297  0.40824866768400625  0.6362818556419897  1.0000
  N   N6        1.0  0.27950004866978173  0.5917499308973573  0.36371856223300364  1.0000
  N   N7        1.0  0.6219952751429646  0.6149196779369177  0.5169142111483467  1.0000
  N   N8        1.0  0.37800661553932724  0.3850789152523433  0.4830870699118179  1.0000
  N   N9        1.0  0.34996267022639665  0.5707150710659191  0.8266800008614936  1.0000
  N   N10       1.0  0.6500377906373985  0.42928352693686367  0.17332065485328493  1.0000
  N   N11       1.0  0.24370040946023844  0.9978462969300853  0.5366308106954493  1.0000
  N   N12       1.0  0.7562991204081086  0.0021547040864505003  0.463369053339143  1.0000
  N   N13       1.0  0.28551711951912073  0.7810578311667555  0.7159371218150382  1.0000
  N   N14       1.0  0.7144842929812398  0.218941977009635  0.2840616054421262  1.0000
  N   N15       1.0  0.1793920231419222  0.6830697964636414  0.8883396750710943  1.0000
  N   N16       1.0  0.8206093944321254  0.31693000632064644  0.11165991537122721  1.0000
  O   O1        1.0  0.1659066478830767  0.39046345163045965  0.9857225302100971  1.0000
  O   O2        1.0  0.8340928819852709  0.6095375493860756  0.014277333824495001  1.0000
  O   O3        1.0  0.3245762105420339  0.5685810397655545  0.07431480803978731  1.0000
  O   O4        1.0  0.67542378228719  0.43141876244015254  0.9256850202423197  1.0000
  O   O5        1.0  0.5057878437236383  0.20555584457731874  0.055293088577848  1.0000
  O   O6        1.0  0.49421026139989266  0.7944451558606289  0.9447070132965295  1.0000
  O   O7        1.0  0.9562965186832884  0.5608971043977745  0.2271201570836823  1.0000
  O   O8        1.0  0.04370301118505897  0.43910389661875365  0.7728797069509099  1.0000
  O   O9        1.0  0.9677024781319263  0.8374359316309424  0.11510211047038156  1.0000
  O   O10       1.0  0.032298476481237515  0.16256506996417389  0.8848975157244325  1.0000
  O   O11       1.0  0.5270138848318525  0.21208069278898725  0.8194375492731325  1.0000
  O   O12       1.0  0.47298468832624246  0.7879191034460362  0.18056338003391662  1.0000
