data_image0
_chemical_formula_structural       Zn10H36C64O36
_chemical_formula_sum              "Zn10 H36 C64 O36"
_cell_length_a       5.691872890109499
_cell_length_b       16.676716632383133
_cell_length_c       17.03371179508842
_cell_angle_alpha    90.48923744658562
_cell_angle_beta     89.99977612818309
_cell_angle_gamma    90.00067636892189

_space_group_name_H-M_alt    "P 1"
_space_group_IT_number       1

loop_
  _space_group_symop_operation_xyz
  'x, y, z'

loop_
  _atom_site_type_symbol
  _atom_site_label
  _atom_site_symmetry_multiplicity
  _atom_site_fract_x
  _atom_site_fract_y
  _atom_site_fract_z
  _atom_site_occupancy
  Zn  Zn1       1.0  0.021832789959717002  0.4167292470150913  0.9574291344289706  1.0000
  Zn  Zn2       1.0  0.5218259184172211  0.08327289475655422  0.04257352927766082  1.0000
  Zn  Zn3       1.0  0.9781694283275686  0.583273520198162  0.04257278595331122  1.0000
  Zn  Zn4       1.0  0.4781727861122392  0.916731070038033  0.9574278106678591  1.0000
  Zn  Zn5       1.0  0.5261512998207678  0.2950735691843321  0.9926561528099358  1.0000
  Zn  Zn6       1.0  0.0261460414463457  0.20493158303648332  0.007344760714147501  1.0000
  Zn  Zn7       1.0  0.4738456478133984  0.7049279779763397  0.007338715934331201  1.0000
  Zn  Zn8       1.0  0.9738509062094991  0.7950735827973575  0.9926571729596958  1.0000
  Zn  Zn9       1.0  0.5000069956923453  0.5000008461904317  0.9999997496584996  1.0000
  Zn  Zn10      1.0  5.270700810900001e-06  2.405550553400001e-06  2.3616172342e-06  1.0000
  H   H1        1.0  0.027743503369528397  0.8780442079280211  0.7274255678160486  1.0000
  H   H2        1.0  0.5277405754036337  0.6219597783572937  0.2725773747833244  1.0000
  H   H3        1.0  0.972276283796468  0.12195736518651766  0.272578107160193  1.0000
  H   H4        1.0  0.4722546153029584  0.37804299747785564  0.7274274810190067  1.0000
  H   H5        1.0  0.013163666599886902  0.31285093884758924  0.7548070219953902  1.0000
  H   H6        1.0  0.51317912450817  0.18714814914744687  0.24518859121541683  1.0000
  H   H7        1.0  0.9868069275873241  0.6871464158372405  0.2451895847608014  1.0000
  H   H8        1.0  0.4868266075708974  0.8128540080518578  0.7548098033439103  1.0000
  H   H9        1.0  0.810951245861375  0.9993895671387992  0.5163369367505695  1.0000
  H   H10       1.0  0.3109597475356338  0.5006089565429336  0.4836644316613388  1.0000
  H   H11       1.0  0.1890790826674618  0.0006126022002916999  0.4836655673747289  1.0000
  H   H12       1.0  0.6890670671074658  0.49938661137178314  0.5163362746743942  1.0000
  H   H13       1.0  0.21984390469182813  0.21380652028026506  0.5304757375117221  1.0000
  H   H14       1.0  0.7198566765138067  0.28618681164671506  0.4695230964016447  1.0000
  H   H15       1.0  0.7801337168178222  0.7861776488560325  0.4695231444873898  1.0000
  H   H16       1.0  0.2801508124085145  0.7138141600581422  0.5304799881773263  1.0000
  H   H17       1.0  0.9688990260592903  0.3066296048504428  0.6094448130534929  1.0000
  H   H18       1.0  0.46891879260396496  0.1933605087023054  0.39054663296414566  1.0000
  H   H19       1.0  0.031061026674265704  0.6933593356049104  0.390545289286628  1.0000
  H   H20       1.0  0.5310746410936389  0.8066338581026147  0.6094534796658098  1.0000
  H   H21       1.0  0.0540417584343231  0.8935744466888738  0.58206646544145  1.0000
  H   H22       1.0  0.5540330941215075  0.6064242413420403  0.4179340651793382  1.0000
  H   H23       1.0  0.945986813148636  0.10642533092432423  0.4179383737292355  1.0000
  H   H24       1.0  0.4459585826885117  0.3935701237321467  0.5820654603686322  1.0000
  H   H25       1.0  0.8543336298951945  0.2862324427761109  0.9023708211395061  1.0000
  H   H26       1.0  0.35433465850819357  0.21376982430528105  0.09762788668469113  1.0000
  H   H27       1.0  0.1456615608694563  0.7137721182148128  0.09762934796409443  1.0000
  H   H28       1.0  0.645658775351535  0.7862335339121245  0.9023711016097311  1.0000
  H   H29       1.0  0.281477784113136  0.387095143939817  0.0716080009148499  1.0000
  H   H30       1.0  0.781482752874105  0.11290623616105934  0.9283925583379614  1.0000
  H   H31       1.0  0.7185314617237567  0.612905815678161  0.9283909740812392  1.0000
  H   H32       1.0  0.21852122228654747  0.8870947251735403  0.0716070037446244  1.0000
  H   H33       1.0  0.8013846969770527  0.4337368650393715  0.08772819205911023  1.0000
  H   H34       1.0  0.30138523217193125  0.06626640949596661  0.9122776353619388  1.0000
  H   H35       1.0  0.19861049371917974  0.5662653111379897  0.9122766604211778  1.0000
  H   H36       1.0  0.6986169861498013  0.9337381549634646  0.0877237079033648  1.0000
  C   C1        1.0  0.7636655519633495  0.9604521455593305  0.8292791998999081  1.0000
  C   C2        1.0  0.2636667306974303  0.5395491761839821  0.17071872331517574  1.0000
  C   C3        1.0  0.23634193702715586  0.03955060611969691  0.17071743673101747  1.0000
  C   C4        1.0  0.736342515060926  0.4604494038020378  0.8292866963069302  1.0000
  C   C5        1.0  0.7955960991319773  0.9785590562109266  0.743427226743741  1.0000
  C   C6        1.0  0.29557633024513313  0.5214465947486887  0.2565718529253544  1.0000
  C   C7        1.0  0.2044113898279321  0.021443106173507007  0.2565729290637861  1.0000
  C   C8        1.0  0.704410075998979  0.4785537651656498  0.7434271187633428  1.0000
  C   C9        1.0  0.9326926818615817  0.926063060290737  0.6981494562663784  1.0000
  C   C10       1.0  0.4326548793950878  0.5739455431535279  0.3018506349176846  1.0000
  C   C11       1.0  0.06732183464865221  0.07393910901661371  0.3018530478690735  1.0000
  C   C12       1.0  0.5673209856037432  0.42606141988417084  0.6981507216527163  1.0000
  C   C13       1.0  0.5595197756095658  0.10498758289231351  0.7547846521235899  1.0000
  C   C14       1.0  0.059520096060154515  0.3950129181403811  0.24522030157690014  1.0000
  C   C15       1.0  0.44048419946845735  0.8950091860193369  0.2452166479540026  1.0000
  C   C16       1.0  0.9404786084389515  0.6049910621990194  0.7547863221165942  1.0000
  C   C17       1.0  0.2745944217004705  0.21901325185257295  0.7587158824919699  1.0000
  C   C18       1.0  0.7746061453400374  0.2809880919895349  0.24128175017513342  1.0000
  C   C19       1.0  0.7253937414827761  0.7809895032420616  0.24128192831756934  1.0000
  C   C20       1.0  0.22539080226329836  0.7190122610371578  0.7587148731743768  1.0000
  C   C21       1.0  0.29138287819992564  0.22584698928771021  0.8470102562412691  1.0000
  C   C22       1.0  0.7913953888548946  0.27415861956526305  0.1529873781331901  1.0000
  C   C23       1.0  0.7086017711811722  0.7741557761630775  0.1529910770691743  1.0000
  C   C24       1.0  0.20860331569094367  0.7258441269145239  0.8470074972540473  1.0000
  C   C25       1.0  0.4071300583689563  0.16354226514814482  0.7144137881161756  1.0000
  C   C26       1.0  0.9071361608055997  0.33645482563407825  0.28558775746248  1.0000
  C   C27       1.0  0.5928633753809223  0.8364563096245307  0.2855898702667474  1.0000
  C   C28       1.0  0.0928537592209011  0.6635467439661014  0.7144147433667103  1.0000
  C   C29       1.0  0.11564432539072561  0.2697000738404257  0.7204289900985614  1.0000
  C   C30       1.0  0.6156503370340546  0.23029942040827936  0.2795647303443616  1.0000
  C   C31       1.0  0.8843491084061269  0.7302978719120363  0.27956468454947725  1.0000
  C   C32       1.0  0.3843536380678145  0.7696979412523607  0.7204342247228369  1.0000
  C   C33       1.0  0.3892734960261636  0.16337461555989563  0.6315556598859828  1.0000
  C   C34       1.0  0.8892909419789705  0.33661820076582677  0.36844412409902116  1.0000
  C   C35       1.0  0.6107111532026863  0.8366185484574018  0.3684432719392987  1.0000
  C   C36       1.0  0.11068843662182101  0.6633773601448567  0.6315542339347147  1.0000
  C   C37       1.0  0.6784112997172969  0.042727347141521904  0.7070152712584987  1.0000
  C   C38       1.0  0.17840268013743102  0.4572742118747685  0.2929830752691132  1.0000
  C   C39       1.0  0.3215961892009318  0.9572718117723442  0.29298310668947647  1.0000
  C   C40       1.0  0.8215889967388322  0.5427255639371681  0.7070211768421404  1.0000
  C   C41       1.0  0.8150109620059001  0.9941569067861024  0.5798821393071165  1.0000
  C   C42       1.0  0.315006326311412  0.5058440266183625  0.4201174759418009  1.0000
  C   C43       1.0  0.18500531140517043  0.005844652503775201  0.42011683900651065  1.0000
  C   C44       1.0  0.6849818367786044  0.49415333155612734  0.5798803049693291  1.0000
  C   C45       1.0  0.2311140069000289  0.2147811667946656  0.594338879754595  1.0000
  C   C46       1.0  0.7311187008069666  0.2852128169315408  0.4056622913542825  1.0000
  C   C47       1.0  0.7688653716696907  0.785212595142639  0.4056594683130045  1.0000
  C   C48       1.0  0.26887121915689965  0.7147839450430953  0.5943366603998896  1.0000
  C   C49       1.0  0.6836439049001369  0.04879434938446542  0.6243830532912256  1.0000
  C   C50       1.0  0.18363236047784431  0.45120184580485306  0.3756193662060312  1.0000
  C   C51       1.0  0.3163758823031984  0.9512078095702635  0.37561592834219243  1.0000
  C   C52       1.0  0.8163558025162985  0.5487919316949005  0.6243842656039078  1.0000
  C   C53       1.0  0.09152966108420911  0.2667052564552322  0.6388567457583181  1.0000
  C   C54       1.0  0.5915471289322767  0.23328755512490326  0.3611404915823897  1.0000
  C   C55       1.0  0.9084444468020437  0.733287300974304  0.3611398344192551  1.0000
  C   C56       1.0  0.40845508925792734  0.7667086072166285  0.6388584568418454  1.0000
  C   C57       1.0  0.544794614879237  0.11106710249683974  0.5832736921065589  1.0000
  C   C58       1.0  0.0447962505209034  0.3889273272950363  0.4167259635230637  1.0000
  C   C59       1.0  0.4552199016230531  0.8889320460679287  0.4167211633382593  1.0000
  C   C60       1.0  0.9551971831489967  0.611065238809303  0.5832735520576477  1.0000
  C   C61       1.0  0.9445681230787033  0.9343263786417212  0.6166694981536411  1.0000
  C   C62       1.0  0.4445361176403893  0.5656798721350571  0.3833299774143626  1.0000
  C   C63       1.0  0.05546571924577392  0.065676388635012  0.38333242220834773  1.0000
  C   C64       1.0  0.5554362334900489  0.43432169052105263  0.6166701750936667  1.0000
  O   O1        1.0  0.930173100107858  0.9739708868404692  0.875731032135846  1.0000
  O   O2        1.0  0.4301796200203968  0.5260287048010996  0.12426666409031381  1.0000
  O   O3        1.0  0.06984493014164882  0.026025859645784508  0.12426263585231112  1.0000
  O   O4        1.0  0.5698401671528329  0.47397407453783574  0.8757393658624509  1.0000
  O   O5        1.0  0.14385405809908042  0.18492096845773182  0.8852111120209329  1.0000
  O   O6        1.0  0.6438666711856696  0.3150816425353329  0.11478435007268221  1.0000
  O   O7        1.0  0.8561499169965288  0.8150776063361039  0.11479254635522552  1.0000
  O   O8        1.0  0.3561548729946226  0.6849247071186685  0.8852123064814921  1.0000
  O   O9        1.0  0.5652873021951734  0.9272492497123965  0.8447743616364038  1.0000
  O   O10       1.0  0.06528629604346749  0.5727542686560698  0.15522207154143797  1.0000
  O   O11       1.0  0.4347061316614216  0.07275471507161062  0.15522697831249843  1.0000
  O   O12       1.0  0.9347124084753916  0.4272484916413221  0.8447775005106593  1.0000
  O   O13       1.0  0.31703934802047945  0.3875212299749293  0.015238949801151602  1.0000
  O   O14       1.0  0.8170366210607368  0.11248029461543042  0.9847621508996625  1.0000
  O   O15       1.0  0.6829663840277506  0.612479733090396  0.9847611993634118  1.0000
  O   O16       1.0  0.18296208351353016  0.8875260670831225  0.015238615250922304  1.0000
  O   O17       1.0  0.8618442631801815  0.300520434279747  0.9580699045557567  1.0000
  O   O18       1.0  0.361847199777074  0.19948186641466492  0.041929967794217815  1.0000
  O   O19       1.0  0.1381544413526541  0.6994835287876384  0.04193084830665581  1.0000
  O   O20       1.0  0.6381585323089781  0.8005208921696367  0.95806901717026  1.0000
  O   O21       1.0  0.43754814289344074  0.2766763018068304  0.8742730630665252  1.0000
  O   O22       1.0  0.9375521826549403  0.22332869974069075  0.12572613832876564  1.0000
  O   O23       1.0  0.5624575890957715  0.7233204567451353  0.1257247145112856  1.0000
  O   O24       1.0  0.06245882015264209  0.7766776637097482  0.8742752148970397  1.0000
  O   O25       1.0  0.8157533710469809  0.46505156747927157  0.03978041915424771  1.0000
  O   O26       1.0  0.3157540234435459  0.034949354024156803  0.9602212669559052  1.0000
  O   O27       1.0  0.18425236098439512  0.5349494042220615  0.9602226654258601  1.0000
  O   O28       1.0  0.6842499517551701  0.9650540076688119  0.039778895497967405  1.0000
  O   O29       1.0  0.5858429086114398  0.10819411035468822  0.8271950240647217  1.0000
  O   O30       1.0  0.08585449883865691  0.3918088846545302  0.1728063866347114  1.0000
  O   O31       1.0  0.4141628233640446  0.8918020502666908  0.1728033372741464  1.0000
  O   O32       1.0  0.9141600178399684  0.6082010629321107  0.8271902898562473  1.0000
  O   O33       1.0  0.5567297287856334  0.11887739349208463  0.5110699215254328  1.0000
  O   O34       1.0  0.05669863311675981  0.38111949487450414  0.4889338416774933  1.0000
  O   O35       1.0  0.4432935721172271  0.8811211778861506  0.48893256267210466  1.0000
  O   O36       1.0  0.943266690245814  0.6188694680450483  0.5110638927396567  1.0000
