data_image0
_chemical_formula_structural       Cu2H36C36S2N12O8
_chemical_formula_sum              "Cu2 H36 C36 S2 N12 O8"
_cell_length_a       8.721907256371297
_cell_length_b       9.69154753581151
_cell_length_c       12.95431759978439
_cell_angle_alpha    80.91415772241507
_cell_angle_beta     80.49089304610935
_cell_angle_gamma    90.04897105875077

_space_group_name_H-M_alt    "P 1"
_space_group_IT_number       1

loop_
  _space_group_symop_operation_xyz
  'x, y, z'

loop_
  _atom_site_type_symbol
  _atom_site_label
  _atom_site_symmetry_multiplicity
  _atom_site_fract_x
  _atom_site_fract_y
  _atom_site_fract_z
  _atom_site_occupancy
  Cu  Cu1       1.0  2.4498123777999995e-06  2.0572824653000004e-06  2.563775822800001e-06  1.0000
  Cu  Cu2       1.0  6.329118135923275e-07  0.9999994240309532  0.500001195107217  1.0000
  H   H1        1.0  0.34132199076366726  0.697269756775981  0.8095819688225492  1.0000
  H   H2        1.0  0.6586751593676824  0.30273273279428287  0.19040828984584832  1.0000
  H   H3        1.0  0.8383036667080574  0.67419053017305  0.7960341043573894  1.0000
  H   H4        1.0  0.1616923575326581  0.32580768589613035  0.20396448667090544  1.0000
  H   H5        1.0  0.5848540765306253  0.34861605296625  0.7000343599435084  1.0000
  H   H6        1.0  0.4151442395937794  0.6513832477327172  0.29996074590097527  1.0000
  H   H7        1.0  0.22205616218990798  0.5459677148765039  0.7150100396442343  1.0000
  H   H8        1.0  0.7779387585195038  0.4540347172003012  0.28498512631315265  1.0000
  H   H9        1.0  0.3143964053359197  0.39329864471238113  0.6748026454270004  1.0000
  H   H10       1.0  0.6855950280401829  0.6067037828496711  0.3251929411822019  1.0000
  H   H11       1.0  0.19521215734815914  0.17180352267082816  0.7776109737985664  1.0000
  H   H12       1.0  0.8047898641342498  0.8281999092493707  0.22238785753000917  1.0000
  H   H13       1.0  0.014629567908208699  0.2911397781077341  0.07336443791086823  1.0000
  H   H14       1.0  0.9853842029420716  0.7088657231342596  0.926635835455372  1.0000
  H   H15       1.0  0.17352760965309952  0.5211695481194171  0.9401787292555853  1.0000
  H   H16       1.0  0.8264790922464939  0.4788349351179804  0.05981942102427949  1.0000
  H   H17       1.0  0.6987954948486889  0.8493052884356093  0.8852423362918317  1.0000
  H   H18       1.0  0.3012016429201196  0.1506940198390438  0.11475213862751592  1.0000
  H   H19       1.0  0.6038427564551085  0.9223971130092112  0.7809218098166186  1.0000
  H   H20       1.0  0.3961452544151811  0.07760421025692923  0.21907894447848264  1.0000
  H   H21       1.0  0.309243602726994  0.9620900856727347  0.8192431197475261  1.0000
  H   H22       1.0  0.6907525953535653  0.03790909396852981  0.1807622913828055  1.0000
  H   H23       1.0  0.22906339934844766  0.8535924570588097  0.15271152890181133  1.0000
  H   H24       1.0  0.7709480195221374  0.14640880549960403  0.8472941324719588  1.0000
  H   H25       1.0  0.5248664326199872  0.7670956736834714  0.07235839398398983  1.0000
  H   H26       1.0  0.4751378082875632  0.23290250751709615  0.9276430712354441  1.0000
  H   H27       1.0  0.9727877663074694  0.5142141460354708  0.6992597143374368  1.0000
  H   H28       1.0  0.027209517027486595  0.4857829535962567  0.3007450257924874  1.0000
  H   H29       1.0  0.9044059289737022  0.36111934006940066  0.7897632189352282  1.0000
  H   H30       1.0  0.09558678177354103  0.638879835057111  0.21024261284691903  1.0000
  H   H31       1.0  0.9637645881717063  0.1554736365546887  0.7041915902919769  1.0000
  H   H32       1.0  0.036243217259190906  0.8445266306750842  0.29580998505878864  1.0000
  H   H33       1.0  0.8613663117814666  0.2862675154080634  0.3968843158386051  1.0000
  H   H34       1.0  0.1386332952594955  0.7137306506922342  0.603118481392329  1.0000
  H   H35       1.0  0.8045486304698172  0.5051269988092316  0.5149476767597818  1.0000
  H   H36       1.0  0.19544274872463774  0.49486695740532854  0.4850581249954048  1.0000
  C   C1        1.0  0.44809665045438857  0.5159377129847231  0.7558265499166625  1.0000
  C   C2        1.0  0.551901648575985  0.4840626602535852  0.24416612232096208  1.0000
  C   C3        1.0  0.44986104775887986  0.6417699435487947  0.7956144457515819  1.0000
  C   C4        1.0  0.5501361047382147  0.35823041910398973  0.20437913784572004  1.0000
  C   C5        1.0  0.589406393833805  0.6979865812026703  0.8124630943391296  1.0000
  C   C6        1.0  0.41058842022900416  0.30201166060341234  0.18753332347921509  1.0000
  C   C7        1.0  0.7275670961203955  0.6286152192038088  0.7874837009843745  1.0000
  C   C8        1.0  0.2724277644930169  0.37138405881919573  0.21251336779673843  1.0000
  C   C9        1.0  0.58633039246849  0.44599251179867144  0.7324170626690575  1.0000
  C   C10       1.0  0.4136679236559146  0.5540067889002958  0.26757804317542616  1.0000
  C   C11       1.0  0.7266325229946416  0.5031817670177433  0.7471537847869173  1.0000
  C   C12       1.0  0.27336348533491867  0.49681645813204534  0.2528440350989669  1.0000
  C   C13       1.0  0.29613503295934146  0.45852774318092326  0.7375286273052953  1.0000
  C   C14       1.0  0.7038610501945114  0.54147469040079  0.26246639843482467  1.0000
  C   C15       1.0  0.16791038906735883  0.23419095255145808  0.8409831106830767  1.0000
  C   C16       1.0  0.8320904699706162  0.7658124778638254  0.1590158608627732  1.0000
  C   C17       1.0  0.0759322195714063  0.302023811725178  0.9921615746033654  1.0000
  C   C18       1.0  0.9240757072343797  0.6979817001534486  0.007837857564410886  1.0000
  C   C19       1.0  0.1538287907441713  0.4153418446365223  0.9274921283283533  1.0000
  C   C20       1.0  0.8461767634392743  0.5846636914740914  0.07250527084674019  1.0000
  C   C21       1.0  0.5949128803537606  0.8380142715141475  0.8494036929525138  1.0000
  C   C22       1.0  0.4050808030869247  0.16198395062580326  0.15059440736791882  1.0000
  C   C23       1.0  0.3258335136316433  0.9239435199637003  0.9002713138464103  1.0000
  C   C24       1.0  0.6741650093377842  0.07605566268740202  0.0997338168493798  1.0000
  C   C25       1.0  0.28860878402952744  0.8599545156263348  0.07186857588046543  1.0000
  C   C26       1.0  0.7113955511620844  0.14004467454934405  0.9281358537289678  1.0000
  C   C27       1.0  0.43523650123590585  0.8194772685534133  0.03346638927004625  1.0000
  C   C28       1.0  0.5647654000544904  0.18051985525919184  0.9665362477059817  1.0000
  C   C29       1.0  0.8793427495198287  0.4336014630667223  0.7206146215504177  1.0000
  C   C30       1.0  0.1206545167211033  0.5663967091043531  0.27938768497264743  1.0000
  C   C31       1.0  0.930292578231608  0.21967441755808179  0.6354147831386427  1.0000
  C   C32       1.0  0.0697152271992891  0.7803258496716838  0.3645867922121226  1.0000
  C   C33       1.0  0.8740368105569303  0.292544263069523  0.477981527964083  1.0000
  C   C34       1.0  0.1259651520123484  0.7074549513381356  0.5220208686526676  1.0000
  C   C35       1.0  0.84644369500532  0.40076072481768693  0.5347675811527992  1.0000
  C   C36       1.0  0.15355354177903988  0.5992353385971186  0.46523650801434974  1.0000
  S   S1        1.0  0.9399905939008519  0.09518389355323363  0.2680260272584435  1.0000
  S   S2        1.0  0.06000549280161491  0.9048153496522675  0.7319739858750297  1.0000
  N   N1        1.0  0.2108815321197568  0.3709097089565533  0.8325537563273147  1.0000
  N   N2        1.0  0.789119295095901  0.6290937396199399  0.1674436729337216  1.0000
  N   N3        1.0  0.0861001422885508  0.19061306202072362  0.9371568574423819  1.0000
  N   N4        1.0  0.913905444900081  0.8093913924699336  0.06284374648198111  1.0000
  N   N5        1.0  0.4573117613478956  0.8617325941549652  0.9249818469005363  1.0000
  N   N6        1.0  0.5426866366980292  0.1382645342234952  0.07502043958489685  1.0000
  N   N7        1.0  0.22157615790762716  0.9244838309711627  0.9880472663392724  1.0000
  N   N8        1.0  0.778425914856868  0.07551638333099933  0.0119588658098877  1.0000
  N   N9        1.0  0.8831971947098866  0.3531174768964433  0.634061835170016  1.0000
  N   N10       1.0  0.1168035600472237  0.6468796363306384  0.36594171316568963  1.0000
  N   N11       1.0  0.9267993785690224  0.18045269880719425  0.5416214670285626  1.0000
  N   N12       1.0  0.0732084109507198  0.8195475775031869  0.4583793371797925  1.0000
  O   O1        1.0  0.0311706459611329  0.04101598136795561  0.17570903368648771  1.0000
  O   O2        1.0  0.9688301517979596  0.9589853584522674  0.8242901782186326  1.0000
  O   O3        1.0  0.8012968083298659  0.004227310299917503  0.3147814317137829  1.0000
  O   O4        1.0  0.19869913753794316  0.9957698877135571  0.6852149660669228  1.0000
  O   O5        1.0  0.04834104318516812  0.0927048839291942  0.3499520865230822  1.0000
  O   O6        1.0  0.9516527039001376  0.9072933018883448  0.650049098366978  1.0000
  O   O7        1.0  0.8978870810196611  0.2427469639150389  0.2361724807093069  1.0000
  O   O8        1.0  0.10210902159396079  0.7572522702098612  0.7638283035665765  1.0000
