data_image0
_chemical_formula_structural       Zn4H32C82N24O26
_chemical_formula_sum              "Zn4 H32 C82 N24 O26"
_cell_length_a       19.524006779703406
_cell_length_b       19.71012706187529
_cell_length_c       19.938660882092417
_cell_angle_alpha    110.74714202937844
_cell_angle_beta     105.52228143886191
_cell_angle_gamma    110.74834647937509

_space_group_name_H-M_alt    "P 1"
_space_group_IT_number       1

loop_
  _space_group_symop_operation_xyz
  'x, y, z'

loop_
  _atom_site_type_symbol
  _atom_site_label
  _atom_site_symmetry_multiplicity
  _atom_site_fract_x
  _atom_site_fract_y
  _atom_site_fract_z
  _atom_site_occupancy
  Zn  Zn1       1.0  0.3946490749496546  0.8942652682729675  0.01525044324348834  1.0000
  Zn  Zn2       1.0  0.6166592531325108  0.1225106793529704  0.9988396659121294  1.0000
  Zn  Zn3       1.0  0.4967972519229136  0.11415951024294205  0.1138021953635261  1.0000
  Zn  Zn4       1.0  0.5085724027156644  0.8979655377112793  0.90497560434752  1.0000
  H   H1        1.0  0.23619593771989852  0.8635778197620783  0.8780773687701571  1.0000
  H   H2        1.0  0.7716766097261071  0.12859993214355112  0.959783642763526  1.0000
  H   H3        1.0  0.514880996763324  0.30250064108978597  0.17048829771596272  1.0000
  H   H4        1.0  0.6571251891798083  0.9022578674721731  0.02106118514183232  1.0000
  H   H5        1.0  0.6440692799680647  0.3027941269970995  0.024381343873088258  1.0000
  H   H6        1.0  0.5106019604488522  0.8836027336274273  0.1501091286606667  1.0000
  H   H7        1.0  0.3531016377598134  0.8595075468521217  0.7503267126973229  1.0000
  H   H8        1.0  0.43698491196374073  0.14184350235726137  0.2677388454360213  1.0000
  H   H9        1.0  0.3774005815384669  0.133720125004011  0.9910461905986806  1.0000
  H   H10       1.0  0.6259526647602484  0.8576573889602914  0.8260890036323192  1.0000
  H   H11       1.0  0.025156455476924543  0.5339699395378262  0.5571290894779396  1.0000
  H   H12       1.0  0.036507398522175535  0.2735678395905624  0.464417126649039  1.0000
  H   H13       1.0  0.2103075671852324  0.9320108687457991  0.3987370230185691  1.0000
  H   H14       1.0  0.4976385677389671  0.03396769232844581  0.5719024702339155  1.0000
  H   H15       1.0  0.3992124715818477  0.8904290166952794  0.41542529140300394  1.0000
  H   H16       1.0  0.30871752656150153  0.07576271087086181  0.5548756139591974  1.0000
  H   H17       1.0  0.5411559059074164  0.530965099659106  0.9971141175260955  1.0000
  H   H18       1.0  0.7220982081694912  0.7465445766529086  0.28142382017078665  1.0000
  H   H19       1.0  0.9580680787404673  0.06784813893674622  0.7818000530114945  1.0000
  H   H20       1.0  0.020503578495066708  0.9114256886952179  0.9104593004447498  1.0000
  H   H21       1.0  0.010939838841309807  0.057997264027449126  0.9856660943829567  1.0000
  H   H22       1.0  0.9685084790168615  0.9219871163980573  0.7069806855823091  1.0000
  H   H23       1.0  0.08221143129061655  0.5168141901169818  0.41586814733503286  1.0000
  H   H24       1.0  0.026401997918391384  0.38491173091421166  0.6778644494804098  1.0000
  H   H25       1.0  0.7916478586101476  0.5987830853744427  0.14171885460933717  1.0000
  H   H26       1.0  0.4659060145782234  0.6689464650489185  0.1382147000736183  1.0000
  H   H27       1.0  0.5380681138365021  0.15449084591457313  0.806255699667979  1.0000
  H   H28       1.0  0.31663446498350817  0.8221140361357941  0.1625690024548165  1.0000
  H   H29       1.0  0.37964425248494393  0.6487384184883854  0.6953133641349398  1.0000
  H   H30       1.0  0.6929176697000798  0.2061129006943645  0.3604331451491022  1.0000
  H   H31       1.0  0.15820595663200976  0.6350151434558671  0.8349270200466138  1.0000
  H   H32       1.0  0.8541752108924853  0.24529791267201523  0.17317747702405484  1.0000
  C   C1        1.0  0.28299255387700833  0.9291726112235638  0.9117527429679416  1.0000
  C   C2        1.0  0.7260608277934182  0.06325093282550402  0.9317290384393218  1.0000
  C   C3        1.0  0.4899688131563237  0.058881257254753905  0.838835214926526  1.0000
  C   C4        1.0  0.37070472333481064  0.9405815417300333  0.1621974086634027  1.0000
  C   C5        1.0  0.5443097359186027  0.2890452955152228  0.13232702726902806  1.0000
  C   C6        1.0  0.6144977385362366  0.9034815080399952  0.04641053855694832  1.0000
  C   C7        1.0  0.36535985870769855  0.7192395008100764  0.7992586294470955  1.0000
  C   C8        1.0  0.6655488634073166  0.1605058501900629  0.23396580378251028  1.0000
  C   C9        1.0  0.6103655545046109  0.2889435016264629  0.0574488046370903  1.0000
  C   C10       1.0  0.5392954558075119  0.8940579350885403  0.11238902071617957  1.0000
  C   C11       1.0  0.28134856523613655  0.7162987937390143  0.8563909121026045  1.0000
  C   C12       1.0  0.7321567748192237  0.1708021738845176  0.16010552006744663  1.0000
  C   C13       1.0  0.40061029005715193  0.9248627415780251  0.7874436600227456  1.0000
  C   C14       1.0  0.4166568284655198  0.07751336898205351  0.22627553223467342  1.0000
  C   C15       1.0  0.35504871334152444  0.06753098894683522  0.9699737781430642  1.0000
  C   C16       1.0  0.651775428459949  0.9245198601048302  0.8631147025732491  1.0000
  C   C17       1.0  0.27629169053103186  0.99862081754204  0.9133060874411713  1.0000
  C   C18       1.0  0.7263984112994278  0.9913632161622986  0.8827504502015345  1.0000
  C   C19       1.0  0.4213370651065701  0.9878324191609807  0.7668145917655098  1.0000
  C   C20       1.0  0.3790989135887913  0.005160738115613101  0.231111790366576  1.0000
  C   C21       1.0  0.5845434776546554  0.337942171481302  0.10332511966480247  1.0000
  C   C22       1.0  0.6049390798485488  0.8827705195211236  0.10541545013644085  1.0000
  C   C23       1.0  0.2858129890971098  0.6679845869021719  0.7870997525843678  1.0000
  C   C24       1.0  0.745470836759452  0.1899492036137431  0.23965093696181589  1.0000
  C   C25       1.0  0.026948296789825545  0.4274798187179343  0.45387567620272057  1.0000
  C   C26       1.0  0.03096226055774305  0.3760193687105655  0.5653540731245883  1.0000
  C   C27       1.0  0.027011663010064486  0.47570890121142645  0.5363795683373241  1.0000
  C   C28       1.0  0.032423805383096714  0.3306044144703791  0.4846213337176835  1.0000
  C   C29       1.0  0.22292747803236074  0.5925417168566797  0.7184919349959318  1.0000
  C   C30       1.0  0.8204014484192114  0.2371356268221447  0.30886848472387374  1.0000
  C   C31       1.0  0.0969685950619379  0.41623065925072933  0.5001477939455654  1.0000
  C   C32       1.0  0.9637025863930048  0.3924107098550921  0.5230576086644947  1.0000
  C   C33       1.0  0.09856855427400288  0.4649144599051028  0.5827305763946384  1.0000
  C   C34       1.0  0.9608737321417566  0.3416163467276478  0.438630711073671  1.0000
  C   C35       1.0  0.16694768820114084  0.5301873471895532  0.6562533185718211  1.0000
  C   C36       1.0  0.887055278080858  0.2818496420215554  0.36781773340285184  1.0000
  C   C37       1.0  0.2743326387320621  0.9556104289743317  0.4374571181300625  1.0000
  C   C38       1.0  0.4338864639663455  0.010691449318478905  0.5326482746763687  1.0000
  C   C39       1.0  0.3067273291603739  0.9045993895540861  0.46676446923650877  1.0000
  C   C40       1.0  0.4016556792755281  0.06179216775304042  0.504051689743612  1.0000
  C   C41       1.0  0.39060395642096063  0.9825034899196512  0.6919107496758417  1.0000
  C   C42       1.0  0.36094360115416185  0.997741648403647  0.2924065883801037  1.0000
  C   C43       1.0  0.32814890851255996  0.03413577467617301  0.5236128675434344  1.0000
  C   C44       1.0  0.3799375554427016  0.932054120877446  0.44692677294016664  1.0000
  C   C45       1.0  0.3607587399973012  0.9830777312010426  0.5557212316814673  1.0000
  C   C46       1.0  0.347756823273123  0.983338344825235  0.4148338005943304  1.0000
  C   C47       1.0  0.3715800443697361  0.9818311153220877  0.628070702859816  1.0000
  C   C48       1.0  0.3486846853101467  0.9884750315447732  0.3462579496226186  1.0000
  C   C49       1.0  0.7069320469648729  0.643766943067817  0.1639162084195434  1.0000
  C   C50       1.0  0.55555303721939  0.6325872039938646  0.11475746941756186  1.0000
  C   C51       1.0  0.6655886759916001  0.655648682649556  0.09350310725192669  1.0000
  C   C52       1.0  0.5974221304147915  0.6216964514951046  0.18534306457301147  1.0000
  C   C53       1.0  0.6352432797153326  0.8388422672260276  0.1343879757674886  1.0000
  C   C54       1.0  0.5965872253258764  0.4164725954965719  0.11475583421190556  1.0000
  C   C55       1.0  0.6819775003831196  0.6991025772166779  0.2182745509134848  1.0000
  C   C56       1.0  0.5809584097299664  0.5782905774613455  0.060373620531287156  1.0000
  C   C57       1.0  0.6427130603954936  0.7152989900507765  0.14939403174239643  1.0000
  C   C58       1.0  0.6202646955463962  0.561824832543593  0.1292801873182442  1.0000
  C   C59       1.0  0.6481888371490144  0.7893225509799893  0.1512704816782604  1.0000
  C   C60       1.0  0.6080043563357335  0.48403515309466644  0.12143506265324087  1.0000
  C   C61       1.0  0.971807912409062  0.032778603698339716  0.8099444167336002  1.0000
  C   C62       1.0  0.006940027064544533  0.946878895711258  0.882715791407982  1.0000
  C   C63       1.0  0.0505328307987014  0.06935086743399672  0.8867553489877267  1.0000
  C   C64       1.0  0.9285781508166975  0.9105008285046667  0.8055701206102202  1.0000
  C   C65       1.0  0.20283474128447657  0.9976560583377748  0.878396568720213  1.0000
  C   C66       1.0  0.7897838352246539  0.988693559033486  0.8633083440969218  1.0000
  C   C67       1.0  0.978342102021479  0.9528143407776853  0.7689504495615511  1.0000
  C   C68       1.0  0.0014980105042781055  0.027043796164257113  0.9238476651204053  1.0000
  C   C69       1.0  0.06006789030951142  0.9892186639831237  0.846218929964998  1.0000
  C   C70       1.0  0.9194598430032099  0.9906732474678323  0.8471107674299746  1.0000
  C   C71       1.0  0.13563933877274068  0.9924501294558469  0.8548178557598903  1.0000
  C   C72       1.0  0.8477592412556734  0.9890842926194101  0.8508145360086279  1.0000
  C   C73       1.0  0.026706761305057048  0.4564055547407477  0.394000059782151  1.0000
  C   C74       1.0  0.03507791053795732  0.34885044594486925  0.6265106897713367  1.0000
  C   C75       1.0  0.7871826095405579  0.6463398153719524  0.18865068915506092  1.0000
  C   C76       1.0  0.4763949962322015  0.6319400831205327  0.08900376150098306  1.0000
  C   C77       1.0  0.5508153285930247  0.13709356544612208  0.853413932475064  1.0000
  C   C78       1.0  0.3415902097396497  0.8523374484957956  0.1307071162620234  1.0000
  C   C79       1.0  0.40913570927860116  0.7096293611837228  0.7511352731867619  1.0000
  C   C80       1.0  0.6458403375804379  0.18642705777263305  0.3010067335197705  1.0000
  C   C81       1.0  0.2111717354833543  0.7000173891950324  0.874121309020559  1.0000
  C   C82       1.0  0.7875737938377797  0.2110261122364676  0.13311598968260105  1.0000
  N   N1        1.0  0.3588043159222706  0.9554116827228611  0.9640586535118488  1.0000
  N   N2        1.0  0.6574329610160987  0.0409998853017015  0.94117255823452  1.0000
  N   N3        1.0  0.5053843392138049  0.03759954546054441  0.896382890044258  1.0000
  N   N4        1.0  0.40128249398223653  0.9742763358834239  0.12153840662580259  1.0000
  N   N5        1.0  0.5464145475841065  0.21723813851794205  0.10519570312829533  1.0000
  N   N6        1.0  0.5574838917280046  0.9232225772755315  0.01972808107095158  1.0000
  N   N7        1.0  0.4032371338464599  0.7913449194699711  0.8703160638636122  1.0000
  N   N8        1.0  0.6099845362685059  0.12236233557771212  0.15540021650929253  1.0000
  N   N9        1.0  0.586830576463363  0.21678350535496096  0.05831832024973956  1.0000
  N   N10       1.0  0.5111250846207367  0.9171207110010399  0.06019372454971262  1.0000
  N   N11       1.0  0.353536715886662  0.7895675895985833  0.904818242852784  1.0000
  N   N12       1.0  0.6501412813667783  0.1276995414946924  0.11145164868351291  1.0000
  N   N13       1.0  0.45274468574064747  0.9564561589700421  0.8651569367683722  1.0000
  N   N14       1.0  0.42956696772597514  0.05678578095277941  0.160044665307808  1.0000
  N   N15       1.0  0.4033663246454609  0.0404305322256704  0.0002675548360855558  1.0000
  N   N16       1.0  0.6114350767972071  0.955261418705284  0.898195681280065  1.0000
  N   N17       1.0  0.8879064866509906  0.37544644399415733  0.5312466847462147  1.0000
  N   N18       1.0  0.16914436122227267  0.4268958740950879  0.4856044017255813  1.0000
  N   N19       1.0  0.25604694708243864  0.8209630622921652  0.4526807270339079  1.0000
  N   N20       1.0  0.4520655108303941  0.1451000910940294  0.5175046682983506  1.0000
  N   N21       1.0  0.7015635090390119  0.6782758755153679  0.043684079877380266  1.0000
  N   N22       1.0  0.5601654478355655  0.5974501479063081  0.23377650588820154  1.0000
  N   N23       1.0  0.12132422626061161  0.15373107660907698  0.9309012628283853  1.0000
  N   N24       1.0  0.8579794265677663  0.8259909296663823  0.7626905731340231  1.0000
  O   O1        1.0  0.9703699310322662  0.4187291749980561  0.3268339174396717  1.0000
  O   O2        1.0  0.0493382050144007  0.2924605879560432  0.6221600734182999  1.0000
  O   O3        1.0  0.8623163349753113  0.4246297459236602  0.5315901585058216  1.0000
  O   O4        1.0  0.8538737367754551  0.31018717505277493  0.5331555467353298  1.0000
  O   O5        1.0  0.15855492058511794  0.40906921801581564  0.41611264497588973  1.0000
  O   O6        1.0  0.23312661420321482  0.4506639798931857  0.542927007480607  1.0000
  O   O7        1.0  0.2842967654195973  0.7728637078638699  0.44232328329784565  1.0000
  O   O8        1.0  0.19003608102104144  0.8062940358785866  0.4556664442846242  1.0000
  O   O9        1.0  0.5214823129838706  0.16280254301680236  0.5224010995941201  1.0000
  O   O10       1.0  0.4201095783782947  0.18956737662988135  0.5191118913419644  1.0000
  O   O11       1.0  0.7739867164666875  0.6958675471479623  0.06191604384567051  1.0000
  O   O12       1.0  0.6563319433189249  0.6802243631459606  0.9882646683826765  1.0000
  O   O13       1.0  0.4847040550913133  0.5670519785473972  0.20698175256304563  1.0000
  O   O14       1.0  0.6069551867021659  0.6061418063081518  0.2958996394049935  1.0000
  O   O15       1.0  0.8438236298165903  0.695441692245936  0.2559849365540147  1.0000
  O   O16       1.0  0.42705715144258244  0.5960661663743352  0.018572917541241952  1.0000
  O   O17       1.0  0.17041096895434998  0.1758171202805414  0.9990360936475041  1.0000
  O   O18       1.0  0.1289208315392898  0.19530387085259096  0.896302977876374  1.0000
  O   O19       1.0  0.8422297993760138  0.7937976807005853  0.8039023660480282  1.0000
  O   O20       1.0  0.8173719716624177  0.7946132560031247  0.6893879823960066  1.0000
  O   O21       1.0  0.61754417824946  0.18257152428024173  0.9152685191770189  1.0000
  O   O22       1.0  0.34547293739915835  0.8106749163380659  0.06945370982607116  1.0000
  O   O23       1.0  0.47695080883966756  0.7676107893828501  0.7720324990100452  1.0000
  O   O24       1.0  0.5836828698944173  0.19170352308934477  0.2940811047791598  1.0000
  O   O25       1.0  0.20871086732376654  0.7540232625506393  0.9267641183712741  1.0000
  O   O26       1.0  0.76131444430505  0.21256214744560964  0.06996863236052768  1.0000
