data_image0
_chemical_formula_structural       Ag4H44C44N4O12
_chemical_formula_sum              "Ag4 H44 C44 N4 O12"
_cell_length_a       7.163933724
_cell_length_b       11.78937172402539
_cell_length_c       13.38
_cell_angle_alpha    93.14711321804768
_cell_angle_beta     90.0
_cell_angle_gamma    107.687536201943

_space_group_name_H-M_alt    "P 1"
_space_group_IT_number       1

loop_
  _space_group_symop_operation_xyz
  'x, y, z'

loop_
  _atom_site_type_symbol
  _atom_site_label
  _atom_site_symmetry_multiplicity
  _atom_site_fract_x
  _atom_site_fract_y
  _atom_site_fract_z
  _atom_site_occupancy
  Ag  Ag1       1.0  0.5153675214248992  0.4353337670474886  0.8995592863015671  1.0000
  Ag  Ag2       1.0  0.0797356564665748  0.5650108048322764  0.6002245716192576  1.0000
  Ag  Ag3       1.0  0.48463473834853926  0.5646674654961359  0.10043741009195628  1.0000
  Ag  Ag4       1.0  0.9202722450460357  0.4349877523399002  0.3997794691992311  1.0000
  H   H1        1.0  0.0524384939003326  0.1986579234729788  0.8635230464199566  1.0000
  H   H2        1.0  0.8542649900411872  0.8013192307275929  0.6366025300672646  1.0000
  H   H3        1.0  0.9475549446973943  0.8013424172801606  0.1364773437554803  1.0000
  H   H4        1.0  0.1457278862384896  0.1986855689779716  0.36339060196094397  1.0000
  H   H5        1.0  0.3036836112341916  0.1346567958445775  0.9478299395559372  1.0000
  H   H6        1.0  0.16916047471924128  0.8651277316115581  0.5522250334356968  1.0000
  H   H7        1.0  0.6963213238723327  0.86534978744195  0.05216552090246299  1.0000
  H   H8        1.0  0.8308405056022465  0.1348681501891633  0.4477743936612625  1.0000
  H   H9        1.0  0.24795411825570565  0.34673259893210673  0.21366274093197285  1.0000
  H   H10       1.0  0.9010079453916687  0.6534942566038424  0.28621781428796567  1.0000
  H   H11       1.0  0.7520541127165501  0.6532722007734577  0.7863363701694792  1.0000
  H   H12       1.0  0.0989982889947569  0.3464953826634982  0.7137783213003175  1.0000
  H   H13       1.0  0.9904053279403084  0.4064914792305601  0.1297702176801039  1.0000
  H   H14       1.0  0.5836939946391624  0.5936809770858957  0.37021233985083757  1.0000
  H   H15       1.0  0.009593752396590072  0.5935061861511315  0.8702307904628979  1.0000
  H   H16       1.0  0.416302235720849  0.4063193636672437  0.6297843134038246  1.0000
  H   H17       1.0  0.645894611133528  0.16521221318028978  0.04787751321358509  1.0000
  H   H18       1.0  0.4804938524196203  0.8346026351522866  0.45227982336044886  1.0000
  H   H19       1.0  0.35411183628333726  0.8347890193633346  0.9521259096373381  1.0000
  H   H20       1.0  0.5195144367672313  0.1653994891818229  0.5477184109402556  1.0000
  H   H21       1.0  0.4192986121123283  0.050246151211098294  0.050375266642681986  1.0000
  H   H22       1.0  0.3691493884462814  0.9497381373133392  0.4496557371677098  1.0000
  H   H23       1.0  0.5807002935807757  0.949759540284944  0.9496231402134754  1.0000
  H   H24       1.0  0.630843662477197  0.0502586362778672  0.5503459752205727  1.0000
  H   H25       1.0  0.8993774455258645  0.10496909064930549  0.12002463896759247  1.0000
  H   H26       1.0  0.7941632650502938  0.8948600263310098  0.3802709065128838  1.0000
  H   H27       1.0  0.10062012250069322  0.8950339254752888  0.8799773753927482  1.0000
  H   H28       1.0  0.2058307940800788  0.1051331800982638  0.619727643783328  1.0000
  H   H29       1.0  0.02017124058543365  0.999901011256334  0.25013422503889865  1.0000
  H   H30       1.0  0.9798282978030244  9.6313372218e-05  0.7498656455445029  1.0000
  H   H31       1.0  0.3277452196353181  0.9997752687981603  0.2500683517264974  1.0000
  H   H32       1.0  0.6722560440939347  0.0002282983637727  0.7499355577497366  1.0000
  H   H33       1.0  0.14980257756039345  0.4390739363352337  0.8423186860376644  1.0000
  H   H34       1.0  0.7107622027702333  0.5611252736957296  0.6576943136412864  1.0000
  H   H35       1.0  0.8501955527842069  0.5609246208369426  0.1576816178600424  1.0000
  H   H36       1.0  0.2892280563909537  0.43887149989548385  0.3423088935153089  1.0000
  H   H37       1.0  0.2695596675174343  0.5554311914586663  0.9058545969509523  1.0000
  H   H38       1.0  0.7143116522330573  0.4446618955047654  0.5942735980520978  1.0000
  H   H39       1.0  0.7304333251914412  0.4445682575039953  0.09414649746977229  1.0000
  H   H40       1.0  0.2856883198815368  0.5553375534578961  0.40572824375279026  1.0000
  H   H41       1.0  0.47593450699299195  0.24370850332728364  0.20845939261218396  1.0000
  H   H42       1.0  0.23220586882931118  0.756480005217874  0.2914499503869336  1.0000
  H   H43       1.0  0.5240650192327578  0.7562900538448929  0.7915446482062974  1.0000
  H   H44       1.0  0.7677917574118424  0.24352033553527258  0.7085489450201903  1.0000
  C   C1        1.0  0.0938998670981519  0.230028437310601  0.940952350943405  1.0000
  C   C2        1.0  0.8639207843254226  0.7699487168899779  0.5591104452747614  1.0000
  C   C3        1.0  0.9060954714841641  0.7699701198615756  0.05904944772261439  1.0000
  C   C4        1.0  0.1360796336780226  0.2300516238631687  0.440886955364057  1.0000
  C   C5        1.0  0.23714554394901904  0.1944727507339792  0.9885605060404569  1.0000
  C   C6        1.0  0.04271015838147462  0.8054357355993673  0.511456367588238  1.0000
  C   C7        1.0  0.7628571617132636  0.8055293736001303  0.011439970412709497  1.0000
  C   C8        1.0  0.9572930513842621  0.19456460515377927  0.48854028566641705  1.0000
  C   C9        1.0  0.2945111387449515  0.23576443370038186  0.08886883357593688  1.0000
  C   C10       1.0  0.05862095401094079  0.7642689033006462  0.4110965309138875  1.0000
  C   C11       1.0  0.7054893374730895  0.7642332316813095  0.9111314271829015  1.0000
  C   C12       1.0  0.9413823139693847  0.2357287620810453  0.5889014876924888  1.0000
  C   C13       1.0  0.2043440752062793  0.3154450216094489  0.136775564914899  1.0000
  C   C14       1.0  0.8886572496475862  0.6847541884215076  0.3631298114456668  1.0000
  C   C15       1.0  0.7956563427971659  0.6845553191436906  0.863225572644694  1.0000
  C   C16       1.0  0.1113455724439021  0.3152425851696989  0.6368681640218481  1.0000
  C   C17       1.0  0.057386172707971556  0.3468788525713933  0.08916383663258637  1.0000
  C   C18       1.0  0.7103089097919548  0.6533141149261823  0.41080401802498295  1.0000
  C   C19       1.0  0.9426096699777914  0.6531179210198133  0.9108378757556961  1.0000
  C   C20       1.0  0.2896887746638015  0.3466835504555092  0.5891932531972373  1.0000
  C   C21       1.0  0.000204907188511074  0.3058190351306962  0.9897747969508826  1.0000
  C   C22       1.0  0.6942583750400573  0.6942740518327284  0.5102547433436441  1.0000
  C   C23       1.0  0.9997877135688142  0.6941786302509954  0.0102306954970501  1.0000
  C   C24       1.0  0.30574477651106946  0.3057289642918661  0.4897405445593036  1.0000
  C   C25       1.0  0.855671695232786  0.3449677455652846  0.9329682510314609  1.0000
  C   C26       1.0  0.5105789706593596  0.6550165429591601  0.5671075958282613  1.0000
  C   C27       1.0  0.14432732688950975  0.6550325951878619  0.06703587606475739  1.0000
  C   C28       1.0  0.489425189098668  0.3449829060035015  0.432890509055845  1.0000
  C   C29       1.0  0.5270619658376248  0.1193179995286044  0.09743249517375567  1.0000
  C   C30       1.0  0.4076902200866499  0.8805583823473313  0.4027076386097619  1.0000
  C   C31       1.0  0.4729394021581186  0.8806814494340571  0.9025678518628124  1.0000
  C   C32       1.0  0.5923111479090934  0.1194410666153303  0.5972927084268135  1.0000
  C   C33       1.0  0.6053872078647942  0.0592291567512646  0.17676720353287578  1.0000
  C   C34       1.0  0.5461307403309519  0.9406543594485441  0.3234255922524411  1.0000
  C   C35       1.0  0.3946095265986641  0.940769400420912  0.8232360899014494  1.0000
  C   C36       1.0  0.4538691735690393  0.0593477648855654  0.6765748842007255  1.0000
  C   C37       1.0  0.8006773252589241  0.058937541263162495  0.17706774585347057  1.0000
  C   C38       1.0  0.7416944761232427  0.9410244524991923  0.32325365930592637  1.0000
  C   C39       1.0  0.19932119275992477  0.941064583070947  0.8229334779838523  1.0000
  C   C40       1.0  0.2583049918879041  0.0589767800444392  0.6767467740083716  1.0000
  C   C41       1.0  0.8679594376385749  1.78358096719e-05  0.25019368788940705  1.0000
  C   C42       1.0  0.13204188430527342  0.999983055980813  0.749806355249454  1.0000
  C   C43       1.0  0.4801627202419567  0.9998894179800502  0.2500761156536838  1.0000
  C   C44       1.0  0.5198385434872961  0.0001141491818828  0.7499262990542377  1.0000
  N   N1        1.0  0.42778076777059926  0.19998044875999443  0.1407693830906709  1.0000
  N   N2        1.0  0.2277329556402846  0.7999333883162548  0.35929857149378813  1.0000
  N   N3        1.0  0.5722173043594054  0.8000207837836371  0.8592295554553218  1.0000
  N   N4        1.0  0.7722717082211901  0.2000642770654366  0.6407001944967446  1.0000
  O   O1        1.0  0.8686471826215223  0.3490592803035213  0.838973347031931  1.0000
  O   O2        1.0  0.5194553289049537  0.6506779822569939  0.6610800869840148  1.0000
  O   O3        1.0  0.13135038540503527  0.6509437358210732  0.16102941471256568  1.0000
  O   O4        1.0  0.4805496644161735  0.3493259256580856  0.3389182335944198  1.0000
  O   O5        1.0  0.7210150238717361  0.3749568759439796  0.9835108530345023  1.0000
  O   O6        1.0  0.3459081027065735  0.6251299684860641  0.5166050818500024  1.0000
  O   O7        1.0  0.27898310647286445  0.6250416812281969  0.016490198247360897  1.0000
  O   O8        1.0  0.6540950488445603  0.37487304763853047  0.4833939429737128  1.0000
  O   O9        1.0  0.27941134717415383  0.5006886326298243  0.8468589840911914  1.0000
  O   O10       1.0  0.7789159011268509  0.4995712191540136  0.6531554542622686  1.0000
  O   O11       1.0  0.720581587320126  0.4993134917042852  0.15314149236197488  1.0000
  O   O12       1.0  0.22108077512200447  0.5004300133896109  0.3468464738203423  1.0000
