data_image0
_chemical_formula_structural       Ca4H32C16O32
_chemical_formula_sum              "Ca4 H32 C16 O32"
_cell_length_a       9.747285543556368
_cell_length_b       8.794316975382696
_cell_length_c       10.191334163471062
_cell_angle_alpha    90.00123232674567
_cell_angle_beta     90.00058763954466
_cell_angle_gamma    89.99992655451732

_space_group_name_H-M_alt    "P 1"
_space_group_IT_number       1

loop_
  _space_group_symop_operation_xyz
  'x, y, z'

loop_
  _atom_site_type_symbol
  _atom_site_label
  _atom_site_symmetry_multiplicity
  _atom_site_fract_x
  _atom_site_fract_y
  _atom_site_fract_z
  _atom_site_occupancy
  Ca  Ca1       1.0  0.21931805906512386  0.30782182885080533  0.6770506163095149  1.0000
  Ca  Ca2       1.0  0.7806830889592646  0.8078271938149226  0.8229482225320055  1.0000
  Ca  Ca3       1.0  0.2806800395440591  0.6921732055713009  0.17705230886272014  1.0000
  Ca  Ca4       1.0  0.7193206030155183  0.19218027958606848  0.322948066028701  1.0000
  H   H1        1.0  0.3589795166800229  0.7630950331619885  0.6443112935000884  1.0000
  H   H2        1.0  0.6410163564068584  0.26310872565667853  0.8556968775077038  1.0000
  H   H3        1.0  0.14101768017412297  0.23689298302316078  0.1443065841996969  1.0000
  H   H4        1.0  0.8589790040085247  0.7368955317934861  0.3557021201837501  1.0000
  H   H5        1.0  0.27830604527088804  0.8666082106655321  0.8445957636151178  1.0000
  H   H6        1.0  0.721684066480691  0.36660991942115817  0.6554059767798179  1.0000
  H   H7        1.0  0.22170258424804962  0.13338668803281445  0.34459675321112837  1.0000
  H   H8        1.0  0.778312172802906  0.6333806333741164  0.1554075885084742  1.0000
  H   H9        1.0  0.45859534895263476  0.5502764812819692  0.7264154440456991  1.0000
  H   H10       1.0  0.5414134541390467  0.050283079161786794  0.7735730180223612  1.0000
  H   H11       1.0  0.04141024912171791  0.44971884839441134  0.2264311770970622  1.0000
  H   H12       1.0  0.9585888944467629  0.9497104540367401  0.2735756496009856  1.0000
  H   H13       1.0  0.11962848467482703  0.7094064842828728  0.9365014920380049  1.0000
  H   H14       1.0  0.880364754188392  0.20940405631404957  0.5634931498125937  1.0000
  H   H15       1.0  0.38036357956185896  0.2906082935097345  0.4365020910494835  1.0000
  H   H16       1.0  0.6196377905520265  0.7905904960076383  0.0634965934037126  1.0000
  H   H17       1.0  0.07117858360108191  0.3347489214889307  0.9058533801214494  1.0000
  H   H18       1.0  0.9288228503446235  0.8347598837921023  0.5941473198085988  1.0000
  H   H19       1.0  0.4288207128119836  0.6652577137917104  0.4058520461674818  1.0000
  H   H20       1.0  0.5711734879364841  0.16524394820869048  0.0941503925093627  1.0000
  H   H21       1.0  0.18601016692827696  0.463015809201863  0.9220781088509185  1.0000
  H   H22       1.0  0.813989011876444  0.9630211616338539  0.5779179506419041  1.0000
  H   H23       1.0  0.31398855968194544  0.5369909229902133  0.4220774358041623  1.0000
  H   H24       1.0  0.686005844492044  0.0369825733523328  0.0779217934504359  1.0000
  H   H25       1.0  0.1447243825714182  0.9715976631173433  0.698853536105041  1.0000
  H   H26       1.0  0.8552773110469829  0.4716038017546395  0.8011535973364232  1.0000
  H   H27       1.0  0.35527397665606497  0.028390678957634898  0.1988462324138993  1.0000
  H   H28       1.0  0.64472612028068  0.5284080898151158  0.3011517351952193  1.0000
  H   H29       1.0  0.0743890822608648  0.06077637976180479  0.8118455936182941  1.0000
  H   H30       1.0  0.9256118508913361  0.5607728719084478  0.6881579295214806  1.0000
  H   H31       1.0  0.42560941206040337  0.9392251454578543  0.3118422512035437  1.0000
  H   H32       1.0  0.5743934971385016  0.4392281107893723  0.1881583455717006  1.0000
  C   C1        1.0  0.15488741132237746  0.6759217533280334  0.6553266985808648  1.0000
  C   C2        1.0  0.8451295673474846  0.1759330482233139  0.8446639064151782  1.0000
  C   C3        1.0  0.34511452820639477  0.3240651917783097  0.15533049188227474  1.0000
  C   C4        1.0  0.6548713100506873  0.8240813773708736  0.34465652989503337  1.0000
  C   C5        1.0  0.302023639484382  0.6831538829314211  0.7070951904116713  1.0000
  C   C6        1.0  0.6979826059086423  0.1831591189269446  0.7928936880447638  1.0000
  C   C7        1.0  0.19797750776864836  0.3168356456358977  0.20710388999908963  1.0000
  C   C8        1.0  0.8020180379674005  0.8168424893198106  0.2928966328336884  1.0000
  C   C9        1.0  0.30630546303891043  0.7446942135622902  0.8483467038744691  1.0000
  C   C10       1.0  0.6936998246575853  0.24469940998211823  0.651644185206635  1.0000
  C   C11       1.0  0.19369585287374488  0.25530866696919924  0.3483551339282016  1.0000
  C   C12       1.0  0.8062955205239531  0.7552979429025015  0.1516492656505761  1.0000
  C   C13       1.0  0.45248284981992976  0.7372213688838656  0.9047904716066882  1.0000
  C   C14       1.0  0.5475198502442781  0.2372171420479674  0.5952109665839913  1.0000
  C   C15       1.0  0.0475154583158783  0.26277730031213054  0.4047856945439817  1.0000
  C   C16       1.0  0.9524785026048052  0.7627798738242147  0.09522287423788361  1.0000
  O   O1        1.0  0.10024492914178751  0.5461767049012777  0.6397883985167568  1.0000
  O   O2        1.0  0.8997590131880387  0.04617869349706889  0.8602067979826487  1.0000
  O   O3        1.0  0.399761659637022  0.453810147579098  0.1398002396100111  1.0000
  O   O4        1.0  0.600243370209853  0.9538358250150123  0.36019985288756123  1.0000
  O   O5        1.0  0.09573586332530229  0.8023248922518247  0.6356467873064064  1.0000
  O   O6        1.0  0.9042697481914317  0.30234658677697  0.8643597221274248  1.0000
  O   O7        1.0  0.40426266381189885  0.19765852384206536  0.1356465676558685  1.0000
  O   O8        1.0  0.5957232558682222  0.6976725045741006  0.3643530049583887  1.0000
  O   O9        1.0  0.363003566508688  0.5350071441235469  0.6988265393693213  1.0000
  O   O10       1.0  0.6370011086798683  0.034996319442974794  0.8011682920070413  1.0000
  O   O11       1.0  0.13699787079223572  0.4649948431206851  0.1988310367428241  1.0000
  O   O12       1.0  0.8630012963934844  0.9650087495928544  0.3011684396121481  1.0000
  O   O13       1.0  0.2169543861970098  0.6669430719329056  0.9377789098964016  1.0000
  O   O14       1.0  0.7830457405425051  0.16695126648481556  0.5622143449382762  1.0000
  O   O15       1.0  0.28304276330589323  0.33305806850535186  0.4377768414015364  1.0000
  O   O16       1.0  0.7169527453774691  0.8330421409515906  0.0622212674010569  1.0000
  O   O17       1.0  0.5514960599321483  0.7166582903479719  0.8261543181834412  1.0000
  O   O18       1.0  0.44850183381709036  0.21663660438679233  0.6738317293723242  1.0000
  O   O19       1.0  0.9485075194121962  0.28334920220908083  0.3261562434188789  1.0000
  O   O20       1.0  0.05149740408070609  0.7833413544202371  0.1738471102482322  1.0000
  O   O21       1.0  0.46396747766456065  0.7562053218252628  0.028311134425941  1.0000
  O   O22       1.0  0.5360238359207018  0.2562229190119254  0.4716982010385068  1.0000
  O   O23       1.0  0.036035844863547994  0.2437820015687037  0.528303753192688  1.0000
  O   O24       1.0  0.9639746320086006  0.7437877170722018  0.9717018246142645  1.0000
  O   O25       1.0  0.17181937831534105  0.35481918302548365  0.9001475400616101  1.0000
  O   O26       1.0  0.8281817657032281  0.8548269064808379  0.5998459657386661  1.0000
  O   O27       1.0  0.3281780665595377  0.6451862810144178  0.40015211747953566  1.0000
  O   O28       1.0  0.6718174502867456  0.14517695966741678  0.09984574062547581  1.0000
  O   O29       1.0  0.1586421819251029  0.06209397411527109  0.7566872054452817  1.0000
  O   O30       1.0  0.8413617423312802  0.5620967562748047  0.7433202858263641  1.0000
  O   O31       1.0  0.3413551718096173  0.9379038102341891  0.2566843664477787  1.0000
  O   O32       1.0  0.658648849699091  0.43791479005221845  0.2433161873164096  1.0000
