data_image0
_chemical_formula_structural       Ba4H56C20O32
_chemical_formula_sum              "Ba4 H56 C20 O32"
_cell_length_a       7.659258378
_cell_length_b       12.423180108
_cell_length_c       13.293
_cell_angle_alpha    90.0
_cell_angle_beta     90.0
_cell_angle_gamma    90.0

_space_group_name_H-M_alt    "P 1"
_space_group_IT_number       1

loop_
  _space_group_symop_operation_xyz
  'x, y, z'

loop_
  _atom_site_type_symbol
  _atom_site_label
  _atom_site_symmetry_multiplicity
  _atom_site_fract_x
  _atom_site_fract_y
  _atom_site_fract_z
  _atom_site_occupancy
  Ba  Ba1       1.0  0.7499982004132377  0.6376901832807249  0.9620507033777201  1.0000
  Ba  Ba2       1.0  0.2500020113566137  0.8623114135728828  0.4620461897239139  1.0000
  Ba  Ba3       1.0  0.7500008116321055  0.1376958222555587  0.5379477920710158  1.0000
  Ba  Ba4       1.0  0.2499954833094407  0.36230578329147534  0.037950801173551  1.0000
  H   H1        1.0  0.8661321596167753  0.15562842872695634  0.9264462499059647  1.0000
  H   H2        1.0  0.1338732745908189  0.3443747867138285  0.4264447453547007  1.0000
  H   H3        1.0  0.6338590187719575  0.6556404985833597  0.5735560069209384  1.0000
  H   H4        1.0  0.3661464154356295  0.8443667328983723  0.0735537500940353  1.0000
  H   H5        1.0  0.1338732745908189  0.8443659279515005  0.0735605205747376  1.0000
  H   H6        1.0  0.8661321596167753  0.6556404985833597  0.5735567591965705  1.0000
  H   H7        1.0  0.3661398873884566  0.3443755916607075  0.4264500112841318  1.0000
  H   H8        1.0  0.6338616299908324  0.15562520893945483  0.9264485067328678  1.0000
  H   H9        1.0  0.6360145799484088  0.0276153124254463  0.0737628827202315  1.0000
  H   H10       1.0  0.3639764925554019  0.4723758288122185  0.5737726623034689  1.0000
  H   H11       1.0  0.8639844320969345  0.5276330169099737  0.4262416309335748  1.0000
  H   H12       1.0  0.1360118628446116  0.9723669700498905  0.9262371172797685  1.0000
  H   H13       1.0  0.36398171499313753  0.9723709947842637  0.9262356127285046  1.0000
  H   H14       1.0  0.6360132743389713  0.527631407016223  0.4262386218310397  1.0000
  H   H15       1.0  0.1360027235785708  0.4723742189184748  0.5737673963740306  1.0000
  H   H16       1.0  0.8639844320969345  0.027618532212940704  0.0737613781689603  1.0000
  H   H17       1.0  0.8658710377298604  0.23346196181542211  0.10136086662153329  1.0000
  H   H18       1.0  0.134129174039991  0.2665315942628723  0.601356352967727  1.0000
  H   H19       1.0  0.6341279743154757  0.7334708118843312  0.3986406379297378  1.0000
  H   H20       1.0  0.365867015016633  0.7665307849692837  0.8986406379297379  1.0000
  H   H21       1.0  0.1341278684305536  0.7665323948630275  0.8986459038591761  1.0000
  H   H22       1.0  0.8658645096826874  0.7334675920968294  0.3986406379297378  1.0000
  H   H23       1.0  0.3658657094071955  0.2665315942628723  0.6013586097946302  1.0000
  H   H24       1.0  0.6341292799249132  0.23346115686855035  0.1013623711727973  1.0000
  H   H25       1.0  0.889156581995124  0.5006061206498273  0.7465244865718789  1.0000
  H   H26       1.0  0.1108371017275545  0.9993898415756561  0.2465192206424405  1.0000
  H   H27       1.0  0.6108411244407819  0.0006045151027934001  0.7534755134281211  1.0000
  H   H28       1.0  0.3891590873290696  0.49939467560361817  0.2534822839088235  1.0000
  H   H29       1.0  0.11084101855585972  0.49939467560361817  0.2534822839088235  1.0000
  H   H30       1.0  0.8891578876045614  0.0006069299434159001  0.7534762657037533  1.0000
  H   H31       1.0  0.3891577817196321  0.9993954762037802  0.2465192206424405  1.0000
  H   H32       1.0  0.6108385132219141  0.5006037058092048  0.7465252388475107  1.0000
  H   H33       1.0  0.647445190547927  0.5479933431550279  0.1854848416459802  1.0000
  H   H34       1.0  0.3525576324407922  0.9520082536985798  0.685479575716542  1.0000
  H   H35       1.0  0.852556432716284  0.0479949573954954  0.3145159106296518  1.0000
  H   H36       1.0  0.1474411678346996  0.4520034283640442  0.814519672007826  1.0000
  H   H37       1.0  0.352553715612494  0.45200262341717234  0.814519672007826  1.0000
  H   H38       1.0  0.6474425793290592  0.0479957623423672  0.3145159106296518  1.0000
  H   H39       1.0  0.1474450846629978  0.9520090586454516  0.685479575716542  1.0000
  H   H40       1.0  0.852556432716284  0.5479941481019068  0.1854848416459802  1.0000
  H   H41       1.0  0.9132698826418917  0.4565787463990318  0.8591190852328268  1.0000
  H   H42       1.0  0.0867290235185223  0.04341963936050772  0.3591123147521245  1.0000
  H   H43       1.0  0.5867304350128819  0.9565867915210617  0.6408794102159021  1.0000
  H   H44       1.0  0.4132710823663999  0.5434180251200473  0.1408869329722435  1.0000
  H   H45       1.0  0.0867303291279597  0.5434180251200473  0.1408876852478755  1.0000
  H   H46       1.0  0.9132724938607595  0.9565827667866884  0.6408824193184373  1.0000
  H   H47       1.0  0.4132723879758373  0.04342044430737962  0.3591130670277565  1.0000
  H   H48       1.0  0.5867265181845767  0.4565747216646585  0.8591190852328268  1.0000
  H   H49       1.0  0.7499916723660647  0.8333107875763235  0.8047393364928935  1.0000
  H   H50       1.0  0.2500020113566137  0.666681149914794  0.304746859249228  1.0000
  H   H51       1.0  0.7499968948038003  0.3333180364449078  0.6952584066802103  1.0000
  H   H52       1.0  0.2499994001377459  0.16668115426150373  0.1952538930264041  1.0000
  H   H53       1.0  0.7500321462585333  0.7468039519145009  0.715025201233729  1.0000
  H   H54       1.0  0.2500268179358685  0.753185570735994  0.2150334762657025  1.0000
  H   H55       1.0  0.750015173335882  0.2468103958362065  0.7849695328368327  1.0000
  H   H56       1.0  0.2500215954981329  0.253188794870205  0.2849642669073944  1.0000
  C   C1        1.0  0.7500008116321055  0.1476530150938373  0.9747889866847217  1.0000
  C   C2        1.0  0.2500020113566137  0.3523469805594459  0.4747882344090897  1.0000
  C   C3        1.0  0.7499982004132377  0.6476634750564969  0.5252155269690846  1.0000
  C   C4        1.0  0.250005928184919  0.8523413415846122  0.0252170315203486  1.0000
  C   C5        1.0  0.7499982004132377  0.3451137279446712  0.9964176634318846  1.0000
  C   C6        1.0  0.2499994001377459  0.1548894874961135  0.4964018656435698  1.0000
  C   C7        1.0  0.7500099508981464  0.8451193582260856  0.5035770706386842  1.0000
  C   C8        1.0  0.2499994001377459  0.6548798237869065  0.0035891070488248  1.0000
  C   C9        1.0  0.750002117241543  0.0370219216015215  0.0239155946738876  1.0000
  C   C10       1.0  0.2499954833094407  0.4629740493173885  0.5239223651545899  1.0000
  C   C11       1.0  0.7499982004132377  0.5370347964048037  0.4760874144286475  1.0000
  C   C12       1.0  0.2499994001377459  0.9629692152894265  0.9760829007748413  1.0000
  C   C13       1.0  0.7499968948038003  0.9410360228514847  0.9524682163544753  1.0000
  C   C14       1.0  0.2499980945283085  0.558959134427127  0.45247498683517756  1.0000
  C   C15       1.0  0.7499955891943701  0.4410440766669411  0.5475287745429895  1.0000
  C   C16       1.0  0.2499954833094407  0.05896235856133811  0.0475242608891904  1.0000
  C   C17       1.0  0.7499982004132377  0.23940729943090133  0.0528940043631962  1.0000
  C   C18       1.0  0.2499980945283085  0.2605878665411367  0.5528902429850291  1.0000
  C   C19       1.0  0.7499968948038003  0.7394153445529384  0.4471082524636998  1.0000
  C   C20       1.0  0.2499994001377459  0.7605862523006766  0.9471112615662349  1.0000
  O   O1        1.0  0.750002117241543  0.8486643442616357  0.9919559166478606  1.0000
  O   O2        1.0  0.2500007057471834  0.6513324229107271  0.4919664485067301  1.0000
  O   O3        1.0  0.7499916723660647  0.34867159313022006  0.5080380651470691  1.0000
  O   O4        1.0  0.2499915664811354  0.1513324272574437  0.0080350560445339  1.0000
  O   O5        1.0  0.6033142860505833  0.3860227380034403  0.9705198224629471  1.0000
  O   O6        1.0  0.3966846201098377  0.11398369722484601  0.4705047769502713  1.0000
  O   O7        1.0  0.8966873372136277  0.8860251484973463  0.529482434363949  1.0000
  O   O8        1.0  0.1033220138222646  0.6139692038343939  0.0294839389152202  1.0000
  O   O9        1.0  0.3966754808437898  0.6139764483562616  0.0294884525690193  1.0000
  O   O10       1.0  0.6033312589732276  0.8860436622754619  0.5294719025050796  1.0000
  O   O11       1.0  0.1033259306505698  0.11398208733109531  0.47050402467463925  1.0000
  O   O12       1.0  0.8966742811192816  0.3860227380034403  0.970518317911683  1.0000
  O   O13       1.0  0.750002117241543  0.9574174966956053  0.8564966523734299  1.0000
  O   O14       1.0  0.2499994001377459  0.542587319945504  0.3565034228541322  1.0000
  O   O15       1.0  0.7500034228509733  0.4574183059891937  0.6435025953509381  1.0000
  O   O16       1.0  0.2499994001377459  0.0425841045047193  0.1434950725945967  1.0000
  O   O17       1.0  0.7500008116321055  0.5913228284655858  0.1645663130971187  1.0000
  O   O18       1.0  0.2500007057471834  0.9086803782817726  0.6645617994433195  1.0000
  O   O19       1.0  0.7499982004132377  0.0913252476529252  0.3354329346272493  1.0000
  O   O20       1.0  0.2499980945283085  0.4086715282128637  0.8354351914541454  1.0000
  O   O21       1.0  0.9469702733665883  0.5152295905199153  0.8114947716843446  1.0000
  O   O22       1.0  0.0530247159655204  0.9847671766524471  0.3114887534792743  1.0000
  O   O23       1.0  0.55302612745988  0.015232009707254702  0.6885067328669193  1.0000
  O   O24       1.0  0.4469714730910966  0.4847687908929076  0.1885112465207257  1.0000
  O   O25       1.0  0.0530273271843953  0.4847695958397864  0.1885112465207257  1.0000
  O   O26       1.0  0.9469715789760258  0.015232814654126504  0.6885082374181906  1.0000
  O   O27       1.0  0.4469714730910966  0.9847703964399415  0.3114887534792743  1.0000
  O   O28       1.0  0.5530235162410122  0.5152247608386702  0.8114955239599766  1.0000
  O   O29       1.0  0.7499799218811489  0.7546481592070649  0.787599488452571  1.0000
  O   O30       1.0  0.2499980945283085  0.7453461931246751  0.2876040021063702  1.0000
  O   O31       1.0  0.7499916723660647  0.2546537981818986  0.712400511547429  1.0000
  O   O32       1.0  0.2499994001377459  0.24534619747139175  0.2123952456179978  1.0000
