data_image0
_chemical_formula_structural       Zn8H84C72N4O36
_chemical_formula_sum              "Zn8 H84 C72 N4 O36"
_cell_length_a       10.29577602302012
_cell_length_b       13.713610637020007
_cell_length_c       18.058405578035398
_cell_angle_alpha    89.99985749943822
_cell_angle_beta     90.00018086271469
_cell_angle_gamma    89.9998676468965

_space_group_name_H-M_alt    "P 1"
_space_group_IT_number       1

loop_
  _space_group_symop_operation_xyz
  'x, y, z'

loop_
  _atom_site_type_symbol
  _atom_site_label
  _atom_site_symmetry_multiplicity
  _atom_site_fract_x
  _atom_site_fract_y
  _atom_site_fract_z
  _atom_site_occupancy
  Zn  Zn1       1.0  0.4405003945175637  0.5290171846781178  0.4108556489179095  1.0000
  Zn  Zn2       1.0  0.059501921296856594  0.4709860553473533  0.9108535442546498  1.0000
  Zn  Zn3       1.0  0.5594966381294881  0.029015063218451997  0.08914400775258711  1.0000
  Zn  Zn4       1.0  0.9404994387941416  0.9709839440124879  0.5891477149881794  1.0000
  Zn  Zn5       1.0  0.25149770364691193  0.36451665446496406  0.3426054257129465  1.0000
  Zn  Zn6       1.0  0.24850326564647668  0.6354816986236286  0.8426016831925767  1.0000
  Zn  Zn7       1.0  0.7485022003410011  0.8645168522142935  0.1573980102203265  1.0000
  Zn  Zn8       1.0  0.7514991081973079  0.13548558354321466  0.6573969043099057  1.0000
  H   H1        1.0  0.6194154677730809  0.23724732196469492  0.2335979199208822  1.0000
  H   H2        1.0  0.880576547004857  0.7627563293963815  0.7335974924240318  1.0000
  H   H3        1.0  0.38058093568684365  0.737241988274256  0.2664024403413166  1.0000
  H   H4        1.0  0.1194167008282534  0.2627580660303933  0.7664052782527409  1.0000
  H   H5        1.0  0.538377673144268  0.16056507867130418  0.2980521161698634  1.0000
  H   H6        1.0  0.9616176098279753  0.8394412841149261  0.7980522405417646  1.0000
  H   H7        1.0  0.46162090456383004  0.6605598072968418  0.20194783908501532  1.0000
  H   H8        1.0  0.0383773488374928  0.3394397231895495  0.7019492738674913  1.0000
  H   H9        1.0  0.7734950929342402  0.3697213380807796  0.2820363159434081  1.0000
  H   H10       1.0  0.7265078721551246  0.6302792421182488  0.7820325436544665  1.0000
  H   H11       1.0  0.22651159424984263  0.8697186183356604  0.21797209373141166  1.0000
  H   H12       1.0  0.2734925748784533  0.1302808610904407  0.7179699302514849  1.0000
  H   H13       1.0  0.7994360740081703  0.38184415468059985  0.37811900744386423  1.0000
  H   H14       1.0  0.7005606204602727  0.6181546609534507  0.878115765414698  1.0000
  H   H15       1.0  0.20056280635034798  0.8818483497306174  0.12188660990740632  1.0000
  H   H16       1.0  0.29943306429747446  0.11815799869831516  0.6218850707266983  1.0000
  H   H17       1.0  0.6814201332493895  0.2703133115431982  0.46898749609753315  1.0000
  H   H18       1.0  0.8185848310129984  0.72968448532869  0.9689859128758019  1.0000
  H   H19       1.0  0.3185800553739284  0.7703197754090777  0.0310150150496611  1.0000
  H   H20       1.0  0.18142114329817358  0.2296817581495176  0.5310180294876405  1.0000
  H   H21       1.0  0.5731583037405626  0.1801614187796119  0.4353959262406165  1.0000
  H   H22       1.0  0.9268377343764339  0.819840131150549  0.9353949180831694  1.0000
  H   H23       1.0  0.42683730092610267  0.6801632092753138  0.0646034372326554  1.0000
  H   H24       1.0  0.07316019732506619  0.3198396756664366  0.564604419315387  1.0000
  H   H25       1.0  0.9525134762383018  0.1309693536126915  0.2631241873224113  1.0000
  H   H26       1.0  0.5474757870563279  0.8690298284592471  0.763118519947156  1.0000
  H   H27       1.0  0.0474793632657722  0.6309683480699135  0.23687859412713422  1.0000
  H   H28       1.0  0.4525132545582906  0.36903252951968557  0.7368807220212761  1.0000
  H   H29       1.0  0.8624150908389083  0.22036245424295228  0.21346348853444402  1.0000
  H   H30       1.0  0.6375836121290063  0.7796412612769  0.7134587116074088  1.0000
  H   H31       1.0  0.1375842774631479  0.7203582145816299  0.2865396732766499  1.0000
  H   H32       1.0  0.3624163835792444  0.27964323396167146  0.7865407037691057  1.0000
  H   H33       1.0  0.834941407471092  0.0196353942306544  0.35433434533266  1.0000
  H   H34       1.0  0.6650444722554595  0.9803605803806618  0.8543380889563468  1.0000
  H   H35       1.0  0.16504788332426298  0.5196395761985428  0.14566034569496372  1.0000
  H   H36       1.0  0.3349461755121864  0.4803630504562193  0.6456642596049563  1.0000
  H   H37       1.0  0.6649377281374456  0.03017979314728339  0.36700085858360865  1.0000
  H   H38       1.0  0.835049192490679  0.9698205163209149  0.8670021619504241  1.0000
  H   H39       1.0  0.33505541589174465  0.5301815277394154  0.13299491951317324  1.0000
  H   H40       1.0  0.16494245839203356  0.4698204100705039  0.6329968845076195  1.0000
  H   H41       1.0  0.9248781984673611  0.25279622435242993  0.44913160638816413  1.0000
  H   H42       1.0  0.5751179151745588  0.747192885374531  0.9491251179147185  1.0000
  H   H43       1.0  0.0751162154570508  0.7528074299630841  0.050874815040359116  1.0000
  H   H44       1.0  0.42488120730329365  0.24719841553709898  0.5508743604014655  1.0000
  H   H45       1.0  0.9867735105807539  0.14908832784433906  0.40169014390340874  1.0000
  H   H46       1.0  0.5132223422240827  0.8509053082624262  0.9016877721523716  1.0000
  H   H47       1.0  0.0132221879658374  0.6490987623607436  0.09830983359641723  1.0000
  H   H48       1.0  0.4867764668811744  0.3509083903872038  0.5983131662590254  1.0000
  H   H49       1.0  0.7624891882730863  0.6780573325009341  0.29853026487587914  1.0000
  H   H50       1.0  0.7375158100661707  0.32193881991631196  0.7985309869648989  1.0000
  H   H51       1.0  0.23751516418433027  0.17806563039207646  0.20146688764557305  1.0000
  H   H52       1.0  0.2624995981927327  0.8219346308174449  0.7014666851058068  1.0000
  H   H53       1.0  0.5947670376416667  0.648454053035934  0.2929665275070334  1.0000
  H   H54       1.0  0.9052369588217742  0.35154430472434217  0.7929636198081129  1.0000
  H   H55       1.0  0.4052364330076443  0.14846130789288733  0.20703511250953005  1.0000
  H   H56       1.0  0.09477835999376788  0.8515382063663492  0.7070378711463549  1.0000
  H   H57       1.0  0.7049755698010783  0.5613703415268674  0.3285922268986354  1.0000
  H   H58       1.0  0.7950295938161104  0.43862790270923563  0.8285911655860972  1.0000
  H   H59       1.0  0.2950271927000117  0.06137790447262858  0.17140570573223363  1.0000
  H   H60       1.0  0.20498254803946026  0.9386217233256815  0.67140683388687  1.0000
  H   H61       1.0  0.8779716185624976  0.8448460583247053  0.43389099524470254  1.0000
  H   H62       1.0  0.6220399516485953  0.1551540379746967  0.9338946003883352  1.0000
  H   H63       1.0  0.12203028738217368  0.34484551178507417  0.06610306494980732  1.0000
  H   H64       1.0  0.37796819038310037  0.6551522639656964  0.5661000726529155  1.0000
  H   H65       1.0  0.7967808250145225  0.8312021580889705  0.34776428362366835  1.0000
  H   H66       1.0  0.7032312429322404  0.1687938374363185  0.8477669019240326  1.0000
  H   H67       1.0  0.20322015088002834  0.33120483978861875  0.15222980303352784  1.0000
  H   H68       1.0  0.29678462806130307  0.6687933907165655  0.6522282984229621  1.0000
  H   H69       1.0  0.9098002088080505  0.740537339149483  0.3778485252796601  1.0000
  H   H70       1.0  0.5902100819907616  0.25946001892588544  0.8778474403342644  1.0000
  H   H71       1.0  0.09020006977373637  0.24053667022440806  0.1221451834945597  1.0000
  H   H72       1.0  0.40980162993830044  0.759460197744687  0.6221420465451217  1.0000
  H   H73       1.0  0.7987375674133191  0.7837876409866025  0.5401024636186307  1.0000
  H   H74       1.0  0.7012776653049073  0.2162122517034035  0.0401036340069325  1.0000
  H   H75       1.0  0.2012721284724392  0.283792262585969  0.959893067409674  1.0000
  H   H76       1.0  0.29871297407740366  0.7162013415638667  0.4598917832309368  1.0000
  H   H77       1.0  0.6545941026550609  0.7107595881108818  0.5413644200171888  1.0000
  H   H78       1.0  0.8454211369925629  0.28924248816895204  0.04136349492858221  1.0000
  H   H79       1.0  0.3454138713538838  0.21076395926018418  0.9586323601883393  1.0000
  H   H80       1.0  0.15457316680955557  0.789233294914183  0.45863344192189004  1.0000
  H   H81       1.0  0.6464157306672006  0.8363013371604706  0.5154522579126637  1.0000
  H   H82       1.0  0.8536022803276494  0.16370082168482006  0.015451591175590798  1.0000
  H   H83       1.0  0.35359380655703626  0.33630269448772043  0.9845470475629271  1.0000
  H   H84       1.0  0.14639240282621563  0.6636944771062471  0.48455112678775  1.0000
  C   C1        1.0  0.5369692142276606  0.34073708646878487  0.3554656467699147  1.0000
  C   C2        1.0  0.9630273556905705  0.6592661765599317  0.855465569440405  1.0000
  C   C3        1.0  0.46302590525063175  0.8407327247595686  0.14453451273898577  1.0000
  C   C4        1.0  0.036968147384676804  0.15927136389290544  0.6445351869520339  1.0000
  C   C5        1.0  0.7128452826887893  0.05559561071112279  0.22026588523274884  1.0000
  C   C6        1.0  0.7871466587957767  0.9443964158964063  0.7202621672659364  1.0000
  C   C7        1.0  0.2871506983708302  0.5555998791117247  0.27973538114954993  1.0000
  C   C8        1.0  0.21285283907474908  0.4444037787175645  0.7797369285100687  1.0000
  C   C9        1.0  0.0227709183834364  0.3108497684684295  0.32189026339891313  1.0000
  C   C10       1.0  0.4772309082896413  0.689145004616094  0.8218857237671103  1.0000
  C   C11       1.0  0.9772369179393652  0.8108553300260792  0.1781149379165043  1.0000
  C   C12       1.0  0.5227674183279732  0.18914631050875388  0.678116082189682  1.0000
  C   C13       1.0  0.7936218231826189  0.09161187724315309  0.49333931187730695  1.0000
  C   C14       1.0  0.7063716197160445  0.9083807376228916  0.9933388399429716  1.0000
  C   C15       1.0  0.20637307776620872  0.5916222628065883  0.0066613308743797015  1.0000
  C   C16       1.0  0.2936163317285576  0.4083844527846026  0.5066630944836562  1.0000
  C   C17       1.0  0.6538784073908418  0.27335211394489517  0.3490942699465194  1.0000
  C   C18       1.0  0.8461181274907332  0.7266482525816468  0.849090527486368  1.0000
  C   C19       1.0  0.346117886972749  0.7733493967270132  0.15090712779384324  1.0000
  C   C20       1.0  0.1538781432574723  0.22665029639854584  0.6509100982009244  1.0000
  C   C21       1.0  0.7427653843255013  0.12642803403404196  0.2826894056306983  1.0000
  C   C22       1.0  0.7572298141847539  0.873573273288727  0.7826885396313588  1.0000
  C   C23       1.0  0.2572352390640802  0.6264289081530521  0.21730950832218812  1.0000
  C   C24       1.0  0.24276698387959064  0.37357494859610785  0.717310693531644  1.0000
  C   C25       1.0  0.8943119322184854  0.25619525463510223  0.3297744156118228  1.0000
  C   C26       1.0  0.6056874102494589  0.7438051734544828  0.8297685428756979  1.0000
  C   C27       1.0  0.1056892703545671  0.7561958171150989  0.17023144548092975  1.0000
  C   C28       1.0  0.3943146362960944  0.24380381443005208  0.6702326032975848  1.0000
  C   C29       1.0  0.77733816362084  0.14502390874973506  0.4198211268843509  1.0000
  C   C30       1.0  0.722659731420137  0.8549703987807288  0.9198207880717179  1.0000
  C   C31       1.0  0.2226546334007651  0.6450296560883472  0.0801799660191094  1.0000
  C   C32       1.0  0.27733809413704347  0.35497172081699796  0.5801818037311932  1.0000
  C   C33       1.0  0.6296577359437021  0.19945557592066618  0.2869897227216427  1.0000
  C   C34       1.0  0.8703365149303579  0.8005486345124452  0.786987542079615  1.0000
  C   C35       1.0  0.37034169551757395  0.6994533472524861  0.21300960333186947  1.0000
  C   C36       1.0  0.1296585612505652  0.30054760638625316  0.7130129402563627  1.0000
  C   C37       1.0  0.7806108380078882  0.32848557307619314  0.3341876996639428  1.0000
  C   C38       1.0  0.7193875574543682  0.6715155701525571  0.8341827269676261  1.0000
  C   C39       1.0  0.21938820358644054  0.8284859488932736  0.1658180211970546  1.0000
  C   C40       1.0  0.2806117937019508  0.17151588432900408  0.6658174519127017  1.0000
  C   C41       1.0  0.6648210470936746  0.2182775036281298  0.4236701309143882  1.0000
  C   C42       1.0  0.8351797829159935  0.7817160624389599  0.9236657080407227  1.0000
  C   C43       1.0  0.3351763849523762  0.7182830645846606  0.0763341424473651  1.0000
  C   C44       1.0  0.1648202065277786  0.28171686616860814  0.5763348108296711  1.0000
  C   C45       1.0  0.8706701370477604  0.18219589972718347  0.2669239559823922  1.0000
  C   C46       1.0  0.6293278885860686  0.8178047286339021  0.7669185363028178  1.0000
  C   C47       1.0  0.12933323166857494  0.6821933033891694  0.23308038738434791  1.0000
  C   C48       1.0  0.3706700492582939  0.317806127894137  0.7330791437660198  1.0000
  C   C49       1.0  0.7544374468605142  0.0719127224057132  0.35665779337435316  1.0000
  C   C50       1.0  0.7455513594422741  0.9280854324137735  0.8566573542288227  1.0000
  C   C51       1.0  0.24555557107755988  0.5719145820367969  0.1433417800791545  1.0000
  C   C52       1.0  0.2544423600969096  0.4280865936001702  0.6433439882232577  1.0000
  C   C53       1.0  0.905096255229452  0.20047894638331334  0.4042378640334975  1.0000
  C   C54       1.0  0.594901554119545  0.799518327617676  0.9042346324696456  1.0000
  C   C55       1.0  0.0949012305952337  0.7004848696020076  0.09576589009514443  1.0000
  C   C56       1.0  0.4050993528070989  0.29951937444379684  0.5957669593856992  1.0000
  C   C57       1.0  0.6546122346941132  0.6734217195341755  0.40366736060681063  1.0000
  C   C58       1.0  0.8453972267846553  0.32657920228326986  0.9036666079247198  1.0000
  C   C59       1.0  0.3453931030533184  0.17342286996905187  0.0963298009147096  1.0000
  C   C60       1.0  0.1546162249092404  0.8265755386504807  0.596331608900954  1.0000
  C   C61       1.0  0.6831150240473746  0.6398318307171066  0.32638927870449663  1.0000
  C   C62       1.0  0.8168910987302312  0.3601664205374746  0.8263884092100966  1.0000
  C   C63       1.0  0.31688847264974385  0.13983861884503307  0.17361016300309734  1.0000
  C   C64       1.0  0.18312225147655428  0.8601610019313238  0.6736091887053918  1.0000
  C   C65       1.0  0.8343721616116752  0.791759481339227  0.3961135856799487  1.0000
  C   C66       1.0  0.6656382296158795  0.20823854773453118  0.8961143980648392  1.0000
  C   C67       1.0  0.16562990473592978  0.2917623834650839  0.10388057748959771  1.0000
  C   C68       1.0  0.33436975201204416  0.7082360011079631  0.6038790644852982  1.0000
  C   C69       1.0  0.7056954739347246  0.7696339450449015  0.5127096092268602  1.0000
  C   C70       1.0  0.7943196081681662  0.23036822254007205  0.012710367012246603  1.0000
  C   C71       1.0  0.2943113509061135  0.269636856697808  0.9872865030148293  1.0000
  C   C72       1.0  0.2056777873482147  0.7303610353705065  0.4872883453206072  1.0000
  N   N1        1.0  0.7298556997558164  0.7408567962124621  0.4359038749307942  1.0000
  N   N2        1.0  0.7701578240527241  0.2591425644773863  0.9359020091895761  1.0000
  N   N3        1.0  0.27014943422171467  0.2408618282159694  0.06409315577507613  1.0000
  N   N4        1.0  0.22984708995414851  0.7591374123416159  0.5640930158920698  1.0000
  O   O1        1.0  0.5586712208888329  0.43069584801150995  0.36956759936933997  1.0000
  O   O2        1.0  0.9413225127551782  0.5693029948686926  0.869567657216031  1.0000
  O   O3        1.0  0.44133139693008167  0.930691569552046  0.13042740181404613  1.0000
  O   O4        1.0  0.0586664632492813  0.0693103764321066  0.6304338274392052  1.0000
  O   O5        1.0  0.4262325794732718  0.30126910701129356  0.3482971777629019  1.0000
  O   O6        1.0  0.0737674498462439  0.698732873948856  0.8482968722007769  1.0000
  O   O7        1.0  0.5737743145093431  0.8012659853698947  0.15169696696992221  1.0000
  O   O8        1.0  0.9262269627093287  0.19873792694276907  0.6517060226676108  1.0000
  O   O9        1.0  0.682192677256019  0.09268152200210975  0.15726468912968272  1.0000
  O   O10       1.0  0.8177950327349776  0.9073216433969834  0.6572622061551956  1.0000
  O   O11       1.0  0.31781096191453173  0.5926826187265274  0.3427326290115431  1.0000
  O   O12       1.0  0.18220846226305548  0.40732156754718557  0.8427375153086631  1.0000
  O   O13       1.0  0.716049145217262  0.9650934799409469  0.23433601570313564  1.0000
  O   O14       1.0  0.7839380172530497  0.034910898277495085  0.7343340561731966  1.0000
  O   O15       1.0  0.28394462724136094  0.46508836564651557  0.2656677788878525  1.0000
  O   O16       1.0  0.2160510626772448  0.5349146078160416  0.7656674952000699  1.0000
  O   O17       1.0  0.12701954115476607  0.2594015374928346  0.3102481839165422  1.0000
  O   O18       1.0  0.3729783364173258  0.740593272693651  0.8102428017996602  1.0000
  O   O19       1.0  0.8729806804492597  0.7594108920096542  0.18975933222342437  1.0000
  O   O20       1.0  0.6270208060051273  0.2405958158480388  0.6897561355627317  1.0000
  O   O21       1.0  0.028289580820057805  0.40127378004483194  0.3331586173876673  1.0000
  O   O22       1.0  0.47171036527030435  0.5987253323431359  0.833158673224837  1.0000
  O   O23       1.0  0.971714097195246  0.9012793872500493  0.16684973107038562  1.0000
  O   O24       1.0  0.528282406938274  0.09872301840078988  0.666844415645528  1.0000
  O   O25       1.0  0.8760304858468048  0.021147500518971196  0.4946490943237338  1.0000
  O   O26       1.0  0.6239619929974011  0.978842922559174  0.9946533201878368  1.0000
  O   O27       1.0  0.12397336945709007  0.5211573065365727  0.005347255054658702  1.0000
  O   O28       1.0  0.37603351572149524  0.4788421212008273  0.5053490313250252  1.0000
  O   O29       1.0  0.728015412774468  0.12099287751276926  0.54809433482788  1.0000
  O   O30       1.0  0.7719882086227444  0.879002614508117  0.04809434767432211  1.0000
  O   O31       1.0  0.2719840910241516  0.6209995408893433  0.9519026194987323  1.0000
  O   O32       1.0  0.2280087377688673  0.37900356834038723  0.451906291361702  1.0000
  O   O33       1.0  0.5592781473200289  0.6375741477169327  0.4401085106893135  1.0000
  O   O34       1.0  0.9407344283330374  0.36242519957652036  0.9401061999649869  1.0000
  O   O35       1.0  0.44072827002157317  0.13758180878172507  0.05989370419329279  1.0000
  O   O36       1.0  0.05927114487712261  0.8624232787725034  0.5598952698696564  1.0000
