data_image0
_chemical_formula_structural       Cd2H22C28N2O12
_chemical_formula_sum              "Cd2 H22 C28 N2 O12"
_cell_length_a       7.03522726884667
_cell_length_b       9.277992838915644
_cell_length_c       12.10312287864272
_cell_angle_alpha    74.62308083544144
_cell_angle_beta     80.49026584949554
_cell_angle_gamma    72.12659437958855

_space_group_name_H-M_alt    "P 1"
_space_group_IT_number       1

loop_
  _space_group_symop_operation_xyz
  'x, y, z'

loop_
  _atom_site_type_symbol
  _atom_site_label
  _atom_site_symmetry_multiplicity
  _atom_site_fract_x
  _atom_site_fract_y
  _atom_site_fract_z
  _atom_site_occupancy
  Cd  Cd1       1.0  0.6027601934526602  0.5974151254580065  0.8531542971912316  1.0000
  Cd  Cd2       1.0  0.3972448486713205  0.4025803165213234  0.14684958618263266  1.0000
  H   H1        1.0  0.5914537928794276  0.24046545255364293  0.9657435357721056  1.0000
  H   H2        1.0  0.40854260275185805  0.7595381697935937  0.03426111461684661  1.0000
  H   H3        1.0  0.24667295800367853  0.4551961009836916  0.9251206014091125  1.0000
  H   H4        1.0  0.7533306069776842  0.5448027654095638  0.07488852918077527  1.0000
  H   H5        1.0  0.1741301912304253  0.6231576392922022  0.9509303928566833  1.0000
  H   H6        1.0  0.8258672027053181  0.37684370320506844  0.04907048218479563  1.0000
  H   H7        1.0  0.8055443612113393  0.04174373365557219  0.05549768530015341  1.0000
  H   H8        1.0  0.19445707074756768  0.9582634230236593  0.9444968000582817  1.0000
  H   H9        1.0  0.6033940214597564  0.9548536137859147  0.0935634969059862  1.0000
  H   H10       1.0  0.39660943033683793  0.0451464806727842  0.9064396210590573  1.0000
  H   H11       1.0  0.8150693434333153  0.8062590062456181  0.2615974729008599  1.0000
  H   H12       1.0  0.18494542859458823  0.19373875485425165  0.7383969359602459  1.0000
  H   H13       1.0  0.8641412720788754  0.8019211030269774  0.4598665435984728  1.0000
  H   H14       1.0  0.13585617636067585  0.19807216328563015  0.5401325660968084  1.0000
  H   H15       1.0  0.5417760207736394  0.291415926127236  0.393978587379344  1.0000
  H   H16       1.0  0.45823326769023254  0.7085760350618957  0.6060223219797436  1.0000
  H   H17       1.0  0.8440284491016853  0.800933746011161  0.6246965687448451  1.0000
  H   H18       1.0  0.15596470719386707  0.19907233317558595  0.3752987728554444  1.0000
  H   H19       1.0  0.8241114745215729  0.0571984131012115  0.8731523429997096  1.0000
  H   H20       1.0  0.1758845145014618  0.9428029529452289  0.12684781124633565  1.0000
  H   H21       1.0  0.6482414260592649  0.3059030571276081  0.5368579207694637  1.0000
  H   H22       1.0  0.351730783932716  0.6940962252899965  0.4631445000349785  1.0000
  C   C1        1.0  0.651541028090037  0.05574773379593273  0.09756621420368108  1.0000
  C   C2        1.0  0.348464316157127  0.9442524484489142  0.9024276452322865  1.0000
  C   C3        1.0  0.6628733225908549  0.05150999948629932  0.22175801521211716  1.0000
  C   C4        1.0  0.3371408664405281  0.948493553663596  0.7782361576834019  1.0000
  C   C5        1.0  0.7580561199645148  0.9119537359994325  0.2941741624906059  1.0000
  C   C6        1.0  0.24195928471446154  0.08804166174897433  0.7058239555164149  1.0000
  C   C7        1.0  0.7845270670616177  0.9103519144912653  0.4054011254704619  1.0000
  C   C8        1.0  0.21547480828324692  0.08964474698419171  0.5946002933499485  1.0000
  C   C9        1.0  0.7132160225634295  0.047885385480732616  0.445911879074387  1.0000
  C   C10       1.0  0.2867887032350112  0.9521112381743249  0.5540901497265197  1.0000
  C   C11       1.0  0.6112221255290821  0.18069323913939433  0.36946296845083987  1.0000
  C   C12       1.0  0.38878605144555684  0.8193022299651389  0.6305357036308834  1.0000
  C   C13       1.0  0.740821099611381  0.052634618099176605  0.5633080642235271  1.0000
  C   C14       1.0  0.2591714611375053  0.9473632364558143  0.43669881779658226  1.0000
  C   C15       1.0  0.8107967423388875  0.9140552639065973  0.645133957977272  1.0000
  C   C16       1.0  0.18919947272697615  0.08594148248759131  0.354865409271774  1.0000
  C   C17       1.0  0.8410812221575412  0.9153154814051092  0.755863343788597  1.0000
  C   C18       1.0  0.15891107159366413  0.08468482000283468  0.24413234459221658  1.0000
  C   C19       1.0  0.7971028721440521  0.05680301442890111  0.7874483654838754  1.0000
  C   C20       1.0  0.20288927682064198  0.9432019251871752  0.21254644667317985  1.0000
  C   C21       1.0  0.7248721230934339  0.196336781486643  0.7082937002672763  1.0000
  C   C22       1.0  0.2751207894331955  0.8036692420324486  0.29170663099527155  1.0000
  C   C23       1.0  0.6994715634328873  0.19412039655330907  0.5965973663906325  1.0000
  C   C24       1.0  0.3005120254713563  0.8058834006246797  0.4034041232809074  1.0000
  C   C25       1.0  0.6822243797328158  0.3477981859815103  0.7420930590545821  1.0000
  C   C26       1.0  0.3177814843073606  0.6522030244986824  0.2579113091491364  1.0000
  C   C27       1.0  0.927495640605898  0.7654282933670444  0.8391289391913828  1.0000
  C   C28       1.0  0.07250090851160002  0.2345719466713305  0.16086807996536118  1.0000
  N   N1        1.0  0.5885587438851517  0.1821514910938191  0.26087749089511897  1.0000
  N   N2        1.0  0.4114535346428667  0.8178451354286553  0.7391173309480761  1.0000
  O   O1        1.0  0.5200683956463552  0.19564310224806286  0.0400841250478834  1.0000
  O   O2        1.0  0.47993172685850305  0.8043581745949807  0.9599198548052212  1.0000
  O   O3        1.0  0.29556543973237137  0.5237346186853387  0.9550530563373769  1.0000
  O   O4        1.0  0.7044320038579317  0.4762701525105085  0.04495129188443057  1.0000
  O   O5        1.0  0.6846775051986782  0.3405971162553243  0.850619732871287  1.0000
  O   O6        1.0  0.31533302566528937  0.6593947842728626  0.1493852237247424  1.0000
  O   O7        1.0  0.648469707380855  0.4746342338014742  0.6685061948446459  1.0000
  O   O8        1.0  0.3515472827762595  0.5253680163508108  0.3314979270977219  1.0000
  O   O9        1.0  0.014068294723706735  0.7737839057344047  0.9205972807544213  1.0000
  O   O10       1.0  0.9859211982284749  0.22621986219251505  0.07940127082622439  1.0000
  O   O11       1.0  0.9158711690461915  0.6384468009135915  0.8215590676426103  1.0000
  O   O12       1.0  0.08412811734012143  0.36155462936982724  0.178432548869786  1.0000
