data_image0
_chemical_formula_structural       Cu2H28C30N12O4
_chemical_formula_sum              "Cu2 H28 C30 N12 O4"
_cell_length_a       8.55780750012879
_cell_length_b       8.51590263991486
_cell_length_c       11.701509858724915
_cell_angle_alpha    77.20735873741222
_cell_angle_beta     75.34448637352573
_cell_angle_gamma    74.72340042666528

_space_group_name_H-M_alt    "P 1"
_space_group_IT_number       1

loop_
  _space_group_symop_operation_xyz
  'x, y, z'

loop_
  _atom_site_type_symbol
  _atom_site_label
  _atom_site_symmetry_multiplicity
  _atom_site_fract_x
  _atom_site_fract_y
  _atom_site_fract_z
  _atom_site_occupancy
  Cu  Cu1       1.0  4.0620732165090734e-06  6.411142244607054e-06  0.9999945427092528  1.0000
  Cu  Cu2       1.0  0.9999964133690824  0.999995422035177  0.49999654987582437  1.0000
  H   H1        1.0  0.6617994926455067  0.9467741920820957  0.07070598187123522  1.0000
  H   H2        1.0  0.33820755044130385  0.0532347085739815  0.9292895432902528  1.0000
  H   H3        1.0  0.3758359996450551  0.10771608752870071  0.14796992204241385  1.0000
  H   H4        1.0  0.6241844515949563  0.8922781773167686  0.852042708105252  1.0000
  H   H5        1.0  0.5925512342823965  0.5232234232056427  0.11298467528830265  1.0000
  H   H6        1.0  0.407445410014148  0.47678874453368547  0.8870175008347447  1.0000
  H   H7        1.0  0.8683097962881092  0.3458769693194768  0.04182226323879956  1.0000
  H   H8        1.0  0.13168119129725409  0.6541405931288864  0.9581689404659387  1.0000
  H   H9        1.0  0.20098763749976464  0.3924247781670401  0.1510162009106679  1.0000
  H   H10       1.0  0.7990108009041136  0.6075919961014477  0.8490009949384503  1.0000
  H   H11       1.0  0.2874145696910587  0.558750868138283  0.15532274602055912  1.0000
  H   H12       1.0  0.7125904294273087  0.4412619576582203  0.8446793045400087  1.0000
  H   H13       1.0  0.10638319915604914  0.45819540337858194  0.3461647964060789  1.0000
  H   H14       1.0  0.8936144822452621  0.5418148142836898  0.6538486528001501  1.0000
  H   H15       1.0  0.2455085723884096  0.2660123801016709  0.3586445557009413  1.0000
  H   H16       1.0  0.7544800212341155  0.7339942410673147  0.6413611670718496  1.0000
  H   H17       1.0  0.2476990471688438  0.48517060731861505  0.47893173978407333  1.0000
  H   H18       1.0  0.7522965533959008  0.5147737061800371  0.521112465778117  1.0000
  H   H19       1.0  0.3472306017745693  0.5920685592252044  0.34397410312774207  1.0000
  H   H20       1.0  0.6527299802638707  0.4079492886765054  0.6560780238475062  1.0000
  H   H21       1.0  0.3780859373381277  0.1793511627698408  0.547269675874894  1.0000
  H   H22       1.0  0.6219108339762157  0.8206218782442393  0.4527064571472366  1.0000
  H   H23       1.0  0.6472102303579419  0.004677639115982407  0.5904241139691281  1.0000
  H   H24       1.0  0.3527928878957454  0.995291033409373  0.4095382894645354  1.0000
  H   H25       1.0  0.9099367719111909  0.3250375656048092  0.34725553990246283  1.0000
  H   H26       1.0  0.09005770466457362  0.6749568720158835  0.652750407721058  1.0000
  H   H27       1.0  0.6536721390997257  0.5174706500538165  0.3013714106727221  1.0000
  H   H28       1.0  0.34633228111101033  0.48254125575447665  0.6986394848697021  1.0000
  C   C1        1.0  0.9226072855733916  0.9667306556352814  0.761797670593218  1.0000
  C   C2        1.0  0.0773924389432352  0.0332649148856987  0.23819586880487262  1.0000
  C   C3        1.0  0.004671937231684407  0.1055885154860263  0.7467809500473734  1.0000
  C   C4        1.0  0.995311811061768  0.8944220777099048  0.25320644573513107  1.0000
  C   C5        1.0  0.6398093487661709  0.0744708595600017  0.0832119041026615  1.0000
  C   C6        1.0  0.3602023660250425  0.9255310964158169  0.9167899540699411  1.0000
  C   C7        1.0  0.4828408549696518  0.16356769072160662  0.1266241963327346  1.0000
  C   C8        1.0  0.5171706602962872  0.8364375146712462  0.8733942003091075  1.0000
  C   C9        1.0  0.4608318333904862  0.3282688404639416  0.13999906509111784  1.0000
  C   C10       1.0  0.5391728397790915  0.6717327370828629  0.8600068737853876  1.0000
  C   C11       1.0  0.6018687057627332  0.39500506588509415  0.1072868377533638  1.0000
  C   C12       1.0  0.3981248846039592  0.6050147986499256  0.8927230737917854  1.0000
  C   C13       1.0  0.7558896411493025  0.2981883684721466  0.06611565194994283  1.0000
  C   C14       1.0  0.24410987849969962  0.7018247666505247  0.9338746334079888  1.0000
  C   C15       1.0  0.29212400442374076  0.4263471429906502  0.18725043562579913  1.0000
  C   C16       1.0  0.7078796855012045  0.5736546667891887  0.8127625041753961  1.0000
  C   C17       1.0  0.23808778351641996  0.39802955687198255  0.32456873435608463  1.0000
  C   C18       1.0  0.7619072982013008  0.60197656211173  0.6754425954689722  1.0000
  C   C19       1.0  0.3298011557824978  0.4690591017686432  0.39149354649704565  1.0000
  C   C20       1.0  0.6701932477474274  0.530933421138336  0.6085264612627628  1.0000
  C   C21       1.0  0.49160828376435717  0.3614624680042482  0.41607504068224443  1.0000
  C   C22       1.0  0.5083978780850771  0.6385325215835849  0.583922420219473  1.0000
  C   C23       1.0  0.49363705808969627  0.2148426999341027  0.4995224973311992  1.0000
  C   C24       1.0  0.5063693309108216  0.785136561017879  0.500462471925772  1.0000
  C   C25       1.0  0.6424742363701839  0.1167988962722077  0.5240439675377503  1.0000
  C   C26       1.0  0.35753429769700756  0.8831712360346631  0.47593115521287643  1.0000
  C   C27       1.0  0.7896897433926569  0.2963984622144338  0.38920263317868387  1.0000
  C   C28       1.0  0.21031523440719016  0.7035839260221621  0.610798290503361  1.0000
  C   C29       1.0  0.6446858831290568  0.40202813862840975  0.3625427885314495  1.0000
  C   C30       1.0  0.3553220968733157  0.5979750756586951  0.6374655867433034  1.0000
  N   N1        1.0  0.036111186975837525  0.14895302853628323  0.8413959543455508  1.0000
  N   N2        1.0  0.9639045382730771  0.8510445378330331  0.1585853765786141  1.0000
  N   N3        1.0  0.11046799353183451  0.2762792679731518  0.7984783867970577  1.0000
  N   N4        1.0  0.8895407381866676  0.7237251563073599  0.20149881412494608  1.0000
  N   N5        1.0  0.12296049648889353  0.30897954346207257  0.6802094664927198  1.0000
  N   N6        1.0  0.8770389474989811  0.691019172741747  0.31976985426054944  1.0000
  N   N7        1.0  0.057731940820453104  0.2034515197409306  0.6454786398977392  1.0000
  N   N8        1.0  0.9422624565139867  0.7965445963498468  0.35450819094361213  1.0000
  N   N9        1.0  0.7743553420773779  0.1405780881252241  0.05408167810498551  1.0000
  N   N10       1.0  0.2256441031901844  0.8594367110799013  0.9459177192618784  1.0000
  N   N11       1.0  0.7895237393879454  0.154842733120816  0.4682364580586481  1.0000
  N   N12       1.0  0.21048272484713956  0.8451455857495773  0.5317527835984421  1.0000
  O   O1        1.0  0.8857803126571964  0.888448874753351  0.8657452850419319  1.0000
  O   O2        1.0  0.11419502419028053  0.11158155826647234  0.1342501334677593  1.0000
  O   O3        1.0  0.8907279709937155  0.9342158003762792  0.6686421321243545  1.0000
  O   O4        1.0  0.10927016289171118  0.065780839607477  0.3313498219467235  1.0000
