data_image0
_chemical_formula_structural       Cu5H6C8N26
_chemical_formula_sum              "Cu5 H6 C8 N26"
_cell_length_a       8.896820258270552
_cell_length_b       8.893452864138506
_cell_length_c       9.084836273649953
_cell_angle_alpha    63.36528023525669
_cell_angle_beta     63.3185528512874
_cell_angle_gamma    77.80686999386239

_space_group_name_H-M_alt    "P 1"
_space_group_IT_number       1

loop_
  _space_group_symop_operation_xyz
  'x, y, z'

loop_
  _atom_site_type_symbol
  _atom_site_label
  _atom_site_symmetry_multiplicity
  _atom_site_fract_x
  _atom_site_fract_y
  _atom_site_fract_z
  _atom_site_occupancy
  Cu  Cu1       1.0  0.9999983648201227  0.9999981416643637  1.8668851920485997e-06  1.0000
  Cu  Cu2       1.0  0.5022122709105121  0.5022242040420224  0.7184670775555161  1.0000
  Cu  Cu3       1.0  0.4977883726404357  0.4977746322911615  0.2815339574887332  1.0000
  Cu  Cu4       1.0  0.20161127504112392  0.20156650932479894  0.1361288046937403  1.0000
  Cu  Cu5       1.0  0.798389345894826  0.798433584654056  0.863870587336045  1.0000
  H   H1        1.0  0.2008845128854091  0.20090735084886557  0.5702072566334166  1.0000
  H   H2        1.0  0.7991161300572998  0.7990914861608548  0.42979597985185325  1.0000
  H   H3        1.0  0.8349622451311519  0.38654444284775746  0.8071146688666386  1.0000
  H   H4        1.0  0.6136212113022097  0.16498905636112948  0.1926633425652752  1.0000
  H   H5        1.0  0.16503457877168873  0.6134568878471924  0.1928880505076975  1.0000
  H   H6        1.0  0.38638073622633584  0.8350072709807038  0.8073371202805503  1.0000
  C   C1        1.0  0.23771228291808916  0.2376924657679922  0.6478165107685995  1.0000
  C   C2        1.0  0.7622883374096219  0.7623076288873992  0.35218508270219906  1.0000
  C   C3        1.0  0.7925228938387293  0.2878803444780403  0.7963669442109803  1.0000
  C   C4        1.0  0.71224689366192  0.20742501983161082  0.20342239006756557  1.0000
  C   C5        1.0  0.2074764686537307  0.7121197428625551  0.20363520532565363  1.0000
  C   C6        1.0  0.2877550080283984  0.7925738234780939  0.7965769881903383  1.0000
  C   C7        1.0  0.6877587682996805  0.6877531015902605  0.8114572095763604  1.0000
  C   C8        1.0  0.31224297356506275  0.3122545469304684  0.1885361711828039  1.0000
  N   N1        1.0  0.17392260611678986  0.17387036363871286  0.8284620160559228  1.0000
  N   N2        1.0  0.8260767795989069  0.8261284653796751  0.17153957505416156  1.0000
  N   N3        1.0  0.25114910636520454  0.2510801052613374  0.8718472186192443  1.0000
  N   N4        1.0  0.7488515374898627  0.7489187307335785  0.1281527157044947  1.0000
  N   N5        1.0  0.35761068209754404  0.3575886048493331  0.7211054934602715  1.0000
  N   N6        1.0  0.6423899385342864  0.6424114894677828  0.27889499929002415  1.0000
  N   N7        1.0  0.35271708427296744  0.3527314544137569  0.5786500586190896  1.0000
  N   N8        1.0  0.6472847941941213  0.6472686472181622  0.4213498780653708  1.0000
  N   N9        1.0  0.6652026182754512  0.30435908418412794  0.74917296462133  1.0000
  N   N10       1.0  0.6956624138038806  0.33467089502897823  0.2508653585481894  1.0000
  N   N11       1.0  0.3347967216020181  0.6956422608021386  0.2508275419008326  1.0000
  N   N12       1.0  0.3043394875823253  0.6653279486190016  0.7491351204302318  1.0000
  N   N13       1.0  0.6504653587312604  0.15522658131971667  0.7513507033473844  1.0000
  N   N14       1.0  0.8447488385859219  0.3494012666135262  0.24869817908329128  1.0000
  N   N15       1.0  0.3495352392855722  0.8447747706430704  0.24864814638844032  1.0000
  N   N16       1.0  0.15525308571940144  0.6505963190505143  0.7513028421890837  1.0000
  N   N17       1.0  0.7659790939075393  0.053155830204062206  0.7995623494197303  1.0000
  N   N18       1.0  0.9469090366258187  0.23396888126966786  0.2002434129025374  1.0000
  N   N19       1.0  0.23402150410929323  0.9468455217587249  0.20043650031609422  1.0000
  N   N20       1.0  0.05309163045247801  0.7660286964030406  0.7997559629946525  1.0000
  N   N21       1.0  0.8565466628383904  0.13258375629791172  0.8297244294933606  1.0000
  N   N22       1.0  0.8675818387546316  0.14347194843735883  0.16988337959686814  1.0000
  N   N23       1.0  0.1434526770390718  0.8674175886883548  0.17027607702880224  1.0000
  N   N24       1.0  0.13241752465017953  0.8565281378884321  0.830115467778235  1.0000
  N   N25       1.0  0.616841976916213  0.6169485523682356  0.7784843475320923  1.0000
  N   N26       1.0  0.38315617540394004  0.3830490096600698  0.22151283833522925  1.0000
