data_image0
_chemical_formula_structural       Fe4Ni4H20C32I4N24O4
_chemical_formula_sum              "Fe4 Ni4 H20 C32 I4 N24 O4"
_cell_length_a       7.286346322117851
_cell_length_b       12.342796086573596
_cell_length_c       12.850041476292015
_cell_angle_alpha    89.98535536625273
_cell_angle_beta     90.05613155518675
_cell_angle_gamma    89.99404220469744

_space_group_name_H-M_alt    "P 1"
_space_group_IT_number       1

loop_
  _space_group_symop_operation_xyz
  'x, y, z'

loop_
  _atom_site_type_symbol
  _atom_site_label
  _atom_site_symmetry_multiplicity
  _atom_site_fract_x
  _atom_site_fract_y
  _atom_site_fract_z
  _atom_site_occupancy
  Fe  Fe1       1.0  0.2499325454595152  0.5412193643769925  0.1474985343739164  1.0000
  Fe  Fe2       1.0  0.7490341496039717  0.9599167333532391  0.6547873311433321  1.0000
  Fe  Fe3       1.0  0.7497663665009642  0.457914438654683  0.8324430720992453  1.0000
  Fe  Fe4       1.0  0.25103793812643005  0.04113229878289099  0.3531034951348673  1.0000
  Ni  Ni1       1.0  0.7502331167704952  0.8063968501557995  0.20980750317338698  1.0000
  Ni  Ni2       1.0  0.24921540560105632  0.694081018543251  0.7163194274435227  1.0000
  Ni  Ni3       1.0  0.24974330442076823  0.19796168090517344  0.7989436303060345  1.0000
  Ni  Ni4       1.0  0.7508982079399402  0.3065760567371569  0.2903737915831357  1.0000
  H   H1        1.0  0.24852539861895906  0.40664165198401037  0.3549566992412707  1.0000
  H   H2        1.0  0.7483854550131213  0.09153777858220738  0.8615849240082056  1.0000
  H   H3        1.0  0.749332766929527  0.5912317754507511  0.6399479262893735  1.0000
  H   H4        1.0  0.25129571480818674  0.9092670069207852  0.1434342370358195  1.0000
  H   H5        1.0  0.2488397827701618  0.7778078691808045  0.4825357257343724  1.0000
  H   H6        1.0  0.7493519180539678  0.7189212338147828  0.9851405767739864  1.0000
  H   H7        1.0  0.7516413460892791  0.21919811424184837  0.5156389551461515  1.0000
  H   H8        1.0  0.2521662929921931  0.28221555927560615  0.0207420767230744  1.0000
  H   H9        1.0  0.24978102460795526  0.7377517406107402  0.2916483769707625  1.0000
  H   H10       1.0  0.7486201582343099  0.7610781704424169  0.7950242592542267  1.0000
  H   H11       1.0  0.7506714062005032  0.2596822223881787  0.7051698329528193  1.0000
  H   H12       1.0  0.2521283171587285  0.23934970528301136  0.21099445059042668  1.0000
  H   H13       1.0  0.1449092957975608  0.516114855266835  0.9374385565335218  1.0000
  H   H14       1.0  0.8577758129512529  0.975705161760942  0.4476973444964401  1.0000
  H   H15       1.0  0.6430972552571178  0.47229027577166954  0.04990533914015321  1.0000
  H   H16       1.0  0.35490876991545417  0.020350202378367  0.562382249161999  1.0000
  H   H17       1.0  0.8549101119260527  0.4756490903373559  0.0505723521237655  1.0000
  H   H18       1.0  0.14248669338770267  0.026806872028465996  0.5615264418717345  1.0000
  H   H19       1.0  0.35700269253823075  0.5234549951081462  0.9376818616847659  1.0000
  H   H20       1.0  0.645225995066241  0.9809465898815048  0.4465739331189553  1.0000
  C   C1        1.0  0.24893104590510254  0.4898520538838581  0.3830487207108106  1.0000
  C   C2        1.0  0.7489375955139366  0.008095600665782897  0.8889864007004746  1.0000
  C   C3        1.0  0.749746821289193  0.5081509224763537  0.6122786789566348  1.0000
  C   C4        1.0  0.251165262402381  0.9928808736850385  0.1164507529791834  1.0000
  C   C5        1.0  0.24927270163327359  0.5135895481860119  0.4895517048658106  1.0000
  C   C6        1.0  0.7498728622137989  0.9833347136167914  0.9951987112159769  1.0000
  C   C7        1.0  0.7500012111576738  0.4834532891919067  0.5061214859734875  1.0000
  C   C8        1.0  0.25063201973912186  0.017991762913645497  0.0101708085233412  1.0000
  C   C9        1.0  0.24909566350221723  0.6944516174877718  0.454444677401753  1.0000
  C   C10       1.0  0.7493929176246467  0.8026274732851205  0.9580536272693649  1.0000
  C   C11       1.0  0.7509644517984742  0.3029555859930965  0.5425952185969294  1.0000
  C   C12       1.0  0.25163535756929173  0.1984736800803972  0.0478491310903308  1.0000
  C   C13       1.0  0.24945832608498364  0.6726641536713346  0.3484755192976081  1.0000
  C   C14       1.0  0.7488823088063014  0.8255834832835233  0.8524629593385811  1.0000
  C   C15       1.0  0.7505206388470569  0.32452352367177884  0.6483379205051847  1.0000
  C   C16       1.0  0.2517219190656874  0.17502994938547536  0.1534179482949085  1.0000
  C   C17       1.0  0.5729638956563221  0.38127293825331066  0.22046008098302391  1.0000
  C   C18       1.0  0.4257071928815678  0.12102968854726728  0.729739196563628  1.0000
  C   C19       1.0  0.0654212712515516  0.6132488159867079  0.776438766596435  1.0000
  C   C20       1.0  0.9279575826240959  0.8813621870463352  0.2796291801550908  1.0000
  C   C21       1.0  0.4338881945012361  0.6133771108739552  0.7760372097775347  1.0000
  C   C22       1.0  0.5733427543081859  0.8812862008813763  0.2802150206157563  1.0000
  C   C23       1.0  0.9275976761004899  0.3812630887820348  0.21956841947396546  1.0000
  C   C24       1.0  0.0730096162495855  0.1209585237255482  0.7302882008938029  1.0000
  C   C25       1.0  0.5699263436059  0.7152440196762836  0.1619004625836737  1.0000
  C   C26       1.0  0.42733882898033226  0.785292732163512  0.6669483509371474  1.0000
  C   C27       1.0  0.0643109156626807  0.29249810529501014  0.8376868490785725  1.0000
  C   C28       1.0  0.9311208836499816  0.21564770669765207  0.33877090975376234  1.0000
  C   C29       1.0  0.43570788459317095  0.2923865347389878  0.8371514809574379  1.0000
  C   C30       1.0  0.5717147573647453  0.21520727877821597  0.33914926989542943  1.0000
  C   C31       1.0  0.9298183768580446  0.7150654516774039  0.16152152381476273  1.0000
  C   C32       1.0  0.06977453048953919  0.7847007537717939  0.6673381206639418  1.0000
  I   I1        1.0  0.2500134114047796  0.38388353857462215  0.5970195612857339  1.0000
  I   I2        1.0  0.7512736100958078  0.1123565703170684  0.1033733034772695  1.0000
  I   I3        1.0  0.749423600402558  0.6125946396509434  0.3983362271225843  1.0000
  I   I4        1.0  0.24944383929567954  0.8889431917793685  0.9018133978657801  1.0000
  N   N1        1.0  0.24921794738451547  0.5701537699614362  0.3124806351781899  1.0000
  N   N2        1.0  0.7486151966725457  0.9285895659729774  0.8176788821034435  1.0000
  N   N3        1.0  0.7500468977230953  0.4278004248902291  0.6839122949229903  1.0000
  N   N4        1.0  0.2515772722541811  0.0720060575079131  0.1881661186096437  1.0000
  N   N5        1.0  0.24916346989986954  0.6146861259525808  0.5257785561404091  1.0000
  N   N6        1.0  0.7499463283389434  0.8817003033464059  0.030282951653021004  1.0000
  N   N7        1.0  0.7507259253079609  0.38200092541494973  0.4705656553576603  1.0000
  N   N8        1.0  0.2509471062261781  0.1197703494896558  0.9752788745583416  1.0000
  N   N9        1.0  0.45909751012955274  0.42608136137705077  0.1718097217343555  1.0000
  N   N10       1.0  0.5380105213296672  0.0750130283566932  0.6809047427941124  1.0000
  N   N11       1.0  0.9421318537278437  0.562566163160767  0.8098805081536823  1.0000
  N   N12       1.0  0.04127277063245321  0.9267344021637169  0.3282255402948167  1.0000
  N   N13       1.0  0.5571717035827463  0.5625461317420815  0.8094674795120084  1.0000
  N   N14       1.0  0.4604589740984579  0.9266166425738762  0.3290626225904631  1.0000
  N   N15       1.0  0.0406409482353567  0.42609791320024476  0.1704063126513518  1.0000
  N   N16       1.0  0.9604355487352123  0.07487090556389829  0.6816135209810383  1.0000
  N   N17       1.0  0.4520125650044164  0.6579552488863242  0.1331380183135309  1.0000
  N   N18       1.0  0.5437517442261637  0.8434650589615489  0.6376606660652014  1.0000
  N   N19       1.0  0.9403525783018055  0.3518795382557586  0.8499435850251871  1.0000
  N   N20       1.0  0.0486130668878246  0.1581942883999758  0.3678171437774793  1.0000
  N   N21       1.0  0.5598101707090706  0.35164310426367246  0.8493800241576962  1.0000
  N   N22       1.0  0.4551413257037781  0.15735901604304559  0.368541933701799  1.0000
  N   N23       1.0  0.0471834568129594  0.657644880652356  0.1323655651475804  1.0000
  N   N24       1.0  0.9524704095511184  0.8424717495843268  0.6383751707193497  1.0000
  O   O1        1.0  0.2524905441908274  0.5031468978360393  0.9813708821753977  1.0000
  O   O2        1.0  0.7522066368493512  0.9976275832192554  0.4900779280537789  1.0000
  O   O3        1.0  0.7479638376307634  0.5033510742631222  0.0125669610148478  1.0000
  O   O4        1.0  0.2476366636023286  0.005554576569608101  0.5185347780810474  1.0000
