data_image0
_chemical_formula_structural       Er2CuH26C22N2O22
_chemical_formula_sum              "Er2 Cu1 H26 C22 N2 O22"
_cell_length_a       6.241235677756994
_cell_length_b       8.774455521582473
_cell_length_c       13.45030299932914
_cell_angle_alpha    88.02240210221507
_cell_angle_beta     85.68846905800028
_cell_angle_gamma    88.15070782541291

_space_group_name_H-M_alt    "P 1"
_space_group_IT_number       1

loop_
  _space_group_symop_operation_xyz
  'x, y, z'

loop_
  _atom_site_type_symbol
  _atom_site_label
  _atom_site_symmetry_multiplicity
  _atom_site_fract_x
  _atom_site_fract_y
  _atom_site_fract_z
  _atom_site_occupancy
  Er  Er1       1.0  0.39228972968120956  0.6646837250224137  0.1021070612556656  1.0000
  Er  Er2       1.0  0.6077133431321116  0.3353204339374257  0.8978941741990952  1.0000
  Cu  Cu1       1.0  0.9999940367824962  0.9999994735785407  0.5000021633388698  1.0000
  H   H1        1.0  0.0756127761389109  0.7851409309840987  0.24503916774910553  1.0000
  H   H2        1.0  0.9243824753036803  0.21485651957049606  0.7549587010483805  1.0000
  H   H3        1.0  0.9414993484989509  0.7349506375440455  0.15339694549791724  1.0000
  H   H4        1.0  0.05850364943928808  0.26505705887098685  0.8465990414291158  1.0000
  H   H5        1.0  0.5826528418510007  0.9155855918094316  0.19265384697411753  1.0000
  H   H6        1.0  0.417351775723894  0.08442085435075337  0.8073465630196992  1.0000
  H   H7        1.0  0.6256924606406359  0.9691072798372176  0.0797550479422213  1.0000
  H   H8        1.0  0.37431540757841464  0.030898020798872498  0.9202445238753256  1.0000
  H   H9        1.0  0.7652502029212014  0.5322900795706643  0.21115710082022332  1.0000
  H   H10       1.0  0.23476251970261328  0.46771404839667957  0.7888423226784411  1.0000
  H   H11       1.0  0.8153451763772567  0.4883670216718342  0.0973190453104564  1.0000
  H   H12       1.0  0.18466282686916458  0.5116337326963674  0.9026798377059893  1.0000
  H   H13       1.0  0.2877815043122141  0.5913824500273603  0.5279264294672857  1.0000
  H   H14       1.0  0.7122123873308654  0.40860710879302076  0.4720678703238904  1.0000
  H   H15       1.0  0.5366870951140895  0.58239281999618  0.6675435566694502  1.0000
  H   H16       1.0  0.46330038714506844  0.417595574839325  0.3324539485642148  1.0000
  H   H17       1.0  0.8520222839581421  0.7535180476343584  0.6536560030808545  1.0000
  H   H18       1.0  0.1479569775066594  0.24647600503610786  0.34634616677089275  1.0000
  H   H19       1.0  0.9304626351256147  0.043192962610234496  0.16377911904963577  1.0000
  H   H20       1.0  0.069540517121915  0.9568089809111342  0.8362191683981308  1.0000
  H   H21       1.0  0.8911284830871012  0.2269719468000203  0.21215548173459103  1.0000
  H   H22       1.0  0.10887144801578329  0.7730299850729452  0.7878444015486182  1.0000
  H   H23       1.0  0.27806982054563883  0.13568656975056106  0.19704338221730924  1.0000
  H   H24       1.0  0.7219299948117949  0.8643187017645245  0.8029601791888368  1.0000
  H   H25       1.0  0.2692888410206891  0.12273872888039962  0.06733806458721153  1.0000
  H   H26       1.0  0.730714346384822  0.8772607849050047  0.9326669453917802  1.0000
  C   C1        1.0  0.6429846350641597  0.8570900805981481  0.4424829112942136  1.0000
  C   C2        1.0  0.3570042138062419  0.14290623894041224  0.5575166751706604  1.0000
  C   C3        1.0  0.4731559755019675  0.7576090994106225  0.4401953752646506  1.0000
  C   C4        1.0  0.5268345202519952  0.2423861017484796  0.5598026831665592  1.0000
  C   C5        1.0  0.42768297638251346  0.6629547758171341  0.5247155169984481  1.0000
  C   C6        1.0  0.5723091855369375  0.3370381003367412  0.47528400272093313  1.0000
  C   C7        1.0  0.5622391705819894  0.6592381003639858  0.6027495911143036  1.0000
  C   C8        1.0  0.43775459850392195  0.3407547651296666  0.3972498745749178  1.0000
  C   C9        1.0  0.7380507654693816  0.7537994403309582  0.5962639726414167  1.0000
  C   C10       1.0  0.261938175305417  0.24619342417452114  0.403737142913407  1.0000
  C   C11       1.0  0.6889515627952817  0.9853838729924147  0.3669586450474754  1.0000
  C   C12       1.0  0.31103720664091833  0.014614661984609301  0.6330438894243926  1.0000
  C   C13       1.0  0.3431592028692236  0.7470393045122917  0.35049709240993826  1.0000
  C   C14       1.0  0.6568361575070866  0.2529547734313339  0.6494985860397263  1.0000
  C   C15       1.0  0.8403576377875837  0.21681521763390776  0.0584446963759291  1.0000
  C   C16       1.0  0.1596518773150351  0.783188964622731  0.941553347407954  1.0000
  C   C17       1.0  0.9594332753235192  0.16396558413926945  0.14721554574600051  1.0000
  C   C18       1.0  0.04057459289553119  0.8360397164968204  0.8527840260715465  1.0000
  C   C19       1.0  0.202077463488358  0.18582106044311072  0.131676539457267  1.0000
  C   C20       1.0  0.7979304240126196  0.8141830335672111  0.8683260216821154  1.0000
  C   C21       1.0  0.2684051425668486  0.34948549081732233  0.12022129921219003  1.0000
  C   C22       1.0  0.7316027585575852  0.6505186691306903  0.8797782863769756  1.0000
  N   N1        1.0  0.7712837091246882  0.8525624825068973  0.5190654543313117  1.0000
  N   N2        1.0  0.22869708688409668  0.14743380791066577  0.4809381217221542  1.0000
  O   O1        1.0  0.8459011613991194  0.07031689160180579  0.3840270263539836  1.0000
  O   O2        1.0  0.15409248853548257  0.9296792970495461  0.615976861345729  1.0000
  O   O3        1.0  0.07459319942785209  0.7821061498712395  0.1700026394831866  1.0000
  O   O4        1.0  0.925409854103549  0.21789921571436113  0.8299956066497459  1.0000
  O   O5        1.0  0.570816134558477  0.008566631561528499  0.2964691908307984  1.0000
  O   O6        1.0  0.4291773213497336  0.9914364177027153  0.70353387035167  1.0000
  O   O7        1.0  0.5882363436543515  0.8778273544727851  0.12340732416487299  1.0000
  O   O8        1.0  0.411777946418816  0.12217787055356409  0.8765935193071287  1.0000
  O   O9        1.0  0.7392253043001135  0.5642446357255081  0.14311715173110431  1.0000
  O   O10       1.0  0.2607811178734991  0.4357549556459901  0.8568832868622351  1.0000
  O   O11       1.0  0.1486828684706509  0.7919412513115486  0.35886111661255177  1.0000
  O   O12       1.0  0.8513109857079327  0.20804812618018076  0.6411413659417278  1.0000
  O   O13       1.0  0.4417453259082151  0.6848090456025843  0.2749902778431732  1.0000
  O   O14       1.0  0.5582594403174993  0.31519292022740325  0.7250064677993252  1.0000
  O   O15       1.0  0.7047352054909481  0.13334222239308963  0.02185283521468759  1.0000
  O   O16       1.0  0.2952727285388548  0.8666607968668459  0.9781467641460821  1.0000
  O   O17       1.0  0.8728993032730087  0.35055962388267387  0.0187390379541554  1.0000
  O   O18       1.0  0.1271134261625306  0.6494445370535118  0.9812588977694006  1.0000
  O   O19       1.0  0.4023588141235522  0.3904925644126677  0.047495072410534106  1.0000
  O   O20       1.0  0.5976524987660524  0.6095047300864278  0.9525044877479871  1.0000
  O   O21       1.0  0.20141994676065167  0.44818166273317667  0.183129109517246  1.0000
  O   O22       1.0  0.7985847468425858  0.5518225515041235  0.8168690963571308  1.0000
