data_image0
_chemical_formula_structural       Lu2H24C24O18
_chemical_formula_sum              "Lu2 H24 C24 O18"
_cell_length_a       7.735953657696695
_cell_length_b       9.286771226061909
_cell_length_c       10.706470832691913
_cell_angle_alpha    69.32046886034114
_cell_angle_beta     71.50144567998541
_cell_angle_gamma    77.10742449914494

_space_group_name_H-M_alt    "P 1"
_space_group_IT_number       1

loop_
  _space_group_symop_operation_xyz
  'x, y, z'

loop_
  _atom_site_type_symbol
  _atom_site_label
  _atom_site_symmetry_multiplicity
  _atom_site_fract_x
  _atom_site_fract_y
  _atom_site_fract_z
  _atom_site_occupancy
  Lu  Lu1       1.0  0.23647030085233922  0.20578885766134647  0.4907489197793637  1.0000
  Lu  Lu2       1.0  0.763522393155995  0.7942127199419247  0.5092529099106359  1.0000
  H   H1        1.0  0.4509464141838677  0.46184565858833077  0.38608772433055094  1.0000
  H   H2        1.0  0.5490425632669158  0.53815349439121  0.6139120004121  1.0000
  H   H3        1.0  0.09266601506454462  0.8975808432406893  0.6151304157537538  1.0000
  H   H4        1.0  0.9073492057426975  0.10241639936957371  0.3848656443521675  1.0000
  H   H5        1.0  0.1936900886466476  0.9274366177783121  0.4617264293004268  1.0000
  H   H6        1.0  0.8063058621380604  0.07256144450980878  0.5382692064669642  1.0000
  H   H7        1.0  0.21104378899789117  0.5005588615576143  0.5332599963474537  1.0000
  H   H8        1.0  0.7889584434141381  0.4994347303656782  0.466743050080531  1.0000
  H   H9        1.0  0.026355255918197415  0.4434173338158373  0.6362747907276756  1.0000
  H   H10       1.0  0.973646824140829  0.5565774835677073  0.363733510276667  1.0000
  H   H11       1.0  0.5599192893520523  0.3299824195698235  0.48170064968210363  1.0000
  H   H12       1.0  0.440075141972244  0.6700168368509835  0.5182996359673028  1.0000
  H   H13       1.0  0.16871628652686607  0.10214388412443039  0.9072418852102899  1.0000
  H   H14       1.0  0.8312779706102378  0.8978565649531376  0.0927608682095524  1.0000
  H   H15       1.0  0.07584555932060512  0.0037622938230584  0.166140242453011  1.0000
  H   H16       1.0  0.9241512337740335  0.9962312165279671  0.8338641009388396  1.0000
  H   H17       1.0  0.5166110394346647  0.628286952014619  0.158688232741639  1.0000
  H   H18       1.0  0.4833907718223998  0.37170891587722105  0.8413104598741156  1.0000
  H   H19       1.0  0.5968857555252145  0.7186580951567546  0.9009877675240645  1.0000
  H   H20       1.0  0.4031218602156557  0.28134365209776035  0.0990058508387648  1.0000
  H   H21       1.0  0.1790988809074463  0.6249801238417376  0.08019789655797648  1.0000
  H   H22       1.0  0.8209000532957804  0.3750250790246596  0.9198050705619494  1.0000
  H   H23       1.0  0.8977704840759557  0.24290083477254137  0.1462524228605631  1.0000
  H   H24       1.0  0.10222649271985064  0.7570996550911601  0.8537496820773427  1.0000
  C   C1        1.0  0.43277630223197855  0.9659103434986991  0.7333492390164692  1.0000
  C   C2        1.0  0.5672103739088571  0.0341028042615505  0.2666531598474009  1.0000
  C   C3        1.0  0.38650183076390476  0.9145996041014469  0.8885969590386722  1.0000
  C   C4        1.0  0.6134978656905973  0.08540092654838818  0.11140449741730413  1.0000
  C   C5        1.0  0.24187712979516365  0.9972079101771525  0.9633616072135994  1.0000
  C   C6        1.0  0.7581231278471137  0.002797258409820801  0.03663639098881794  1.0000
  C   C7        1.0  0.191134964923947  0.943049896238989  0.10708514631634365  1.0000
  C   C8        1.0  0.8088721041852692  0.056947234947379896  0.8929137881706737  1.0000
  C   C9        1.0  0.28793273937751007  0.8091659998461863  0.17851386360105456  1.0000
  C   C10       1.0  0.7120788085405393  0.19082888374734353  0.8214856651693696  1.0000
  C   C11       1.0  0.4390957000613583  0.7309972862710126  0.10380608631614763  1.0000
  C   C12       1.0  0.5609142992840362  0.2689987477172052  0.8961943765950551  1.0000
  C   C13       1.0  0.485136846273292  0.781940544081543  0.9599797198039184  1.0000
  C   C14       1.0  0.5148626396037274  0.2180611245525625  0.04001955974595013  1.0000
  C   C15       1.0  0.22338916178993887  0.7480453819040915  0.33260328185632204  1.0000
  C   C16       1.0  0.7766153472916528  0.2519504939703836  0.6673919754715811  1.0000
  C   C17       1.0  0.09755388577013953  0.3460733359947595  0.25765914608123813  1.0000
  C   C18       1.0  0.9024489369419089  0.6539249376036622  0.7423441578344168  1.0000
  C   C19       1.0  0.04367532848284842  0.426276770446421  0.1261988146486388  1.0000
  C   C20       1.0  0.9563284765719331  0.5737238651206055  0.8738053848256799  1.0000
  C   C21       1.0  0.09980982332221094  0.5718736151857442  0.04450991001058216  1.0000
  C   C22       1.0  0.900184266905768  0.4281280374830772  0.9554962401150037  1.0000
  C   C23       1.0  0.9432523595301278  0.3548539357188575  0.08143163433533827  1.0000
  C   C24       1.0  0.056742865393602064  0.6451488534583161  0.9185701567725462  1.0000
  O   O1        1.0  0.34321587136876275  0.0907023547009018  0.6739804740946341  1.0000
  O   O2        1.0  0.6567631156614341  0.9093003100389437  0.3260354261932295  1.0000
  O   O3        1.0  0.06365042140890152  0.8035011122191662  0.3910234105949328  1.0000
  O   O4        1.0  0.9363539425977335  0.19649600005005402  0.6089780302446357  1.0000
  O   O5        1.0  0.16351625679870094  0.4214546889626689  0.3088398785169133  1.0000
  O   O6        1.0  0.836485380271185  0.5785423715859321  0.6911612818692775  1.0000
  O   O7        1.0  0.0845755281050842  0.20231025259624857  0.31829388567060596  1.0000
  O   O8        1.0  0.9154300069875916  0.7976880508538144  0.6817078408278052  1.0000
  O   O9        1.0  0.19677175584006804  0.9499802783311748  0.5433879659514887  1.0000
  O   O10       1.0  0.8032329078304487  0.05002253331798558  0.4566013371812402  1.0000
  O   O11       1.0  0.5564268394975259  0.8824347591906943  0.6706474682049262  1.0000
  O   O12       1.0  0.44357235293714586  0.1175842386835981  0.3293370879774855  1.0000
  O   O13       1.0  0.15257255275618323  0.4050652528638422  0.5920925981229602  1.0000
  O   O14       1.0  0.847432428426778  0.5949284235835676  0.4079135155643314  1.0000
  O   O15       1.0  0.3280654362781378  0.6451841726445338  0.40024265376722223  1.0000
  O   O16       1.0  0.6719365200538759  0.3548104588525546  0.5997498553368672  1.0000
  O   O17       1.0  0.48661930353838306  0.3482503178412202  0.4158026404948458  1.0000
  O   O18       1.0  0.5133820865637163  0.6517478260191681  0.5841916983086791  1.0000
