data_image0
_chemical_formula_structural       Zn2H44C56N6O28
_chemical_formula_sum              "Zn2 H44 C56 N6 O28"
_cell_length_a       14.692930685074922
_cell_length_b       16.069625744323524
_cell_length_c       19.36379796420077
_cell_angle_alpha    89.6599917501891
_cell_angle_beta     90.61041164765753
_cell_angle_gamma    89.37341057086027

_space_group_name_H-M_alt    "P 1"
_space_group_IT_number       1

loop_
  _space_group_symop_operation_xyz
  'x, y, z'

loop_
  _atom_site_type_symbol
  _atom_site_label
  _atom_site_symmetry_multiplicity
  _atom_site_fract_x
  _atom_site_fract_y
  _atom_site_fract_z
  _atom_site_occupancy
  Zn  Zn1       1.0  0.5946066810199467  0.49436625327356143  0.49997340589457917  1.0000
  Zn  Zn2       1.0  0.4053987440116629  0.5056312536426404  0.5000197801400716  1.0000
  H   H1        1.0  0.9493881206701502  0.39301960247496465  0.5821074657259615  1.0000
  H   H2        1.0  0.26738419619231013  0.43098321213267343  0.7579913499546578  1.0000
  H   H3        1.0  0.5360003472420231  0.7010219851848232  0.11385071385624458  1.0000
  H   H4        1.0  0.6567130440478692  0.7160906036953275  0.1197624510215789  1.0000
  H   H5        1.0  0.5912319010748847  0.7107176810822576  0.1974889565184554  1.0000
  H   H6        1.0  0.34325978086592807  0.2838871396437667  0.8802073763826499  1.0000
  H   H7        1.0  0.4639732729436544  0.29895259819789993  0.8861413358050997  1.0000
  H   H8        1.0  0.4087627616280328  0.28925810519357487  0.8024913328969703  1.0000
  H   H9        1.0  0.2839956886753825  0.3867767134463519  0.0713562987633622  1.0000
  H   H10       1.0  0.7159766449446182  0.6132040321400821  0.928667224018291  1.0000
  H   H11       1.0  0.4246640944183754  0.27119615214780163  0.2821778326879212  1.0000
  H   H12       1.0  0.0506152533596378  0.6069834925851934  0.4178949845007267  1.0000
  H   H13       1.0  0.35758196757048205  0.3024168427432625  0.3552944171355463  1.0000
  H   H14       1.0  0.47310214216975055  0.3347902420413361  0.3491757695015565  1.0000
  H   H15       1.0  0.6424303706756544  0.6975836857536702  0.6447318498725991  1.0000
  H   H16       1.0  0.5753361985826473  0.7287789013044657  0.7178474213981261  1.0000
  H   H17       1.0  0.526907493641957  0.6652003698395602  0.6508350238532401  1.0000
  H   H18       1.0  0.38884041116865836  0.033079727260144395  0.6699109119100015  1.0000
  H   H19       1.0  0.5086853895305693  0.030206296361683392  0.6889325635795132  1.0000
  H   H20       1.0  0.4352608734697512  0.9553811430407533  0.7279454305592807  1.0000
  H   H21       1.0  0.49131529088361237  0.9697980315611329  0.3110796788854913  1.0000
  H   H22       1.0  0.6111616890373026  0.9669152709906254  0.3300967237597163  1.0000
  H   H23       1.0  0.6064778715347218  0.05807634826982167  0.5857104026279885  1.0000
  H   H24       1.0  0.5647425481212308  0.04462192734384019  0.2720688979367623  1.0000
  H   H25       1.0  0.27957993822253263  0.9489510595413078  0.5821919165113627  1.0000
  H   H26       1.0  0.2549825524131748  0.9535907427122152  0.4913199619685713  1.0000
  H   H27       1.0  0.1966922628747909  0.022447881534013395  0.5490749709903895  1.0000
  H   H28       1.0  0.7450289875504906  0.04641480631205749  0.5086871747970036  1.0000
  H   H29       1.0  0.7204221352834566  0.051047670579883686  0.41781673872250025  1.0000
  H   H30       1.0  0.8033192770888745  0.9775576674902592  0.45093216577518547  1.0000
  H   H31       1.0  0.15910517504704558  0.5914989120480952  0.6840982695780583  1.0000
  H   H32       1.0  0.8408886791251079  0.4085048278498389  0.3159077382452153  1.0000
  H   H33       1.0  0.0156924518059682  0.731803194330325  0.4926344271553944  1.0000
  H   H34       1.0  0.39353854733681704  0.9419198313969727  0.4143060911502586  1.0000
  H   H35       1.0  0.044104802102054884  0.7092178929946227  0.5815848312674774  1.0000
  H   H36       1.0  0.9449581878544392  0.771308703933222  0.5603009786603081  1.0000
  H   H37       1.0  0.9558958091902454  0.29078956913815535  0.4184165547138008  1.0000
  H   H38       1.0  0.9843109375808651  0.2681967944139886  0.5073654519461853  1.0000
  H   H39       1.0  0.05503970890021749  0.22869504455956496  0.43969472393626313  1.0000
  H   H40       1.0  0.7105874103736268  0.5247429512722589  0.3266374721011118  1.0000
  H   H41       1.0  0.7376574768764429  0.6329756046907064  0.31765806954372516  1.0000
  H   H42       1.0  0.7326110205096868  0.5690031720959821  0.24197909316287539  1.0000
  H   H43       1.0  0.2623479383328018  0.3670113729371208  0.682310881270773  1.0000
  H   H44       1.0  0.2894221145329396  0.475242141121093  0.6733340913134426  1.0000
  C   C1        1.0  0.5038093624041835  0.6616648567424972  0.49521947367149727  1.0000
  C   C2        1.0  0.41322892524904387  0.024146917269248985  0.5156579503318852  1.0000
  C   C3        1.0  0.5060514902575618  0.9146589301231668  0.4994081863097861  1.0000
  C   C4        1.0  0.49396696237332083  0.08533848671173416  0.5006088313235892  1.0000
  C   C5        1.0  0.5093139066543841  0.8269107654107586  0.4982911376400239  1.0000
  C   C6        1.0  0.4906976775558148  0.17309042296996316  0.5017180804618349  1.0000
  C   C7        1.0  0.9688859967175104  0.5759788765504864  0.5215255152143784  1.0000
  C   C8        1.0  0.0311173773122704  0.4240242185096718  0.4784769350123099  1.0000
  C   C9        1.0  0.03442624001621649  0.5133109230282215  0.5653660122471678  1.0000
  C   C10       1.0  0.9655778198095318  0.4866915475522261  0.434636444151522  1.0000
  C   C11       1.0  0.027245914344789002  0.5605663270605417  0.45486853192505083  1.0000
  C   C12       1.0  0.49620285064411007  0.33833387770022216  0.504771681639518  1.0000
  C   C13       1.0  0.9727581454809595  0.4394361435199057  0.5451339244736388  1.0000
  C   C14       1.0  0.09234590481059969  0.5009264993216573  0.49741826496103403  1.0000
  C   C15       1.0  0.9076568009089669  0.4990753521373037  0.5025847022045653  1.0000
  C   C16       1.0  0.4998179371419127  0.49435508623231766  0.36550197536080015  1.0000
  C   C17       1.0  0.5001970612689064  0.5056367907208497  0.6344907695280071  1.0000
  C   C18       1.0  0.18841279466821695  0.5020982102023125  0.49616571933652404  1.0000
  C   C19       1.0  0.8115926511029842  0.4979005252931754  0.503835208952573  1.0000
  C   C20       1.0  0.5554535275220616  0.5482725303909529  0.2520082606807534  1.0000
  C   C21       1.0  0.44454790388716947  0.4517113097963089  0.7479792696117115  1.0000
  C   C22       1.0  0.5542841965437547  0.5511595907685559  0.1792737403079059  1.0000
  C   C23       1.0  0.5598445516048826  0.030821508884414994  0.5480289130730398  1.0000
  C   C24       1.0  0.4457077806934464  0.4488149454629492  0.8207132515527604  1.0000
  C   C25       1.0  0.49563683075178483  0.49887593187317225  0.1423281216696637  1.0000
  C   C26       1.0  0.5043545585183721  0.5010911223770195  0.857666639595557  1.0000
  C   C27       1.0  0.4390316481652547  0.4430898539105427  0.1779424632635411  1.0000
  C   C28       1.0  0.5609665570683549  0.5568790330365797  0.8220585282004649  1.0000
  C   C29       1.0  0.4391964743141443  0.44171746050420757  0.250418460060267  1.0000
  C   C30       1.0  0.5608070991443695  0.558261983641458  0.7495851074753901  1.0000
  C   C31       1.0  0.49820828927330746  0.4940707290161369  0.28775791569967174  1.0000
  C   C32       1.0  0.5018006623846175  0.5059118311171034  0.7122353434029733  1.0000
  C   C33       1.0  0.5019842161669529  0.49999139896210226  0.9336469820314123  1.0000
  C   C34       1.0  0.44017050181755474  0.9691746772154699  0.451986539911168  1.0000
  C   C35       1.0  0.497991505653161  0.4999769503379311  0.0663471674822134  1.0000
  C   C36       1.0  0.7035884640971374  0.5802104832580567  0.2932952772334971  1.0000
  C   C37       1.0  0.2964163014127906  0.4197752411129229  0.7066788385383518  1.0000
  C   C38       1.0  0.5978782084800826  0.6875615344654019  0.14449255721560664  1.0000
  C   C39       1.0  0.40210422295979237  0.3124118010528249  0.8554876699761989  1.0000
  C   C40       1.0  0.3755602751644318  0.3861936997445383  0.1407408718572469  1.0000
  C   C41       1.0  0.6244284380974889  0.6137751979029742  0.859269360336242  1.0000
  C   C42       1.0  0.4109121429605195  0.321080140003751  0.3194386016629736  1.0000
  C   C43       1.0  0.5890975371585297  0.6789073505413864  0.6805768508176299  1.0000
  C   C44       1.0  0.447684469054117  0.9919238928236493  0.6811486252170198  1.0000
  C   C45       1.0  0.47990494246996457  0.9696792266327843  0.5640779697070428  1.0000
  C   C46       1.0  0.5523203384823104  0.008075442475991698  0.3188641751694306  1.0000
  C   C47       1.0  0.26151995379387927  0.990737121525569  0.5387691099907315  1.0000
  C   C48       1.0  0.738489574031952  0.009265320103970999  0.46123905892360995  1.0000
  C   C49       1.0  0.07435954947111159  0.5238517670921324  0.6357601992767385  1.0000
  C   C50       1.0  0.9256411184141767  0.4761500886522113  0.364243788930267  1.0000
  C   C51       1.0  0.9881913239859228  0.7192148798929521  0.5442457676589924  1.0000
  C   C52       1.0  0.011810672187479599  0.28078822803740167  0.4557525430946896  1.0000
  C   C53       1.0  0.5201087568462767  0.030316340345606794  0.4359379940440745  1.0000
  C   C54       1.0  0.5091242748864743  0.7512181950341341  0.49634215319807146  1.0000
  C   C55       1.0  0.49088527732820336  0.24877555856667746  0.5036541685475484  1.0000
  C   C56       1.0  0.5867847647921566  0.9758492741908709  0.484356978304767  1.0000
  N   N1        1.0  0.5046241725834404  0.4256511115207501  0.0343797204373573  1.0000
  N   N2        1.0  0.49533997700880406  0.574316655104603  0.965612814799286  1.0000
  N   N3        1.0  0.5064721263896104  0.4254629909151219  0.9662743419637037  1.0000
  N   N4        1.0  0.49349202527051256  0.5745047746373827  0.0337187097194374  1.0000
  N   N5        1.0  0.2672558333992256  0.5039318123781769  0.49679416062115667  1.0000
  N   N6        1.0  0.7327489265151997  0.4960663082892364  0.5032041837064227  1.0000
  O   O1        1.0  0.5789102332089157  0.6211002528648064  0.49453625966522446  1.0000
  O   O2        1.0  0.3911919166911275  0.3965938532962807  0.7122269567041357  1.0000
  O   O3        1.0  0.6161474349590462  0.5989978363344759  0.14452812809954452  1.0000
  O   O4        1.0  0.3838349810021455  0.4009761268840321  0.855449514638316  1.0000
  O   O5        1.0  0.3698394334829018  0.3114514262330628  0.1502000876378133  1.0000
  O   O6        1.0  0.320968438135985  0.4288299314412212  0.0946173481936015  1.0000
  O   O7        1.0  0.6301499398785423  0.6885199586148399  0.8498101396203168  1.0000
  O   O8        1.0  0.679011410410979  0.571146438503831  0.9054041678082001  1.0000
  O   O9        1.0  0.3765318128017369  0.3936070845488472  0.28315302180112667  1.0000
  O   O10       1.0  0.6234758344398942  0.6063760700222784  0.7168557205737899  1.0000
  O   O11       1.0  0.4613626525718928  0.9328256389440807  0.6266478531322974  1.0000
  O   O12       1.0  0.4210931354991417  0.37889974660801323  0.5054584549714249  1.0000
  O   O13       1.0  0.5386503465340481  0.06717179933176706  0.37336706711088397  1.0000
  O   O14       1.0  0.3277773219296946  0.05489385467507898  0.5305718492178002  1.0000
  O   O15       1.0  0.6722370344146638  0.9451048207668716  0.469444623822973  1.0000
  O   O16       1.0  0.05845602895816879  0.47895297104237483  0.6849366905969063  1.0000
  O   O17       1.0  0.13188541616271013  0.5896247193971218  0.6376465908926576  1.0000
  O   O18       1.0  0.9415418895396143  0.5210513858393708  0.31506572358260587  1.0000
  O   O19       1.0  0.8681138739878236  0.41037962783298804  0.362358413420381  1.0000
  O   O20       1.0  0.9290947666273793  0.647824505800173  0.5422290746555731  1.0000
  O   O21       1.0  0.07090929626978237  0.3521773435170984  0.457772867518095  1.0000
  O   O22       1.0  0.42388494967913454  0.6318494037623735  0.4956629818237205  1.0000
  O   O23       1.0  0.576119766809846  0.36814873943490056  0.5043245171274933  1.0000
  O   O24       1.0  0.5772677191623997  0.48433344822776536  0.3945331862696904  1.0000
  O   O25       1.0  0.4227430842510671  0.5156708925993739  0.6054574247005178  1.0000
  O   O26       1.0  0.42405290053828537  0.5043761390532777  0.3950752738331573  1.0000
  O   O27       1.0  0.5759553006416098  0.4956163741628855  0.6049210444543434  1.0000
  O   O28       1.0  0.6088121682837483  0.6033943518339624  0.2877523106962272  1.0000
