data_image0
_chemical_formula_structural       Ag4H32C40N12
_chemical_formula_sum              "Ag4 H32 C40 N12"
_cell_length_a       5.497058769158961
_cell_length_b       11.56135099661754
_cell_length_c       14.985071204089039
_cell_angle_alpha    108.87481268670535
_cell_angle_beta     89.99714013081939
_cell_angle_gamma    89.99944735259557

_space_group_name_H-M_alt    "P 1"
_space_group_IT_number       1

loop_
  _space_group_symop_operation_xyz
  'x, y, z'

loop_
  _atom_site_type_symbol
  _atom_site_label
  _atom_site_symmetry_multiplicity
  _atom_site_fract_x
  _atom_site_fract_y
  _atom_site_fract_z
  _atom_site_occupancy
  Ag  Ag1       1.0  0.7485251463063349  0.017973188343269404  0.9975313715029797  1.0000
  Ag  Ag2       1.0  0.7514647402295226  0.5179921683800828  0.49752700591109533  1.0000
  Ag  Ag3       1.0  0.2514861754986982  0.9820026398014222  0.0024692066501899664  1.0000
  Ag  Ag4       1.0  0.24850110185042243  0.4820211362899513  0.5024821989954374  1.0000
  H   H1        1.0  0.4210384227880795  0.797024617085462  0.8100463774776965  1.0000
  H   H2        1.0  0.0789635817464074  0.2970437490946977  0.31005080151672354  1.0000
  H   H3        1.0  0.5789547077384612  0.20296581074829587  0.18994914604476065  1.0000
  H   H4        1.0  0.921022271976419  0.7029740817947213  0.6899448443458807  1.0000
  H   H5        1.0  0.3856016353477614  0.5734641533295246  0.7236997641312256  1.0000
  H   H6        1.0  0.1143992396356737  0.07347455676697479  0.22371275260888265  1.0000
  H   H7        1.0  0.6143896765832153  0.426530816939575  0.2762875432177836  1.0000
  H   H8        1.0  0.8855756987030503  0.9265423801664808  0.7762893449834676  1.0000
  H   H9        1.0  0.021257645680094604  0.46165712671349707  0.7599740890427709  1.0000
  H   H10       1.0  0.47873121872947166  0.9616553749861081  0.25998465785613684  1.0000
  H   H11       1.0  0.978735485825219  0.5383323468907903  0.24000785119443435  1.0000
  H   H12       1.0  0.5212073360019218  0.0383433203068293  0.7400262630114725  1.0000
  H   H13       1.0  0.7197655913279633  0.57722165225109  0.8785789288820991  1.0000
  H   H14       1.0  0.7802369300948727  0.0772313103929392  0.37856682944877906  1.0000
  H   H15       1.0  0.28026028375077766  0.42276056647313  0.12142056459548907  1.0000
  H   H16       1.0  0.21971435875197903  0.9227719492953524  0.6214432212215752  1.0000
  H   H17       1.0  0.8476721815566749  0.6264071556013775  0.03567208078513324  1.0000
  H   H18       1.0  0.6523024103543095  0.12640600783845457  0.535657181480232  1.0000
  H   H19       1.0  0.15233368262600072  0.3735732451016531  0.9643302986828669  1.0000
  H   H20       1.0  0.3476816235220853  0.8736127652559912  0.4643480407068947  1.0000
  H   H21       1.0  0.5788704192884851  0.5589818186158978  0.14102626278287994  1.0000
  H   H22       1.0  0.9210954120447212  0.05895645652729089  0.6409873421210079  1.0000
  H   H23       1.0  0.421117253605388  0.4409958318927566  0.858972765500958  1.0000
  H   H24       1.0  0.07893410203050172  0.9410467363595812  0.35900066933351127  1.0000
  H   H25       1.0  0.18531683084795966  0.6764247895426222  0.19958203619931675  1.0000
  H   H26       1.0  0.3146297838243086  0.1763909457258279  0.6995308496769607  1.0000
  H   H27       1.0  0.8146653843793247  0.32355926172866123  0.8004192467702322  1.0000
  H   H28       1.0  0.6854088269293755  0.8236103827734028  0.3004446873707849  1.0000
  H   H29       1.0  0.0963226511679594  0.8563208269718743  0.14844382611505577  1.0000
  H   H30       1.0  0.4036289696176142  0.3563103745491815  0.6484155795052828  1.0000
  H   H31       1.0  0.9036795741381385  0.14367512152058032  0.851565078363812  1.0000
  H   H32       1.0  0.5963787146049314  0.6437065159903097  0.35157115765145613  1.0000
  C   C1        1.0  0.27007523376703096  0.7440264071572709  0.8237569448540041  1.0000
  C   C2        1.0  0.22993458495688657  0.24404510496092507  0.3237653117586347  1.0000
  C   C3        1.0  0.7299233543340264  0.2559594501245074  0.1762374451836166  1.0000
  C   C4        1.0  0.7700512683282383  0.7559690915899535  0.6762367734921071  1.0000
  C   C5        1.0  0.25067267950183236  0.619397090765851  0.7764783302412466  1.0000
  C   C6        1.0  0.24934369551516516  0.11940086753180168  0.276481992448808  1.0000
  C   C7        1.0  0.7493313659011565  0.3805915127938349  0.2235180754550399  1.0000
  C   C8        1.0  0.7506457964109787  0.8805996174594097  0.7235166924819081  1.0000
  C   C9        1.0  0.04846708576964431  0.5586902234349437  0.797258655930214  1.0000
  C   C10       1.0  0.45158165961306207  0.0587018739118932  0.2972480781601163  1.0000
  C   C11       1.0  0.951564246269001  0.441291103215903  0.20274795693418915  1.0000
  C   C12       1.0  0.5484132892539719  0.941312330595686  0.7027566783145288  1.0000
  C   C13       1.0  0.8802885761340065  0.6226684358366014  0.8636182441329224  1.0000
  C   C14       1.0  0.6197136830587836  0.1226714039845334  0.36361528245745933  1.0000
  C   C15       1.0  0.11971546910697133  0.3773229140422529  0.13638017727966906  1.0000
  C   C16       1.0  0.38026125465089683  0.8773419066358414  0.6363959258429899  1.0000
  C   C17       1.0  0.9141751892385415  0.7493936689197439  0.9114131563395913  1.0000
  C   C18       1.0  0.5858022216632294  0.24940536446877098  0.4114089438861654  1.0000
  C   C19       1.0  0.08582157917039981  0.25059860314172505  0.08858816315525077  1.0000
  C   C20       1.0  0.4141745359144977  0.7506179611341041  0.5885914013351011  1.0000
  C   C21       1.0  0.6134625857049941  0.7764231200101719  0.03212746956025818  1.0000
  C   C22       1.0  0.886526955148888  0.27643306076327423  0.5321125856281411  1.0000
  C   C23       1.0  0.38657602292602894  0.22356916577957262  0.9678785243026267  1.0000
  C   C24       1.0  0.1134570792644851  0.7235911688549094  0.46788464705176114  1.0000
  C   C25       1.0  0.676773296337558  0.6736823132169149  0.05991567858470858  1.0000
  C   C26       1.0  0.8231953967049821  0.173674909216551  0.5598909201456761  1.0000
  C   C27       1.0  0.32322892952451815  0.3263044802095364  0.9400862842298279  1.0000
  C   C28       1.0  0.1768050101814751  0.8263420114734429  0.4401058345377748  1.0000
  C   C29       1.0  0.5261596314015692  0.6370078279047532  0.1195287374128569  1.0000
  C   C30       1.0  0.9738009965107326  0.1369999830651096  0.6195039224100254  1.0000
  C   C31       1.0  0.47384077562266935  0.36296982050127  0.8804696229065028  1.0000
  C   C32       1.0  0.026188494729844105  0.8630288390925643  0.38050178976933313  1.0000
  C   C33       1.0  0.31000854217320756  0.7013712240111899  0.15246149649892962  1.0000
  C   C34       1.0  0.18994449803304292  0.20135575732101071  0.6524297128193409  1.0000
  C   C35       1.0  0.6900027788032548  0.2986210760293914  0.8475491724620807  1.0000
  C   C36       1.0  0.8100831966627737  0.7986547504031308  0.34756077996790674  1.0000
  C   C37       1.0  0.2609709447708539  0.8022589202862845  0.12447854716632628  1.0000
  C   C38       1.0  0.23900117619070477  0.3022473006197898  0.6244528713848041  1.0000
  C   C39       1.0  0.7390549295127471  0.19773246353577179  0.8755312271255489  1.0000
  C   C40       1.0  0.761022881046003  0.6977576924235009  0.3755262438783688  1.0000
  N   N1        1.0  0.7561419247784756  0.8213732407722676  0.9764389238661195  1.0000
  N   N2        1.0  0.7438561733860283  0.32138344892182846  0.4764275928392648  1.0000
  N   N3        1.0  0.2438875881014155  0.17861813098408416  0.023566843407387204  1.0000
  N   N4        1.0  0.2561369566056513  0.6786389624551388  0.5235725255236474  1.0000
  N   N5        1.0  0.108845773421649  0.8073703834988919  0.8887373159861409  1.0000
  N   N6        1.0  0.39118667042060923  0.3073920679230254  0.3887236022926075  1.0000
  N   N7        1.0  0.8911964731735297  0.1926045664244711  0.1112750560948044  1.0000
  N   N8        1.0  0.6088100985834473  0.6926230085392502  0.6112673564184588  1.0000
  N   N9        1.0  0.40650715842720336  0.8403751251004932  0.067398563870789  1.0000
  N   N10       1.0  0.09345081460063648  0.3403849522090709  0.5673974184739521  1.0000
  N   N11       1.0  0.5935023441640368  0.1596070977602295  0.9326022654396905  1.0000
  N   N12       1.0  0.9065350382020584  0.6596393094972226  0.43261049946659097  1.0000
