data_image0
_chemical_formula_structural       Zn2H17C22N5O8
_chemical_formula_sum              "Zn2 H17 C22 N5 O8"
_cell_length_a       9.766150073008935
_cell_length_b       11.220644571092471
_cell_length_c       16.045922399269262
_cell_angle_alpha    92.66495496296442
_cell_angle_beta     89.62141017305652
_cell_angle_gamma    90.34353954233778

_space_group_name_H-M_alt    "P 1"
_space_group_IT_number       1

loop_
  _space_group_symop_operation_xyz
  'x, y, z'

loop_
  _atom_site_type_symbol
  _atom_site_label
  _atom_site_symmetry_multiplicity
  _atom_site_fract_x
  _atom_site_fract_y
  _atom_site_fract_z
  _atom_site_occupancy
  Zn  Zn1       1.0  0.6327936964734135  0.5022319663386624  0.5035320298083974  1.0000
  Zn  Zn2       1.0  0.352911072515127  0.5000377657062955  0.4985606970614356  1.0000
  H   H1        1.0  0.3709039196697362  0.6545418972489613  0.0778146241895854  1.0000
  H   H2        1.0  0.30937248714399596  0.11310320173461721  0.4924454261048012  1.0000
  H   H3        1.0  0.29798428561605317  0.8955052441198819  0.5020452190018644  1.0000
  H   H4        1.0  0.6686370758582427  0.7477598176696388  0.008390214666618998  1.0000
  H   H5        1.0  0.5626769480653236  0.7579366335597869  0.9281694836453411  1.0000
  H   H6        1.0  0.6902257473027619  0.25870680377801136  0.9491698837644691  1.0000
  H   H7        1.0  0.5867507251918768  0.2737633840167319  0.8681939885467286  1.0000
  H   H8        1.0  0.6554709079234797  0.011216192069362295  0.5553407616916813  1.0000
  H   H9        1.0  0.7094571818445631  0.1598834128223174  0.5594884763817376  1.0000
  H   H10       1.0  0.6103057518598832  0.8913839265750809  0.47460288960008506  1.0000
  H   H11       1.0  0.8679345251116429  0.4090413030637946  0.6092175909746304  1.0000
  H   H12       1.0  0.8929386463379885  0.5654438547827426  0.4687821967181307  1.0000
  H   H13       1.0  0.12257298233127048  0.47184167127207377  0.6235768842324632  1.0000
  H   H14       1.0  0.09156689676074592  0.4800229911126053  0.44250358553329505  1.0000
  H   H15       1.0  0.25385735880961857  0.4896598565607774  0.9586452864185445  1.0000
  H   H16       1.0  0.38886490042524  0.3010616973772642  0.0365624447339741  1.0000
  H   H17       1.0  0.7355171076770547  0.4951230190588021  0.0446609140779088  1.0000
  C   C1        1.0  0.49438614998352653  0.7302356799967737  0.4880746976779022  1.0000
  C   C2        1.0  0.5168994594273216  0.1351370513235892  0.5182915226724205  1.0000
  C   C3        1.0  0.39929991122002667  0.9370660934752167  0.49752830017002475  1.0000
  C   C4        1.0  0.4982895969919456  0.46525043606754213  0.3396379479279332  1.0000
  C   C5        1.0  0.5067874285444561  0.8605673863175695  0.4876761575896182  1.0000
  C   C6        1.0  0.9182378163978202  0.46208035686441906  0.5620320878900671  1.0000
  C   C7        1.0  0.0694780358389409  0.4732287267481111  0.563539916147981  1.0000
  C   C8        1.0  0.5071852150654693  0.2691926587910274  0.5173326040687343  1.0000
  C   C9        1.0  0.4767237436176118  0.5242013791446637  0.6646705521663561  1.0000
  C   C10       1.0  0.5538782088126625  0.5985182588743356  0.9838309931969106  1.0000
  C   C11       1.0  0.42505345990707616  0.5826703297232144  0.0432180370573434  1.0000
  C   C12       1.0  0.5019094280755781  0.4782391420829271  0.0864573740244055  1.0000
  C   C13       1.0  0.5044429171634377  0.4606565795838479  0.2495934837396661  1.0000
  C   C14       1.0  0.47592866652743737  0.5248023922716101  0.7546275378769562  1.0000
  C   C15       1.0  0.6279984189966613  0.4939901481499689  0.025868091230407196  1.0000
  C   C16       1.0  0.5636860732257817  0.4022805517571513  0.9609705475608408  1.0000
  C   C17       1.0  0.4850767121998771  0.5068013147700867  0.9173786075280006  1.0000
  C   C18       1.0  0.4349592114984659  0.3861978410842682  0.0204372251701912  1.0000
  C   C19       1.0  0.3605028464610172  0.4906501945275111  0.9788902804233288  1.0000
  C   C20       1.0  0.5060344847967856  0.466195539537189  0.17386729719915908  1.0000
  C   C21       1.0  0.4793126574287357  0.5182722717830401  0.830302384850313  1.0000
  C   C22       1.0  0.4039881025720433  0.06460124520191357  0.5012747922487435  1.0000
  N   N1        1.0  0.8423047963719483  0.5124454308661585  0.5096827503767257  1.0000
  N   N2        1.0  0.14341672862460092  0.4833390377722607  0.4981586251681377  1.0000
  N   N3        1.0  0.6240787857900613  0.7018515924474613  0.9592340420141454  1.0000
  N   N4        1.0  0.6427222578375122  0.31848386251252236  0.9132624749822754  1.0000
  N   N5        1.0  0.6447289126988665  0.09560356537156879  0.5363707883374786  1.0000
  O   O1        1.0  0.6071817572141072  0.6731641245756421  0.4754247435305317  1.0000
  O   O2        1.0  0.3781676971430556  0.6811225410582012  0.5016138515991385  1.0000
  O   O3        1.0  0.609459119924111  0.44911425515616793  0.37870050471167355  1.0000
  O   O4        1.0  0.38078554373399953  0.48723670134716474  0.3721251738492128  1.0000
  O   O5        1.0  0.618673059479768  0.3260313405520918  0.5339571206383837  1.0000
  O   O6        1.0  0.3936032944636167  0.31550121137154724  0.49989165991131296  1.0000
  O   O7        1.0  0.5915385639093316  0.5435285543211137  0.6294587086542833  1.0000
  O   O8        1.0  0.3628730958966245  0.5023359629586184  0.6279312773893153  1.0000
