data_image0
_chemical_formula_structural       Cd2H28C26N4Cl4
_chemical_formula_sum              "Cd2 H28 C26 N4 Cl4"
_cell_length_a       4.244253758107204
_cell_length_b       11.935122739802763
_cell_length_c       13.550755519732803
_cell_angle_alpha    108.24789178904443
_cell_angle_beta     89.99991292194339
_cell_angle_gamma    89.99927186487086

_space_group_name_H-M_alt    "P 1"
_space_group_IT_number       1

loop_
  _space_group_symop_operation_xyz
  'x, y, z'

loop_
  _atom_site_type_symbol
  _atom_site_label
  _atom_site_symmetry_multiplicity
  _atom_site_fract_x
  _atom_site_fract_y
  _atom_site_fract_z
  _atom_site_occupancy
  Cd  Cd1       1.0  0.0496828175329398  0.2499997355260462  0.499999744633712  1.0000
  Cd  Cd2       1.0  0.9503152734907088  0.7500024995293091  0.5000016171944496  1.0000
  H   H1        1.0  0.28847837637687224  0.114965509374926  0.6162324715723672  1.0000
  H   H2        1.0  0.2884670914727252  0.3850335868136624  0.3837660611295918  1.0000
  H   H3        1.0  0.7115244268537139  0.8850393781041956  0.383768898393491  1.0000
  H   H4        1.0  0.7115380680309613  0.6149633665649928  0.6162323390083702  1.0000
  H   H5        1.0  0.4002598786143281  0.2551743487678664  0.6651773582017811  1.0000
  H   H6        1.0  0.40025374845320993  0.24482593806563097  0.3348192425178099  1.0000
  H   H7        1.0  0.5997358562358741  0.74483053872995  0.3348240117710049  1.0000
  H   H8        1.0  0.5997537671596048  0.7551718917140565  0.6651801421314902  1.0000
  H   H9        1.0  0.051656234532011104  0.4039339177586498  0.7912394974930098  1.0000
  H   H10       1.0  0.051644132233477094  0.09606819532495338  0.20875999605779336  1.0000
  H   H11       1.0  0.9483206513246644  0.5960701049889678  0.20875941528530012  1.0000
  H   H12       1.0  0.9483492466072431  0.9039305341138116  0.7912374277203896  1.0000
  H   H13       1.0  0.7093777413920748  0.4245813456398865  0.943762707455342  1.0000
  H   H14       1.0  0.7093812001961621  0.0754252520513319  0.056234784054993305  1.0000
  H   H15       1.0  0.290589720008839  0.575420042107254  0.05623398814091728  1.0000
  H   H16       1.0  0.2906121785931504  0.9245761124128294  0.9437648569144773  1.0000
  H   H17       1.0  0.5440457205441475  0.050190996687739214  0.839893266150199  1.0000
  H   H18       1.0  0.544037893851403  0.44981643479242456  0.16010970411299041  1.0000
  H   H19       1.0  0.45597121958400777  0.949805921838106  0.16010955207416092  1.0000
  H   H20       1.0  0.45596490947091434  0.5501831420106384  0.8398923859178853  1.0000
  H   H21       1.0  0.8976515911801568  0.0289841684140342  0.6893503929388558  1.0000
  H   H22       1.0  0.8976376172741852  0.4710196111496075  0.3106535964632401  1.0000
  H   H23       1.0  0.10236299269414668  0.9710198136086277  0.3106536742500907  1.0000
  H   H24       1.0  0.10237461055530872  0.5289799656285298  0.6893484935583987  1.0000
  H   H25       1.0  0.2538221078594276  0.32718855860285606  0.015173568789450115  1.0000
  H   H26       1.0  0.25382731457500546  0.1728257242156843  0.9848285143118433  1.0000
  H   H27       1.0  0.7461712709878725  0.6728092538033793  0.9848280249226917  1.0000
  H   H28       1.0  0.7461825571598554  0.827172088146938  0.015173079384119588  1.0000
  C   C1        1.0  0.0030292490491775005  0.21423389904483514  0.7318332337731164  1.0000
  C   C2        1.0  0.0030149159033357  0.2857684596088959  0.2681678278596777  1.0000
  C   C3        1.0  0.9969759103709421  0.7857674537809557  0.26816787988412466  1.0000
  C   C4        1.0  0.996985531346766  0.7142284937822154  0.7318305722829097  1.0000
  C   C5        1.0  0.9431499855523524  0.3260550698216492  0.802452039630872  1.0000
  C   C6        1.0  0.9431399081117673  0.1739467278989792  0.19754841879694857  1.0000
  C   C7        1.0  0.056841037065090895  0.6739489528885869  0.19754687313357522  1.0000
  C   C8        1.0  0.056855826883157996  0.8260502197009812  0.8024507176999123  1.0000
  C   C9        1.0  0.7489552682668829  0.3371415721488091  0.8880077342427415  1.0000
  C   C10       1.0  0.7489483284999493  0.1628621231964473  0.11199482595286982  1.0000
  C   C11       1.0  0.2510286860458351  0.6628580221149251  0.11199214675765037  1.0000
  C   C12       1.0  0.25105683100215254  0.8371348243785945  0.8880043105347539  1.0000
  C   C13       1.0  0.607099283768825  0.23843983639930147  0.9046003432729324  1.0000
  C   C14       1.0  0.6071007294916911  0.2615699140238874  0.09540251144566271  1.0000
  C   C15       1.0  0.39289173887919304  0.7615624160855743  0.09539880951318473  1.0000
  C   C16       1.0  0.3929091421851822  0.7384314503966605  0.9045971295076358  1.0000
  C   C17       1.0  0.6605925389245685  0.12808861462670512  0.8311203684560413  1.0000
  C   C18       1.0  0.6605826992054703  0.37191909430070785  0.16888114867045095  1.0000
  C   C19       1.0  0.3394173327683845  0.8719118675829733  0.1688790243332718  1.0000
  C   C20       1.0  0.33942010412476986  0.6280805115204018  0.8311172596121426  1.0000
  C   C21       1.0  0.8564884057314615  0.1155039515498686  0.7457247740680091  1.0000
  C   C22       1.0  0.8564777325279422  0.38450096273555096  0.254275126137344  1.0000
  C   C23       1.0  0.1435167536612454  0.8844991831085025  0.2542746268682379  1.0000
  C   C24       1.0  0.14352978309937467  0.615495979029653  0.7457247466976257  1.0000
  C   C25       1.0  0.4090239277703986  0.2500059138536201  7.448978677900907e-07  1.0000
  C   C26       1.0  0.5909765194298799  0.749993680366501  0.9999991360863522  1.0000
  N   N1        1.0  0.20850279536588798  0.20040672655397884  0.6454571471496992  1.0000
  N   N2        1.0  0.2084946489345754  0.2995927925897348  0.3545415424190638  1.0000
  N   N3        1.0  0.7915000078807779  0.7995972787142734  0.35454397465216664  1.0000
  N   N4        1.0  0.7915105105996928  0.7004023905635606  0.6454570977405751  1.0000
  Cl  Cl1       1.0  0.6141594597279223  0.09780660989157039  0.4225943633764687  1.0000
  Cl  Cl2       1.0  0.6141608216030291  0.4021925166625309  0.5774054995259733  1.0000
  Cl  Cl3       1.0  0.3858409874676028  0.9021929669177242  0.5774077266567234  1.0000
  Cl  Cl4       1.0  0.3858419817240345  0.5978070775513588  0.42259438145593725  1.0000
