data_image0
_chemical_formula_structural       Ag8P4H8C4O12
_chemical_formula_sum              "Ag8 P4 H8 C4 O12"
_cell_length_a       5.716317037088784
_cell_length_b       8.53294471894494
_cell_length_c       9.023586780588833
_cell_angle_alpha    90.00115239465951
_cell_angle_beta     90.00162071193998
_cell_angle_gamma    100.3718572843366

_space_group_name_H-M_alt    "P 1"
_space_group_IT_number       1

loop_
  _space_group_symop_operation_xyz
  'x, y, z'

loop_
  _atom_site_type_symbol
  _atom_site_label
  _atom_site_symmetry_multiplicity
  _atom_site_fract_x
  _atom_site_fract_y
  _atom_site_fract_z
  _atom_site_occupancy
  Ag  Ag1       1.0  0.9662652921673852  0.5630688522663191  0.3570939765542249  1.0000
  Ag  Ag2       1.0  0.46624036782826284  0.06305891291070508  0.1429214446384606  1.0000
  Ag  Ag3       1.0  0.03374147931769037  0.4369364332749796  0.6429284170926195  1.0000
  Ag  Ag4       1.0  0.5337269220762693  0.9369420822402643  0.8570876501236313  1.0000
  Ag  Ag5       1.0  0.5475209424828407  0.33314784069241904  0.46881402262291516  1.0000
  Ag  Ag6       1.0  0.047498361338249154  0.8331317210563965  0.031187772277832  1.0000
  Ag  Ag7       1.0  0.45247176835378156  0.6668571835812854  0.531178449309401  1.0000
  Ag  Ag8       1.0  0.9524787811120705  0.16685878369423074  0.9688135650273538  1.0000
  P   P1        1.0  0.9655044655946269  0.1842199490916059  0.3290538365242526  1.0000
  P   P2        1.0  0.4655019918641727  0.6842185684037356  0.1709583387180302  1.0000
  P   P3        1.0  0.03449378999666659  0.8157863640140305  0.6709430682983566  1.0000
  P   P4        1.0  0.5344958199212684  0.3157628323728473  0.8290230509682885  1.0000
  H   H1        1.0  0.7735864892280516  0.062437395806845986  0.5459812815742566  1.0000
  H   H2        1.0  0.2736088406932566  0.5624510696127272  0.9539810769655829  1.0000
  H   H3        1.0  0.22641431675305765  0.9375571055047369  0.4540067575050344  1.0000
  H   H4        1.0  0.7264150847321884  0.43754504651253245  0.0460047459278599  1.0000
  H   H5        1.0  0.7893872995374026  0.9216246792435852  0.4017154980538677  1.0000
  H   H6        1.0  0.28941243143916756  0.42162041865588396  0.0982636124737155  1.0000
  H   H7        1.0  0.21056823222158985  0.07837846949473708  0.5982891637936589  1.0000
  H   H8        1.0  0.7106375846261133  0.5783749959171087  0.9017432665813628  1.0000
  C   C1        1.0  0.8915095915000891  0.023303867065685296  0.46258721543200215  1.0000
  C   C2        1.0  0.39153175477359536  0.5233444794514596  0.0374194265988521  1.0000
  C   C3        1.0  0.1085407194957924  0.9767081552212243  0.5373930668214442  1.0000
  C   C4        1.0  0.6084859575147804  0.47665507922954464  0.9625763701313091  1.0000
  O   O1        1.0  0.1338536957637686  0.3255680866639281  0.401174075621725  1.0000
  O   O2        1.0  0.6338375056040775  0.8255787412629298  0.0988524331597347  1.0000
  O   O3        1.0  0.8661212928614931  0.6744283077407471  0.5988361273740068  1.0000
  O   O4        1.0  0.3661617148511668  0.17443944900293212  0.9011644195068556  1.0000
  O   O5        1.0  0.7269932358778206  0.23652760351702531  0.2841276583411414  1.0000
  O   O6        1.0  0.227017878158108  0.7364982651956281  0.2158656180830505  1.0000
  O   O7        1.0  0.2730081146127361  0.7634692797692819  0.7158659217997182  1.0000
  O   O8        1.0  0.7729737206594506  0.2634865782276918  0.7841323946806328  1.0000
  O   O9        1.0  0.0814993734555998  0.11967410117010498  0.1924918644802389  1.0000
  O   O10       1.0  0.5814648659372779  0.6196863712996502  0.3074898634035037  1.0000
  O   O11       1.0  0.918495094979697  0.8803309557715264  0.8075050402956236  1.0000
  O   O12       1.0  0.4185402954708124  0.3803271854610059  0.6925170154125198  1.0000
