data_image0
_chemical_formula_structural       Cu3H48C54N6O12
_chemical_formula_sum              "Cu3 H48 C54 N6 O12"
_cell_length_a       7.707202897082854
_cell_length_b       15.702000580145892
_cell_length_c       15.692317600622836
_cell_angle_alpha    117.39992966866893
_cell_angle_beta     99.39711653437774
_cell_angle_gamma    99.40632070685535

_space_group_name_H-M_alt    "P 1"
_space_group_IT_number       1

loop_
  _space_group_symop_operation_xyz
  'x, y, z'

loop_
  _atom_site_type_symbol
  _atom_site_label
  _atom_site_symmetry_multiplicity
  _atom_site_fract_x
  _atom_site_fract_y
  _atom_site_fract_z
  _atom_site_occupancy
  Cu  Cu1       1.0  0.9999977736195619  0.4999993349928858  0.4999993989993925  1.0000
  Cu  Cu2       1.0  0.5000003645075637  5.384606040999554e-07  0.5000011658268733  1.0000
  Cu  Cu3       1.0  0.5000004072641744  0.49999954229161864  9.360758210858108e-08  1.0000
  H   H1        1.0  0.5630858911104754  0.6727319631775973  0.7239537681815733  1.0000
  H   H2        1.0  0.4846233455016532  0.713792562046237  0.8337318345619877  1.0000
  H   H3        1.0  0.46002416875298024  0.7721264698381135  0.7594305302094142  1.0000
  H   H4        1.0  0.2144625478275445  0.6179959121972946  0.8177180546596787  1.0000
  H   H5        1.0  0.09467517807627962  0.5444088472506152  0.8800116665148464  1.0000
  H   H6        1.0  0.6089866450405381  0.4802785670728937  0.6538898708701809  1.0000
  H   H7        1.0  0.4250821243587311  0.4657930568717675  0.7673364621687213  1.0000
  H   H8        1.0  0.8906900599263067  0.5305448496931577  0.9827585560508113  1.0000
  H   H9        1.0  0.4369140432714929  0.3272660795369191  0.27604389229215087  1.0000
  H   H10       1.0  0.5153739542400473  0.2862054814426572  0.16626688719117058  1.0000
  H   H11       1.0  0.539973508019898  0.22787231866767144  0.2405672901233942  1.0000
  H   H12       1.0  0.7855341886563778  0.38200362171257046  0.1822793948925039  1.0000
  H   H13       1.0  0.9053258716267365  0.45559143228419424  0.11998775002182067  1.0000
  H   H14       1.0  0.39100839934528153  0.5197202219544651  0.3461083735529229  1.0000
  H   H15       1.0  0.574920233651575  0.5342072232870619  0.23266497248479104  1.0000
  H   H16       1.0  0.10931210509775725  0.46945766666193134  0.01724261654879202  1.0000
  H   H17       1.0  0.890639025176732  0.051170006251396706  0.3271125918875413  1.0000
  H   H18       1.0  0.7710549424030689  0.11989131517305653  0.2862261120055932  1.0000
  H   H19       1.0  0.6881238201885509  0.9872748869695512  0.2277714401590102  1.0000
  H   H20       1.0  0.5968505407415419  0.19966025155218148  0.3821716977585794  1.0000
  H   H21       1.0  0.5502654313184792  0.33528312069027066  0.45553653599644406  1.0000
  H   H22       1.0  0.1282789085111204  0.17352602780138685  0.5196330921128904  1.0000
  H   H23       1.0  0.9591211516746508  0.3015244355243709  0.5341798463160075  1.0000
  H   H24       1.0  0.3604310809585698  0.45195670226179635  0.4694576952460636  1.0000
  H   H25       1.0  0.1093599599034292  0.9488287828784082  0.6728872465621121  1.0000
  H   H26       1.0  0.228940472254294  0.880108219629598  0.7137731425645838  1.0000
  H   H27       1.0  0.31187290502931125  0.012724648204319098  0.7722291953388734  1.0000
  H   H28       1.0  0.403145069155272  0.8003370468014027  0.6178271816763613  1.0000
  H   H29       1.0  0.449736556420291  0.6647164136932561  0.5444638885099877  1.0000
  H   H30       1.0  0.8717195088048441  0.8264742522549966  0.48036674851407196  1.0000
  H   H31       1.0  0.04087952775682886  0.6984750982351429  0.46581856007358624  1.0000
  H   H32       1.0  0.6395709112866185  0.5480428316161294  0.5305414548820906  1.0000
  H   H33       1.0  0.8391226160896252  0.2759093827037874  0.9486814753300051  1.0000
  H   H34       1.0  0.6508973406394958  0.16628601206596028  0.879958413686289  1.0000
  H   H35       1.0  0.7004958866246865  0.24059293736618062  0.012665849506795711  1.0000
  H   H36       1.0  0.3970192376048444  0.18243885381114922  0.8001512751636567  1.0000
  H   H37       1.0  0.21458476437298662  0.12008459194242958  0.664384783562042  1.0000
  H   H38       1.0  0.9552744394216505  0.34641625339914855  0.8265911524060884  1.0000
  H   H39       1.0  0.6579017749202976  0.23310547763560416  0.6988374488605089  1.0000
  H   H40       1.0  0.9079139076211573  0.0175552577340667  0.5478661520341461  1.0000
  H   H41       1.0  0.16087579446669772  0.724090898110994  0.0513202768643737  1.0000
  H   H42       1.0  0.34910107442325256  0.8337142682432201  0.12004206412981225  1.0000
  H   H43       1.0  0.29950478379394246  0.7594065974045352  0.9873351056393532  1.0000
  H   H44       1.0  0.6029795454762309  0.8175621725261312  0.199850849988657  1.0000
  H   H45       1.0  0.7854153360282295  0.8799164340076614  0.3356168109505545  1.0000
  H   H46       1.0  0.04472923590878252  0.6535840263724921  0.17340975160770708  1.0000
  H   H47       1.0  0.342100762628519  0.7668977842419838  0.3011640966970291  1.0000
  H   H48       1.0  0.09208451420122545  0.9824450218167088  0.45213241421453176  1.0000
  C   C1        1.0  0.4552121766120792  0.70071756131145  0.757292600469924  1.0000
  C   C2        1.0  0.2704041835109407  0.627684811360531  0.6933810968953863  1.0000
  C   C3        1.0  0.1589119537743003  0.591500625765953  0.7389244400308357  1.0000
  C   C4        1.0  0.9769226400280219  0.5322860081998044  0.6936888037557409  1.0000
  C   C5        1.0  0.86735317686977  0.5167536374493125  0.7582472700489404  1.0000
  C   C6        1.0  0.9475466890680053  0.5288623749625146  0.8514101296561661  1.0000
  C   C7        1.0  0.6761188392937569  0.49190456713017044  0.7264477828669413  1.0000
  C   C8        1.0  0.5742523642313913  0.48372779685779227  0.7892217557905639  1.0000
  C   C9        1.0  0.8342309568142099  0.5197018439031353  0.9089272076848685  1.0000
  C   C10       1.0  0.5447871900056924  0.29928197232964493  0.24270506218110197  1.0000
  C   C11       1.0  0.7295972387168349  0.37231621369677015  0.3066186925992085  1.0000
  C   C12       1.0  0.8410876103361389  0.40849667117327465  0.261072210295815  1.0000
  C   C13       1.0  0.02307277913576662  0.46771352609724914  0.3063091764361516  1.0000
  C   C14       1.0  0.13264561747737258  0.4832473876239548  0.2417516691576722  1.0000
  C   C15       1.0  0.05245473541297944  0.47113864984198983  0.14858902264928991  1.0000
  C   C16       1.0  0.3238788352259121  0.5080942216284184  0.27355067465501287  1.0000
  C   C17       1.0  0.42574699562674573  0.5162717375417075  0.21077781842787865  1.0000
  C   C18       1.0  0.16577083343189267  0.48029992718226583  0.09107422914594565  1.0000
  C   C19       1.0  0.7547969519205466  0.056533078957336606  0.2992351948215344  1.0000
  C   C20       1.0  0.6430624152044615  0.0656734850308993  0.3723736788320053  1.0000
  C   C21       1.0  0.567665205176553  0.14736670718996686  0.40861934061025096  1.0000
  C   C22       1.0  0.44451828718148073  0.16127305526257632  0.4677181951372447  1.0000
  C   C23       1.0  0.3504521104855129  0.2413400207863461  0.48324459427527694  1.0000
  C   C24       1.0  0.41864845315350857  0.32230675394166747  0.47109403927695576  1.0000
  C   C25       1.0  0.18391766007625424  0.23441664799283762  0.5080269720420887  1.0000
  C   C26       1.0  0.09038975454178912  0.3054065806064301  0.5162215875534456  1.0000
  C   C27       1.0  0.31463409586146435  0.38901229655897407  0.480282733077658  1.0000
  C   C28       1.0  0.24520072034591336  0.9434657100540564  0.7007638998895516  1.0000
  C   C29       1.0  0.35693788268941523  0.9343253042173246  0.6276269033562157  1.0000
  C   C30       1.0  0.4323320923119383  0.852631336551724  0.5913800183320461  1.0000
  C   C31       1.0  0.5554810681702307  0.8387264796425244  0.5322826534594824  1.0000
  C   C32       1.0  0.6495485644395346  0.7586595134787688  0.5167550864925943  1.0000
  C   C33       1.0  0.5813535345852543  0.6776927804418663  0.5289063852294759  1.0000
  C   C34       1.0  0.8160803869681673  0.7655828862882431  0.4919718584378003  1.0000
  C   C35       1.0  0.9096116676859793  0.6945944444508784  0.4837782019411492  1.0000
  C   C36       1.0  0.6853682621488416  0.6109879835998485  0.5197187015758544  1.0000
  C   C37       1.0  0.6979245399851879  0.24267506458019034  0.9433330516654549  1.0000
  C   C38       1.0  0.5771879827840962  0.3066622453912232  0.9341971289732811  1.0000
  C   C39       1.0  0.42022234140522835  0.26121132878683545  0.8524457864360854  1.0000
  C   C40       1.0  0.2833819998352709  0.3064424021308341  0.838532704970305  1.0000
  C   C41       1.0  0.10917596214708422  0.24194070921947036  0.7585729148989202  1.0000
  C   C42       1.0  0.09613121021985901  0.14877398597558064  0.6774982947480694  1.0000
  C   C43       1.0  0.949821365913344  0.2738577929326452  0.7656517943086384  1.0000
  C   C44       1.0  0.7851523496936181  0.21116160264446654  0.6947791797955318  1.0000
  C   C45       1.0  0.9253085734496551  0.0913838829913587  0.6108731079148767  1.0000
  C   C46       1.0  0.30207350029959207  0.7573244704592954  0.056667690381850454  1.0000
  C   C47       1.0  0.42281343493724693  0.6933387801716863  0.0658039348995986  1.0000
  C   C48       1.0  0.5797804003958902  0.7387896956304729  0.14755283522966064  1.0000
  C   C49       1.0  0.7166228020822769  0.6935601131970869  0.1614667691607251  1.0000
  C   C50       1.0  0.8908263958632148  0.7580595709393521  0.241428519754585  1.0000
  C   C51       1.0  0.9038715158087739  0.8512270402113417  0.32250478724165527  1.0000
  C   C52       1.0  0.050177037883337106  0.7261424886405478  0.2343518694531638  1.0000
  C   C53       1.0  0.21484869324976338  0.788838677648748  0.3052221483085518  1.0000
  C   C54       1.0  0.07469415933861265  0.9086171424371586  0.38912806250742443  1.0000
  N   N1        1.0  0.6515614478728722  0.49856112756940263  0.8796920464673404  1.0000
  N   N2        1.0  0.34843902955951483  0.5014406433975864  0.1203086466249061  1.0000
  N   N3        1.0  0.15304395631493864  0.3810059569538211  0.5014389205318466  1.0000
  N   N4        1.0  0.8469567253697504  0.6189935765528886  0.498558848668601  1.0000
  N   N5        1.0  0.7719120597187724  0.12070068774379908  0.6190710542696465  1.0000
  N   N6        1.0  0.22808953528787168  0.8793033197906724  0.3809307576964045  1.0000
  O   O1        1.0  0.8896160043744956  0.4930102186792311  0.6017572049257679  1.0000
  O   O2        1.0  0.22776157122943633  0.6063226135017247  0.6022689644819224  1.0000
  O   O3        1.0  0.11038092509566166  0.5069870790343672  0.39824050668030964  1.0000
  O   O4        1.0  0.7722364780682014  0.3936769205265591  0.3977292288088206  1.0000
  O   O5        1.0  0.3961667048462658  0.10851971339690893  0.506808366018582  1.0000
  O   O6        1.0  0.6218749037100509  0.995970386287681  0.39373226011977647  1.0000
  O   O7        1.0  0.6038333955549434  0.8914813125531823  0.49319322849401465  1.0000
  O   O8        1.0  0.3781267137571759  0.0040284023205501  0.606267154239589  1.0000
  O   O9        1.0  0.2879829272155519  0.3983496772720799  0.8912170593165953  1.0000
  O   O10       1.0  0.6256948704182574  0.3977127140083426  0.003986369250476671  1.0000
  O   O11       1.0  0.712015860371949  0.6016513485595925  0.10878379145744084  1.0000
  O   O12       1.0  0.37430580000037145  0.6022868207623803  0.996014585895679  1.0000
