data_image0
_chemical_formula_structural       Sc4H28C36N8O24
_chemical_formula_sum              "Sc4 H28 C36 N8 O24"
_cell_length_a       5.6845723339488545
_cell_length_b       7.668358314036786
_cell_length_c       24.425292884236434
_cell_angle_alpha    90.0001013481647
_cell_angle_beta     93.99470333904922
_cell_angle_gamma    89.99965900286858

_space_group_name_H-M_alt    "P 1"
_space_group_IT_number       1

loop_
  _space_group_symop_operation_xyz
  'x, y, z'

loop_
  _atom_site_type_symbol
  _atom_site_label
  _atom_site_symmetry_multiplicity
  _atom_site_fract_x
  _atom_site_fract_y
  _atom_site_fract_z
  _atom_site_occupancy
  Sc  Sc1       1.0  0.7606657246972544  0.1733398644871045  0.25032619268738904  1.0000
  Sc  Sc2       1.0  0.7393389346148709  0.6733400193365923  0.24967350799747837  1.0000
  Sc  Sc3       1.0  0.23934093679180524  0.8266659577333545  0.7496730104535346  1.0000
  Sc  Sc4       1.0  0.2606535255114153  0.3266658029205445  0.750327892021744  1.0000
  H   H1        1.0  0.5194491349769095  0.41211103475524175  0.1918593608697279  1.0000
  H   H2        1.0  0.9805588185474859  0.9121143483850105  0.30814300474821726  1.0000
  H   H3        1.0  0.4805557159301159  0.5878908752919896  0.8081410374452107  1.0000
  H   H4        1.0  0.019438947408033896  0.08789147385972738  0.6918580828667303  1.0000
  H   H5        1.0  0.29173975180130896  0.1448785023875274  0.2615323904677567  1.0000
  H   H6        1.0  0.2082649600581448  0.644883951645859  0.23847019223245522  1.0000
  H   H7        1.0  0.7082634774431324  0.8551260157738696  0.7384642933419272  1.0000
  H   H8        1.0  0.791731121294525  0.3551140462367074  0.7615288174350284  1.0000
  H   H9        1.0  0.40019985191794655  0.026953547602516906  0.31274653254659773  1.0000
  H   H10       1.0  0.09981293117475332  0.5269592074317727  0.18725407744975092  1.0000
  H   H11       1.0  0.5997962923905577  0.9730509705761321  0.6872508405621645  1.0000
  H   H12       1.0  0.9001761754289888  0.4730466148209516  0.8127427575381959  1.0000
  H   H13       1.0  0.9524305640127011  0.4878443069901407  0.045877102565597704  1.0000
  H   H14       1.0  0.5475979625325279  0.9878424388168909  0.45412527680843356  1.0000
  H   H15       1.0  0.047581324609481605  0.5121536908628457  0.9541238338695381  1.0000
  H   H16       1.0  0.45242619089120234  0.0121555590151345  0.5458779310438899  1.0000
  H   H17       1.0  0.328876497539575  0.6560930620182148  0.11143200323935082  1.0000
  H   H18       1.0  0.1711335096370661  0.1560822726901847  0.38856822667648333  1.0000
  H   H19       1.0  0.6711389964960333  0.34391406424239784  0.8885669519881391  1.0000
  H   H20       1.0  0.8288624930246937  0.8439065967772165  0.6114328286891749  1.0000
  H   H21       1.0  0.78492689687112  0.16772799063625848  0.07517886281033272  1.0000
  H   H22       1.0  0.7150601105363704  0.6677278480719123  0.424822149317869  1.0000
  H   H23       1.0  0.21506909001922023  0.8322673991326538  0.9248226016969386  1.0000
  H   H24       1.0  0.28492531191110965  0.3322727579588758  0.5751787125789889  1.0000
  H   H25       1.0  0.600853959293637  0.5986691178535466  0.9827002033503478  1.0000
  H   H26       1.0  0.899174138658232  0.0986802002247131  0.5173007306156734  1.0000
  H   H27       1.0  0.3991507499354795  0.40132496784295313  0.0173038772233483  1.0000
  H   H28       1.0  0.10085014068238249  0.9013295341393929  0.4826992041188945  1.0000
  C   C1        1.0  0.10111650748249452  0.0696773214461928  0.11977251390587902  1.0000
  C   C2        1.0  0.3988818757962632  0.5696683220091214  0.3802266309876927  1.0000
  C   C3        1.0  0.8988901855026654  0.9303271967120139  0.8802258709546039  1.0000
  C   C4        1.0  0.6011106158624672  0.4303270677651555  0.6197739507489147  1.0000
  C   C5        1.0  0.2572603750651509  0.9254181848059273  0.1289131942231876  1.0000
  C   C6        1.0  0.24274399217717496  0.4254096007847535  0.37108628078404854  1.0000
  C   C7        1.0  0.7427480813124133  0.07457850898799731  0.8710852228807013  1.0000
  C   C8        1.0  0.7572555844226868  0.5745844849121866  0.6289136116531681  1.0000
  C   C9        1.0  0.2098226960226128  0.7653761450994523  0.1035242259695437  1.0000
  C   C10       1.0  0.2901793559649093  0.2653674843491558  0.39647674512779224  1.0000
  C   C11       1.0  0.7901822493623102  0.23462446088117866  0.8964737175046764  1.0000
  C   C12       1.0  0.7098201576635289  0.7346239932319633  0.6035247838690836  1.0000
  C   C13       1.0  0.006252015376198  0.7531222493598265  0.0693422823120571  1.0000
  C   C14       1.0  0.49374667045905335  0.2531115707813427  0.43065698191649204  1.0000
  C   C15       1.0  0.9937510564345042  0.2468770525720885  0.9306584928970666  1.0000
  C   C16       1.0  0.5062493794286738  0.7468799068029739  0.5693428460295848  1.0000
  C   C17       1.0  0.8584672635346491  0.898306578026549  0.055738845434497405  1.0000
  C   C18       1.0  0.6415301567604458  0.39831185312650047  0.4442649567189535  1.0000
  C   C19       1.0  0.14152160692886176  0.10168881176178247  0.9442641266519872  1.0000
  C   C20       1.0  0.35845876092903234  0.6016861447787463  0.5557367879479501  1.0000
  C   C21       1.0  0.9069072974929355  0.0589169675516672  0.0817796275274958  1.0000
  C   C22       1.0  0.5930859137130965  0.5589186281012741  0.4182202022589153  1.0000
  C   C23       1.0  0.0930940109668938  0.9410797262638511  0.9182211154357489  1.0000
  C   C24       1.0  0.4068995402356705  0.44107936980717  0.5817798413571894  1.0000
  C   C25       1.0  0.7087509610317326  0.6801049358502668  0.010836086180283606  1.0000
  C   C26       1.0  0.7912624454248558  0.18011630788552682  0.48916418808534  1.0000
  C   C27       1.0  0.2912485053395812  0.3198917579744459  0.9891666702380277  1.0000
  C   C28       1.0  0.20874602663585753  0.8198960346283357  0.5108338198822011  1.0000
  C   C29       1.0  0.11601257877186544  0.225753816219509  0.1570985984050353  1.0000
  C   C30       1.0  0.3839969209368873  0.725738169620655  0.3429004371607363  1.0000
  C   C31       1.0  0.8839889028619652  0.7742493978844818  0.8428976440190042  1.0000
  C   C32       1.0  0.6159973340882984  0.27425591608976413  0.6571001768208264  1.0000
  C   C33       1.0  0.4747974234446204  0.9373460409350683  0.1653997173735959  1.0000
  C   C34       1.0  0.025203306332223004  0.4373408279921095  0.3346001079467058  1.0000
  C   C35       1.0  0.5252145124087235  0.0626532609747414  0.834599991641646  1.0000
  C   C36       1.0  0.9747838637414432  0.5626571699158233  0.665401195334866  1.0000
  N   N1        1.0  0.675888473409671  0.8480705743494781  0.018438096466994097  1.0000
  N   N2        1.0  0.8241130625906833  0.3480765474806446  0.48156083664690646  1.0000
  N   N3        1.0  0.3241074505196337  0.1519195991834366  0.9815650045993183  1.0000
  N   N4        1.0  0.17588479783234587  0.6519305788176624  0.518437796127941  1.0000
  N   N5        1.0  0.9041022592972823  0.6146655463397721  0.040574851551639306  1.0000
  N   N6        1.0  0.595920500868111  0.11466457845472888  0.4594251437300941  1.0000
  N   N7        1.0  0.09590959784437558  0.3853298433952119  0.9594269031630137  1.0000
  N   N8        1.0  0.4041002203161952  0.8853308112581502  0.540575544790677  1.0000
  O   O1        1.0  0.5568332059705057  0.0873634443663818  0.1787537492163551  1.0000
  O   O2        1.0  0.9431668164489223  0.587355252210571  0.32124663219374133  1.0000
  O   O3        1.0  0.44317702949819443  0.9126371616029374  0.8212442909936613  1.0000
  O   O4        1.0  0.056825643713715096  0.41264144162596483  0.678754767823307  1.0000
  O   O5        1.0  0.1541617540756377  0.3762004913937104  0.1394235786539824  1.0000
  O   O6        1.0  0.34587643023035497  0.8761929266822789  0.3605785313478621  1.0000
  O   O7        1.0  0.8458467652525811  0.6238040267563818  0.860573201891498  1.0000
  O   O8        1.0  0.6541090552145049  0.12380376716390627  0.6394206939877948  1.0000
  O   O9        1.0  0.640085692927606  0.421957806725665  0.222133280792697  1.0000
  O   O10       1.0  0.859923977045888  0.9219588837026365  0.2778683034645724  1.0000
  O   O11       1.0  0.3599067199727131  0.5780454074145638  0.7778693466461065  1.0000
  O   O12       1.0  0.14008093683774797  0.0780443304003313  0.7221304582904012  1.0000
  O   O13       1.0  0.4330801353203029  0.12404459395612827  0.2865429784536531  1.0000
  O   O14       1.0  0.0669265687903575  0.6240492281509376  0.21345799004050295  1.0000
  O   O15       1.0  0.5669230309579092  0.8759560120293555  0.7134553419153706  1.0000
  O   O16       1.0  0.9330642224629598  0.3759526819231951  0.7865409228921224  1.0000
  O   O17       1.0  0.5742348196910713  0.7947990582904153  0.18195946511267647  1.0000
  O   O18       1.0  0.9257671090827698  0.2947920098796785  0.31804026098772203  1.0000
  O   O19       1.0  0.4257700312055662  0.2052054598769857  0.8180409332028804  1.0000
  O   O20       1.0  0.07422182435215768  0.7052059880244813  0.6819610745391174  1.0000
  O   O21       1.0  0.07134628451810698  0.19508646297114043  0.2077407671984376  1.0000
  O   O22       1.0  0.4286545796047106  0.6950729689418296  0.2922597291425362  1.0000
  O   O23       1.0  0.9286568502068986  0.8049297917375496  0.7922583714544377  1.0000
  O   O24       1.0  0.5713343853263096  0.30492372490007813  0.7077407881038553  1.0000
