data_image0
_chemical_formula_structural       Cd3H42C34N2O26
_chemical_formula_sum              "Cd3 H42 C34 N2 O26"
_cell_length_a       10.050914757622737
_cell_length_b       11.409471251495715
_cell_length_c       10.613758305906563
_cell_angle_alpha    73.4556869232168
_cell_angle_beta     79.12973437730578
_cell_angle_gamma    73.58265519755422

_space_group_name_H-M_alt    "P 1"
_space_group_IT_number       1

loop_
  _space_group_symop_operation_xyz
  'x, y, z'

loop_
  _atom_site_type_symbol
  _atom_site_label
  _atom_site_symmetry_multiplicity
  _atom_site_fract_x
  _atom_site_fract_y
  _atom_site_fract_z
  _atom_site_occupancy
  Cd  Cd1       1.0  0.1805539142210222  0.1936662070724112  0.4110562062080378  1.0000
  Cd  Cd2       1.0  0.8194379913079004  0.8063319305137996  0.5889399520318935  1.0000
  Cd  Cd3       1.0  3.6596788530120475e-07  4.5359262941074495e-06  0.9999944595740973  1.0000
  H   H1        1.0  0.5763243822153754  0.6104764731498592  0.5584219964482957  1.0000
  H   H2        1.0  0.4236669752179479  0.389524139957203  0.441584693128114  1.0000
  H   H3        1.0  0.1888360562302367  0.5763670068670166  0.8047889333190317  1.0000
  H   H4        1.0  0.8111634027163674  0.4236377208051537  0.19522230529746307  1.0000
  H   H5        1.0  0.5299216557311793  0.24427517756847555  0.7951676519579254  1.0000
  H   H6        1.0  0.4700684967027227  0.7557296973776035  0.20482923353459628  1.0000
  H   H7        1.0  0.7940466016918748  0.5165127356614718  0.5799015479168619  1.0000
  H   H8        1.0  0.2059539128037428  0.4834954999762575  0.4201035100999207  1.0000
  H   H9        1.0  0.7499949694770222  0.4702695366682408  0.44940970225756177  1.0000
  H   H10       1.0  0.2499853597339197  0.5297455801215919  0.5505824934892589  1.0000
  H   H11       1.0  0.41421697917787975  0.7712380515471368  0.4511194371950753  1.0000
  H   H12       1.0  0.5857799646301131  0.22876045579820933  0.5488831938944403  1.0000
  H   H13       1.0  0.4881146370321332  0.8067742188056641  0.5718662550047287  1.0000
  H   H14       1.0  0.5118879300277611  0.19322574525590147  0.42812725125659784  1.0000
  H   H15       1.0  0.07779555420024307  0.4316558089733249  0.8402540252694595  1.0000
  H   H16       1.0  0.9221913067746783  0.568361994662425  0.15975201967412286  1.0000
  H   H17       1.0  0.12096605998377186  0.42574853139414887  0.9979388858236081  1.0000
  H   H18       1.0  0.8790310833345599  0.5742575924725202  0.002080773450401774  1.0000
  H   H19       1.0  0.4582714956680574  0.15497301486585266  0.20967046585364815  1.0000
  H   H20       1.0  0.541739870451117  0.8450208184353941  0.7903330427948919  1.0000
  H   H21       1.0  0.6085259097908704  0.278655351043426  0.05058298677944611  1.0000
  H   H22       1.0  0.3914897160881027  0.721338064043394  0.9494302550883591  1.0000
  H   H23       1.0  0.27409208185783035  0.6129769912506333  0.07325243122985362  1.0000
  H   H24       1.0  0.7259139647156233  0.3870138017087896  0.9267484512715712  1.0000
  H   H25       1.0  0.13929304592154068  0.47298790785986006  0.23384580255565623  1.0000
  H   H26       1.0  0.8607097214317034  0.5270036934853977  0.7661525707200243  1.0000
  H   H27       1.0  0.9542299481710543  0.09483965062326402  0.3633590815601836  1.0000
  H   H28       1.0  0.04577663378725562  0.9051488150432334  0.6366340490220852  1.0000
  H   H29       1.0  0.007592103989736583  0.18541825490066094  0.2317477461486989  1.0000
  H   H30       1.0  0.992410435921734  0.8145740407026096  0.768245701598403  1.0000
  H   H31       1.0  0.31255915930395156  0.17159801638614883  0.6565225148705737  1.0000
  H   H32       1.0  0.6874434094828885  0.8284099125895781  0.34347660873960706  1.0000
  H   H33       1.0  0.15659122866112085  0.24581418339246855  0.63767546045262  1.0000
  H   H34       1.0  0.8434039844914094  0.7541868071044604  0.36231999361665174  1.0000
  H   H35       1.0  0.11571063436406351  0.9769264199228118  0.2315548892331095  1.0000
  H   H36       1.0  0.8842931927750969  0.023068639978696105  0.7684363769704137  1.0000
  H   H37       1.0  0.10408583905328331  0.8389381071425744  0.24375839636428517  1.0000
  H   H38       1.0  0.8959200550878351  0.1610564978689979  0.7562241560153284  1.0000
  H   H39       1.0  0.8087647955944205  0.0688764409599827  0.2312629023446604  1.0000
  H   H40       1.0  0.1912364515974757  0.9311171469160869  0.7687369253290941  1.0000
  H   H41       1.0  0.8536730344477165  0.17984341828949374  0.12059341009858567  1.0000
  H   H42       1.0  0.14632111044507218  0.8201542124698092  0.8794110039877129  1.0000
  C   C1        1.0  0.5671156870448754  0.42266197720741877  0.675492731276812  1.0000
  C   C2        1.0  0.4328744073272546  0.5773395823072747  0.3245138529191963  1.0000
  C   C3        1.0  0.5133722296539815  0.5528398863142527  0.6298331004118012  1.0000
  C   C4        1.0  0.48662397125697504  0.44716540269720184  0.37017099661675  1.0000
  C   C5        1.0  0.37699576073994484  0.6046092943129723  0.6793146347904228  1.0000
  C   C6        1.0  0.6230017430913576  0.3954025685212201  0.32068684671545367  1.0000
  C   C7        1.0  0.2934226838941072  0.5304148016861134  0.7682028951258036  1.0000
  C   C8        1.0  0.706582173844552  0.46959603471271555  0.2317966385721349  1.0000
  C   C9        1.0  0.3483333936508616  0.4002594320002473  0.8050738619981177  1.0000
  C   C10       1.0  0.6516567562730843  0.5997534572693013  0.1949295673156968  1.0000
  C   C11       1.0  0.48606297926521336  0.34519280806836866  0.7615174220421823  1.0000
  C   C12       1.0  0.5139182325643786  0.6548118632311315  0.23849441730471463  1.0000
  C   C13       1.0  0.78824191951518  0.4350780334349267  0.54680009341908  1.0000
  C   C14       1.0  0.21176141633519302  0.5649268245805603  0.45319527732808496  1.0000
  C   C15       1.0  0.9341440244433629  0.3501021111182396  0.5368088570069746  1.0000
  C   C16       1.0  0.0658648646694004  0.6498850571723764  0.46317770586264845  1.0000
  C   C17       1.0  0.3892119576910105  0.806446084337402  0.5413854655938196  1.0000
  C   C18       1.0  0.6107935873928909  0.19354664064045585  0.4586157570472695  1.0000
  C   C19       1.0  0.30493021007996646  0.9413180842930586  0.5075528514917664  1.0000
  C   C20       1.0  0.6950722832254783  0.058674754812621216  0.49245078745214266  1.0000
  C   C21       1.0  0.13097210024177744  0.3697689255843883  0.9263507056080659  1.0000
  C   C22       1.0  0.8690253794230427  0.6302392265439282  0.0736530628217907  1.0000
  C   C23       1.0  0.05780017906335638  0.263128352967705  0.9869926621727177  1.0000
  C   C24       1.0  0.94220153446782  0.7368677053261622  0.013017509051529395  1.0000
  C   C25       1.0  0.4218257785830701  0.2570567642631972  0.17640743640851045  1.0000
  C   C26       1.0  0.5781883550659899  0.7429303265750988  0.8235951572014604  1.0000
  C   C27       1.0  0.50539740425927  0.3284930684877879  0.08617853127657331  1.0000
  C   C28       1.0  0.4946111930750376  0.6715115144381302  0.9138291643211789  1.0000
  C   C29       1.0  0.4564613181153587  0.4599745557360819  0.04643095958792998  1.0000
  C   C30       1.0  0.5435505096342226  0.5400098253163607  0.9535749298240295  1.0000
  C   C31       1.0  0.3209351538723766  0.5122458588418086  0.09949556100772126  1.0000
  C   C32       1.0  0.6790685940204496  0.4877461326748645  0.9005100362614658  1.0000
  C   C33       1.0  0.24379616072025095  0.4346356108358834  0.1893268947963591  1.0000
  C   C34       1.0  0.7562189928555725  0.565347418328301  0.8106713126445373  1.0000
  N   N1        1.0  0.2933105882142826  0.3088642169838779  0.22903082049213452  1.0000
  N   N2        1.0  0.7067005547000349  0.691130261166066  0.7709668361553882  1.0000
  O   O1        1.0  0.7014745005541271  0.36253753760779267  0.6398259571294604  1.0000
  O   O2        1.0  0.29851507239886377  0.6374621938101586  0.3601823276577465  1.0000
  O   O3        1.0  0.3135179699357024  0.7308337158082524  0.6432641518932556  1.0000
  O   O4        1.0  0.686482537341071  0.26917061148635923  0.3567394871577464  1.0000
  O   O5        1.0  0.2739368499833006  0.3181783578456034  0.8858545115885977  1.0000
  O   O6        1.0  0.7260729959745262  0.6818174619864552  0.11415045145801633  1.0000
  O   O7        1.0  0.9776210415011022  0.26852612198751313  0.6390322377734423  1.0000
  O   O8        1.0  0.022367789337856374  0.7314644118589159  0.36096535178265304  1.0000
  O   O9        1.0  0.005869215853685687  0.36844431057348714  0.4230060893913291  1.0000
  O   O10       1.0  0.9941185804062513  0.6315724528913265  0.5769624157023829  1.0000
  O   O11       1.0  0.36018516974019116  0.014589498461148808  0.4112217932322865  1.0000
  O   O12       1.0  0.6398143612339169  0.9854143892527393  0.5887736953527637  1.0000
  O   O13       1.0  0.18722031593824068  0.9780278260050256  0.5733079572369065  1.0000
  O   O14       1.0  0.8127898977513935  0.021977641137667106  0.42668024700735446  1.0000
  O   O15       1.0  0.9603814171606473  0.28059360174112413  0.08189212041578739  1.0000
  O   O16       1.0  0.039603106529476385  0.7194138730597786  0.9181180882880047  1.0000
  O   O17       1.0  0.0950773237949747  0.16946599190963954  0.9367294797917725  1.0000
  O   O18       1.0  0.9049116011999773  0.8305473990837485  0.06326550588970291  1.0000
  O   O19       1.0  0.040199195329954286  0.11887963354229925  0.3114891256818383  1.0000
  O   O20       1.0  0.9598030802625314  0.8811097938410342  0.6885044628779796  1.0000
  O   O21       1.0  0.2551105445858397  0.2372981057680761  0.5942816170898839  1.0000
  O   O22       1.0  0.7448887547095921  0.7627065256131333  0.4057098724390259  1.0000
  O   O23       1.0  0.13275559289482428  0.9131469521935501  0.1804911255219039  1.0000
  O   O24       1.0  0.8672512860227853  0.086847993580129  0.819497724378792  1.0000
  O   O25       1.0  0.812805733617715  0.1057542955279231  0.1351499953714921  1.0000
  O   O26       1.0  0.18719348344944814  0.894243309716025  0.8648534797848771  1.0000
