data_image0
_chemical_formula_structural       K2Cu2H16C24I2N4O8
_chemical_formula_sum              "K2 Cu2 H16 C24 I2 N4 O8"
_cell_length_a       8.65813305597829
_cell_length_b       9.186784345635978
_cell_length_c       9.18682358834902
_cell_angle_alpha    99.07632434677565
_cell_angle_beta     98.1177877262631
_cell_angle_gamma    98.1171278048205

_space_group_name_H-M_alt    "P 1"
_space_group_IT_number       1

loop_
  _space_group_symop_operation_xyz
  'x, y, z'

loop_
  _atom_site_type_symbol
  _atom_site_label
  _atom_site_symmetry_multiplicity
  _atom_site_fract_x
  _atom_site_fract_y
  _atom_site_fract_z
  _atom_site_occupancy
  K   K1        1.0  0.9999835074359494  0.5000144288623642  0.5000037166007301  1.0000
  K   K2        1.0  0.5000176804984235  0.5000072487102543  0.499997249443197  1.0000
  Cu  Cu1       1.0  5.427299257098943e-06  2.098142161297875e-06  0.5000021177330038  1.0000
  Cu  Cu2       1.0  0.4999967529754556  0.4999979620336746  0.9999997267136461  1.0000
  H   H1        1.0  0.6620541025996542  0.8304593584574887  0.8748053865744365  1.0000
  H   H2        1.0  0.8379538303970547  0.12518945388568878  0.16953374626277196  1.0000
  H   H3        1.0  0.33795128172327793  0.16954266348343333  0.1251975538251031  1.0000
  H   H4        1.0  0.16204223310332816  0.8748057555820948  0.830463707117026  1.0000
  H   H5        1.0  0.4734014681622439  0.013194822228797396  0.8274261743056002  1.0000
  H   H6        1.0  0.026603725553108894  0.17257277979143734  0.9867984731864324  1.0000
  H   H7        1.0  0.5266035360522493  0.9868049559864148  0.17257528807967049  1.0000
  H   H8        1.0  0.9733932576942903  0.8274280117963853  0.013198857240162462  1.0000
  H   H9        1.0  0.5208127590263841  0.17661275398096166  0.6415436309939435  1.0000
  H   H10       1.0  0.9791909756466664  0.3584627276383046  0.8233852446431978  1.0000
  H   H11       1.0  0.4791895277947447  0.8233847572811044  0.3584560525265131  1.0000
  H   H12       1.0  0.020806405151517982  0.6415403232147978  0.17661574550559314  1.0000
  H   H13       1.0  0.8849278932020253  0.8217964125833814  0.729946700525083  1.0000
  H   H14       1.0  0.6150787397453923  0.2700516344819234  0.17820089333527275  1.0000
  H   H15       1.0  0.11507812012479227  0.178202282576926  0.27005799126720115  1.0000
  H   H16       1.0  0.38491534913617886  0.7299457799445715  0.8217955555003085  1.0000
  C   C1        1.0  0.7729828298430873  0.18793313272129808  0.48450965714386734  1.0000
  C   C2        1.0  0.727019624839258  0.5154970514270758  0.8120678931030552  1.0000
  C   C3        1.0  0.22702142287568708  0.8120621658122714  0.5154899400668355  1.0000
  C   C4        1.0  0.27297659603762975  0.48450599558209007  0.18793403747441315  1.0000
  C   C5        1.0  0.6785190439868954  0.9068470496942634  0.7967967277495019  1.0000
  C   C6        1.0  0.8214891611669797  0.20320110900151178  0.09314782036291547  1.0000
  C   C7        1.0  0.3214848090274741  0.09315273244679638  0.20320676591841644  1.0000
  C   C8        1.0  0.17850296181694597  0.796798518153487  0.9068487147824197  1.0000
  C   C9        1.0  0.7308511686881118  0.09014675856143128  0.5943263678760786  1.0000
  C   C10       1.0  0.7691470496841359  0.4056753133688814  0.9098489456521363  1.0000
  C   C11       1.0  0.2691530578671575  0.9098485166627837  0.4056699567727406  1.0000
  C   C12       1.0  0.2308487998054716  0.594325497684359  0.09015259776503368  1.0000
  C   C13       1.0  0.5745899658055789  0.006214853075022097  0.7697093299860213  1.0000
  C   C14       1.0  0.9254135256293947  0.23029071036335577  0.9937789772820265  1.0000
  C   C15       1.0  0.4254144813280049  0.9937815712062981  0.2302915516588015  1.0000
  C   C16       1.0  0.07458366075397997  0.7697112147419957  0.00622072843265186  1.0000
  C   C17       1.0  0.6006670628905509  0.09850077524524888  0.6659980805235859  1.0000
  C   C18       1.0  0.8993384521815668  0.33400794838761527  0.9014987840506093  1.0000
  C   C19       1.0  0.3993387385791322  0.9014967786277448  0.33400314512666524  1.0000
  C   C20       1.0  0.10065675958299637  0.6659961816764548  0.09849991711985233  1.0000
  C   C21       1.0  0.8047991483851432  0.9020139508562081  0.7182578131694584  1.0000
  C   C22       1.0  0.6952049176554239  0.2817413950895896  0.09798129011181089  1.0000
  C   C23       1.0  0.1952031471571587  0.09798356817564267  0.28174296120495507  1.0000
  C   C24       1.0  0.3047905430045787  0.7182571644681557  0.9020176844371262  1.0000
  I   I1        1.0  0.7500003422423372  0.725044406476506  0.2749508995190836  1.0000
  I   I2        1.0  0.2500014576627194  0.27495751069522356  0.7250417719189739  1.0000
  N   N1        1.0  0.8306933569275257  0.993416335100356  0.6207178881931055  1.0000
  N   N2        1.0  0.6693097214811132  0.37928191808565254  0.006582192724813797  1.0000
  N   N3        1.0  0.16931107276371898  0.006580073641394797  0.37928081174379696  1.0000
  N   N4        1.0  0.33068205627903063  0.6207154964227684  0.9934172278220996  1.0000
  O   O1        1.0  0.8996789353769968  0.16640819662664794  0.42961490119166246  1.0000
  O   O2        1.0  0.6003180615727998  0.5703819033886006  0.8335897316224958  1.0000
  O   O3        1.0  0.1003215908360886  0.83358591800868  0.5703796877472128  1.0000
  O   O4        1.0  0.3996775935020054  0.4296177819168887  0.1664105273605613  1.0000
  O   O5        1.0  0.6915722832701263  0.28463218630968606  0.4541376864024683  1.0000
  O   O6        1.0  0.8084268349310332  0.5458711042329297  0.7153696734583403  1.0000
  O   O7        1.0  0.30843390702916196  0.7153676190588029  0.5458661081160087  1.0000
  O   O8        1.0  0.19156823474573062  0.4541319467020913  0.2846342884017687  1.0000
