data_image0
_chemical_formula_structural       Zn2H10C18N2O10F12
_chemical_formula_sum              "Zn2 H10 C18 N2 O10 F12"
_cell_length_a       7.177510084274747
_cell_length_b       8.531942800202009
_cell_length_c       11.13240189243743
_cell_angle_alpha    107.04266671957555
_cell_angle_beta     89.99948673064702
_cell_angle_gamma    89.99932983139938

_space_group_name_H-M_alt    "P 1"
_space_group_IT_number       1

loop_
  _space_group_symop_operation_xyz
  'x, y, z'

loop_
  _atom_site_type_symbol
  _atom_site_label
  _atom_site_symmetry_multiplicity
  _atom_site_fract_x
  _atom_site_fract_y
  _atom_site_fract_z
  _atom_site_occupancy
  Zn  Zn1       1.0  0.999997243339152  0.49999653392230653  0.5000027140399013  1.0000
  Zn  Zn2       1.0  0.49999933904275906  0.4999986258435313  0.5000019401581781  1.0000
  H   H1        1.0  0.7500018293472835  0.12027927674711947  0.7746066609413802  1.0000
  H   H2        1.0  0.2500066014538191  0.8797217226486251  0.22538909393867357  1.0000
  H   H3        1.0  0.7499934758982006  0.9005935090898728  0.5919672526770369  1.0000
  H   H4        1.0  0.24999823602792054  0.09940503164430226  0.4080288379697663  1.0000
  H   H5        1.0  0.7500066700249873  0.5762545619671896  0.8246479984176318  1.0000
  H   H6        1.0  0.250007333673004  0.42375131285405826  0.175352465183245  1.0000
  H   H7        1.0  0.750006343609215  0.8251181212258272  0.013759919948412889  1.0000
  H   H8        1.0  0.2500118397928405  0.17488773252717482  0.9862432337000443  1.0000
  H   H9        1.0  0.7500060754572929  0.10657393839193927  0.9810802840282095  1.0000
  H   H10       1.0  0.25001350125373994  0.893428279795877  0.01891664798920091  1.0000
  C   C1        1.0  0.7499930193419075  0.876786866775859  0.6823050020174577  1.0000
  C   C2        1.0  0.24999451282424454  0.12321534460967593  0.3176928268293935  1.0000
  C   C3        1.0  0.7499968599872203  0.7157263900071907  0.6920296061518769  1.0000
  C   C4        1.0  0.25000042483578977  0.2842770261524805  0.3079711932157423  1.0000
  C   C5        1.0  0.750005882660709  0.6993396620328127  0.8145675842045962  1.0000
  C   C6        1.0  0.2500095142946961  0.30066499391368495  0.1854317022038359  1.0000
  C   C7        1.0  0.7500097714159892  0.8375374753093893  0.9194125997616281  1.0000
  C   C8        1.0  0.2500139849843066  0.16246718058199142  0.0805866866100757  1.0000
  C   C9        1.0  0.7500032172704963  0.993129691863984  0.9046190367994029  1.0000
  C   C10       1.0  0.25000660676275294  0.0068737733079373975  0.09537548569258551  1.0000
  C   C11       1.0  0.7499773274242616  0.527177787980875  0.2797325529921367  1.0000
  C   C12       1.0  0.24999766555947642  0.4728182169425565  0.7202737369965533  1.0000
  C   C13       1.0  0.7499948748422014  0.543074434385346  0.1433879539999126  1.0000
  C   C14       1.0  0.2500024099797784  0.4569240291629058  0.8566180001975425  1.0000
  C   C15       1.0  0.7499828360925704  0.19107322412510536  0.4264583474174373  1.0000
  C   C16       1.0  0.25000330285369904  0.8089265355113751  0.5735389204401713  1.0000
  C   C17       1.0  0.7500027720771245  0.0063135529454996005  0.3483939335040276  1.0000
  C   C18       1.0  0.24999172630178632  0.9936861926087414  0.651605127694161  1.0000
  N   N1        1.0  0.7500011513398164  0.006094750934899198  0.7861640097746944  1.0000
  N   N2        1.0  0.2500030997161177  0.9939074603404092  0.21383381899870096  1.0000
  O   O1        1.0  0.7499942609483697  0.5898505555691925  0.5897614863080491  1.0000
  O   O2        1.0  0.24999466445502352  0.4101491759946682  0.4102393682919114  1.0000
  O   O3        1.0  0.9098249937202852  0.5191849350090436  0.32347364585400135  1.0000
  O   O4        1.0  0.40980263268787104  0.48081756446427437  0.6765305131962833  1.0000
  O   O5        1.0  0.09018204374196163  0.4808159521789077  0.676536456050556  1.0000
  O   O6        1.0  0.5901974387109662  0.5191748187649237  0.323467761680007  1.0000
  O   O7        1.0  0.9093968581338387  0.2529917724023036  0.44983229604382297  1.0000
  O   O8        1.0  0.40938089135609346  0.7470131844329657  0.5501724277356459  1.0000
  O   O9        1.0  0.0905990334927722  0.747004267451139  0.550169510409802  1.0000
  O   O10       1.0  0.5906136070567599  0.2529804106849767  0.44982792104009667  1.0000
  F   F1        1.0  0.902537642854611  0.6229244624099832  0.11820243356655878  1.0000
  F   F2        1.0  0.4025654479240758  0.37709778897887947  0.881800897126503  1.0000
  F   F3        1.0  0.09744710263692011  0.3770923823942311  0.8818086248397918  1.0000
  F   F4        1.0  0.5974248708395891  0.6228872250127606  0.118197488183867  1.0000
  F   F5        1.0  0.7500174344657325  0.3894201796371845  0.057530105967686006  1.0000
  F   F6        1.0  0.24999796251059786  0.6105820245510641  0.9424686194453926  1.0000
  F   F7        1.0  0.7500009245185525  0.996655267238701  0.22259605738896943  1.0000
  F   F8        1.0  0.2499921806238774  0.0033432454320418995  0.7774036200063037  1.0000
  F   F9        1.0  0.902207806280977  0.9230400416638671  0.36922200491941487  1.0000
  F   F10       1.0  0.4021847318922838  0.07696264943901807  0.6307705641119981  1.0000
  F   F11       1.0  0.09779087185535218  0.07695850603793279  0.6307731890081314  1.0000
  F   F12       1.0  0.5978125529700477  0.9230383360030956  0.36922698419432015  1.0000
