data_image0
_chemical_formula_structural       K4H24C24S4N4O24
_chemical_formula_sum              "K4 H24 C24 S4 N4 O24"
_cell_length_a       7.14147419200685
_cell_length_b       10.733659359720019
_cell_length_c       12.606188670934808
_cell_angle_alpha    106.53599428461266
_cell_angle_beta     90.00014200751156
_cell_angle_gamma    89.99989026887987

_space_group_name_H-M_alt    "P 1"
_space_group_IT_number       1

loop_
  _space_group_symop_operation_xyz
  'x, y, z'

loop_
  _atom_site_type_symbol
  _atom_site_label
  _atom_site_symmetry_multiplicity
  _atom_site_fract_x
  _atom_site_fract_y
  _atom_site_fract_z
  _atom_site_occupancy
  K   K1        1.0  0.4559532339047436  0.5619306686424321  0.2592362235799044  1.0000
  K   K2        1.0  0.9559551795916903  0.4380677280409769  0.24075968431034767  1.0000
  K   K3        1.0  0.5440497262668913  0.43807582950569207  0.7407673849222293  1.0000
  K   K4        1.0  0.0440477805783317  0.5619329378085279  0.7592393392646102  1.0000
  H   H1        1.0  0.0881273724723428  0.6849758739354  0.4108279976249563  1.0000
  H   H2        1.0  0.5881262086057646  0.3150228443437085  0.08917223292046116  1.0000
  H   H3        1.0  0.911871386886979  0.31502382038306104  0.5891715840201215  1.0000
  H   H4        1.0  0.4118697502131141  0.6849749062899588  0.9108268781956141  1.0000
  H   H5        1.0  0.042903922994490494  0.7649397144535682  0.3297500099516455  1.0000
  H   H6        1.0  0.542904746761124  0.23505807098212017  0.1702491382223812  1.0000
  H   H7        1.0  0.9570948363639431  0.23506095170790783  0.6702498069571022  1.0000
  H   H8        1.0  0.4570940126008693  0.7649387078073174  0.829749737631694  1.0000
  H   H9        1.0  0.6383544793834728  0.9004336024750684  0.08611114125151423  1.0000
  H   H10       1.0  0.1383545511860831  0.09956507183333227  0.41388835568053395  1.0000
  H   H11       1.0  0.36164848079177137  0.09956706430486409  0.9138902623323162  1.0000
  H   H12       1.0  0.861647008717199  0.9004346227940585  0.5861120193024973  1.0000
  H   H13       1.0  0.8466250840976458  0.09561496388223388  0.1389155956335699  1.0000
  H   H14       1.0  0.3466239940900876  0.9043825572338091  0.36108312034051687  1.0000
  H   H15       1.0  0.1533792763452624  0.9043837582806444  0.8610829574148794  1.0000
  H   H16       1.0  0.653378966080787  0.09561908076884858  0.6389169318344018  1.0000
  H   H17       1.0  0.32661507033361664  0.8430235247417172  0.11559734561859607  1.0000
  H   H18       1.0  0.8266170600496637  0.1569740140768872  0.3844021399008497  1.0000
  H   H19       1.0  0.6733850892994439  0.15697519804327698  0.884402794099941  1.0000
  H   H20       1.0  0.1733844998474652  0.8430285954592447  0.6155973542006095  1.0000
  H   H21       1.0  0.11881080842787378  0.6499028977316214  0.0664580666405925  1.0000
  H   H22       1.0  0.6188110543592558  0.35009287865634053  0.4335422879348769  1.0000
  H   H23       1.0  0.8811893512034885  0.35009388074706743  0.9335400158780232  1.0000
  H   H24       1.0  0.38118910527113314  0.6499087596576698  0.5664585575746628  1.0000
  C   C1        1.0  0.8665554285347525  0.7647017445788931  0.07243122802228184  1.0000
  C   C2        1.0  0.3665565676404654  0.23529575983197043  0.427569098323751  1.0000
  C   C3        1.0  0.1334433308298273  0.23529600667384187  0.9275694697680449  1.0000
  C   C4        1.0  0.6334435919916643  0.764705878792192  0.5724325405220867  1.0000
  C   C5        1.0  0.7887996400134298  0.8890503805096653  0.09340225042673458  1.0000
  C   C6        1.0  0.2887996468563117  0.11094621871765037  0.4065953681911054  1.0000
  C   C7        1.0  0.2112033201635981  0.11094834258425115  0.9065986826297561  1.0000
  C   C8        1.0  0.7112019130460822  0.8890544477527484  0.5934052420555956  1.0000
  C   C9        1.0  0.9040516624281166  0.9979691030888701  0.12337870417874795  1.0000
  C   C10       1.0  0.4040518530892783  0.0020283687287160996  0.37662166675134773  1.0000
  C   C11       1.0  0.0959512977506449  0.0020296203151915  0.8766230222140409  1.0000
  C   C12       1.0  0.5959497068139683  0.997973269894835  0.6233799720953144  1.0000
  C   C13       1.0  0.0967632032709318  0.978670155185817  0.13000863746805882  1.0000
  C   C14       1.0  0.5967613216911687  0.021327584054027696  0.3699921614179403  1.0000
  C   C15       1.0  0.9032397569052433  0.02132759575494699  0.8699912669884783  1.0000
  C   C16       1.0  0.40324023821033717  0.9786740542593786  0.6300086840924378  1.0000
  C   C17       1.0  0.176231524300583  0.8551916275258763  0.1100399266840597  1.0000
  C   C18       1.0  0.676233573638612  0.14480409801778643  0.38995811615929915  1.0000
  C   C19       1.0  0.82376863533252  0.14480515126295757  0.8899589491708468  1.0000
  C   C20       1.0  0.32376798626289377  0.8551975402956198  0.610042729351072  1.0000
  C   C21       1.0  0.059608639045727295  0.7471073423177684  0.08178853402459646  1.0000
  C   C22       1.0  0.5596090991500375  0.25288945768487986  0.41821277875703805  1.0000
  C   C23       1.0  0.9403915205864876  0.2528904083140731  0.91821057709398  1.0000
  C   C24       1.0  0.4403924607566836  0.747112181558954  0.5817904467622129  1.0000
  S   S1        1.0  0.7184950754352926  0.6244942334821103  0.03158357059722757  1.0000
  S   S2        1.0  0.2184945875661484  0.37550437085398863  0.468415228288805  1.0000
  S   S3        1.0  0.2815008833835435  0.3755054611477106  0.9684168043824786  1.0000
  S   S4        1.0  0.7814999709737265  0.624496294378886  0.5315822086085689  1.0000
  N   N1        1.0  0.2194520973464549  0.09135372076826798  0.1553242364440095  1.0000
  N   N2        1.0  0.7194489357274706  0.9086419678283587  0.3446754444599519  1.0000
  N   N3        1.0  0.7805508628279795  0.9086440298623584  0.8446748746762297  1.0000
  N   N4        1.0  0.2805512239011775  0.09135967017551389  0.6553246077132969  1.0000
  O   O1        1.0  0.7567045536526678  0.5512824720406255  0.11107069596994987  1.0000
  O   O2        1.0  0.2567021046801159  0.4487141547763469  0.38892609114770943  1.0000
  O   O3        1.0  0.2432914051661328  0.44871916658535577  0.8889309428733867  1.0000
  O   O4        1.0  0.7432896533176178  0.5512826224654217  0.6110688180207475  1.0000
  O   O5        1.0  0.5256650842894146  0.6746268597005523  0.038801317807063564  1.0000
  O   O6        1.0  0.0256647099052003  0.3253709410306911  0.4611986032048208  1.0000
  O   O7        1.0  0.47433227479960743  0.325375750767833  0.9612005563007742  1.0000
  O   O8        1.0  0.9743340494550522  0.6746258374486016  0.5387994793129637  1.0000
  O   O9        1.0  0.7769108291418407  0.5563371943694264  0.9181144807816112  1.0000
  O   O10       1.0  0.2769112480819942  0.4436645648363609  0.5818837334161628  1.0000
  O   O11       1.0  0.22308232913740508  0.4436615287287464  0.08188645226905314  1.0000
  O   O12       1.0  0.7230819101806176  0.5563390153058592  0.41811282259880045  1.0000
  O   O13       1.0  0.1481277959333198  0.20108313765193486  0.1857427234222442  1.0000
  O   O14       1.0  0.6481234182647171  0.7989116411010282  0.3142566374096773  1.0000
  O   O15       1.0  0.8518751642428555  0.7989146132888291  0.8142571810342928  1.0000
  O   O16       1.0  0.3518767413630783  0.20108902474969165  0.6857423861636178  1.0000
  O   O17       1.0  0.392157338086534  0.0729045689959662  0.1444010420171224  1.0000
  O   O18       1.0  0.892154170983666  0.9270899967027972  0.3555962289682313  1.0000
  O   O19       1.0  0.6078456220879003  0.9270931816346601  0.8555980691031168  1.0000
  O   O20       1.0  0.1078459886484993  0.07290969792520488  0.6444041460139688  1.0000
  O   O21       1.0  0.128124541822352  0.6975166025021622  0.33950675105035794  1.0000
  O   O22       1.0  0.628125127547257  0.3024830528515564  0.16049376231811857  1.0000
  O   O23       1.0  0.8718728172649648  0.3024840636599179  0.6604930658575583  1.0000
  O   O24       1.0  0.3718736318137985  0.6975166417770494  0.83950661266325  1.0000
