data_image0
_chemical_formula_structural       Cd3H28C36N2O14
_chemical_formula_sum              "Cd3 H28 C36 N2 O14"
_cell_length_a       7.630109852461205
_cell_length_b       10.196199138602054
_cell_length_c       13.597550450906903
_cell_angle_alpha    68.45010652292684
_cell_angle_beta     80.71599430229364
_cell_angle_gamma    71.12427719997419

_space_group_name_H-M_alt    "P 1"
_space_group_IT_number       1

loop_
  _space_group_symop_operation_xyz
  'x, y, z'

loop_
  _atom_site_type_symbol
  _atom_site_label
  _atom_site_symmetry_multiplicity
  _atom_site_fract_x
  _atom_site_fract_y
  _atom_site_fract_z
  _atom_site_occupancy
  Cd  Cd1       1.0  0.17155959331719828  0.3468902541245882  0.45479230694100903  1.0000
  Cd  Cd2       1.0  0.8284410156254437  0.6531113424680441  0.5452056632597575  1.0000
  Cd  Cd3       1.0  0.5000024130275732  0.99999836223364  0.499998299214667  1.0000
  H   H1        1.0  0.14401055974885674  0.8668228000315776  0.4521958730753965  1.0000
  H   H2        1.0  0.8559871031042191  0.1331798882263868  0.5478064958306916  1.0000
  H   H3        1.0  0.21010034165469446  0.762593950336317  0.16777991169814752  1.0000
  H   H4        1.0  0.7898954655431822  0.2374065427009882  0.8322239792660682  1.0000
  H   H5        1.0  0.16422455502750213  0.20376604970213213  0.1502834837906235  1.0000
  H   H6        1.0  0.835776178022314  0.7962355240517027  0.8497196290293447  1.0000
  H   H7        1.0  0.4121414618673995  0.8158125339142541  0.03600976937533321  1.0000
  H   H8        1.0  0.5878621995423855  0.18418795143693248  0.9639882100794281  1.0000
  H   H9        1.0  0.46554019327421514  0.8776878699480194  0.8416010015701333  1.0000
  H   H10       1.0  0.5344657877366072  0.12231369650661608  0.15839866001678626  1.0000
  H   H11       1.0  0.10028418972451186  0.31374819543893306  0.7949222829105622  1.0000
  H   H12       1.0  0.8997164192181372  0.6862534011536993  0.20507568729020423  1.0000
  H   H13       1.0  0.0437009340471377  0.252814901543104  0.989331693301054  1.0000
  H   H14       1.0  0.9563005938583088  0.7471877942912003  0.010665148540709844  1.0000
  H   H15       1.0  0.3900968548073179  0.7938415638017631  0.7241935801345109  1.0000
  H   H16       1.0  0.6099053617043069  0.2061556219996135  0.2758069215890089  1.0000
  H   H17       1.0  0.27413990698072144  0.6569333526786137  0.8636339666525146  1.0000
  H   H18       1.0  0.7258587133988142  0.3430627473187541  0.13636718506687376  1.0000
  H   H19       1.0  0.3486628959239155  0.4633536726402241  0.884023718704924  1.0000
  H   H20       1.0  0.6513356889964328  0.5366424338825128  0.11597596369469443  1.0000
  H   H21       1.0  0.12687890712757613  0.5748730611601474  0.8305930790639168  1.0000
  H   H22       1.0  0.8731205967555765  0.4251241446042542  0.16940547497669203  1.0000
  H   H23       1.0  0.42659697389125023  0.5335268021095986  0.5937354556654171  1.0000
  H   H24       1.0  0.5734037622630267  0.4664670906673365  0.406266099007091  1.0000
  H   H25       1.0  0.22530276802606147  0.4935291187244317  0.6690375647246612  1.0000
  H   H26       1.0  0.7746985472523562  0.5064669645725886  0.3309648000177461  1.0000
  H   H27       1.0  0.4492520896925639  0.3873666276844503  0.7191645934679372  1.0000
  H   H28       1.0  0.5507492433154507  0.6126294523498858  0.2808385059343621  1.0000
  C   C1        1.0  0.15112669238184398  0.0465398101905379  0.3056550866474339  1.0000
  C   C2        1.0  0.848866026889695  0.9534618006135746  0.694347325743017  1.0000
  C   C3        1.0  0.15498192712508546  0.901060783393582  0.3662480726169762  1.0000
  C   C4        1.0  0.845008265614666  0.09894413896012111  0.6337529366097243  1.0000
  C   C5        1.0  0.1729062662249348  0.8002208880325129  0.3153056885920336  1.0000
  C   C6        1.0  0.8270892808534002  0.1997840074458779  0.6846962773609421  1.0000
  C   C7        1.0  0.19449817659562282  0.8439602247798419  0.20494872069912873  1.0000
  C   C8        1.0  0.8054959875740763  0.15604468557408777  0.795051169422564  1.0000
  C   C9        1.0  0.1910324296481748  0.9889176818692176  0.14304747401121898  1.0000
  C   C10       1.0  0.8089651800161164  0.0110850161767999  0.8569526909152146  1.0000
  C   C11       1.0  0.1647648383967422  0.09035392888210228  0.19495505735886107  1.0000
  C   C12       1.0  0.835227041631114  0.9096498938430101  0.8050446199504364  1.0000
  C   C13       1.0  0.22199862350649363  0.029120122760595297  0.027081765059485008  1.0000
  C   C14       1.0  0.7780024316523894  0.9708803629775102  0.9729186746716821  1.0000
  C   C15       1.0  0.3400533336495569  0.9242740882777767  0.9834050129119661  1.0000
  C   C16       1.0  0.6599482651742719  0.07572859450578309  0.016594767569337424  1.0000
  C   C17       1.0  0.37147437373872083  0.958687767625385  0.8746741511051468  1.0000
  C   C18       1.0  0.6285298490656144  0.0413149115085787  0.1253239037596359  1.0000
  C   C19       1.0  0.2865446568450807  0.0992526103689499  0.8054447403896107  1.0000
  C   C20       1.0  0.7134595305000603  0.9007500752903894  0.1945518451553952  1.0000
  C   C21       1.0  0.17042377721754323  0.20530476249856378  0.8481586746988727  1.0000
  C   C22       1.0  0.8295798664626517  0.7946957261153145  0.15183857009600396  1.0000
  C   C23       1.0  0.1388692149264017  0.17046433799808372  0.9574174699218574  1.0000
  C   C24       1.0  0.8611331344931299  0.8295361491779047  0.0425813723411609  1.0000
  C   C25       1.0  0.1450179814017787  0.15489587062738508  0.3569900455566639  1.0000
  C   C26       1.0  0.8549800390195512  0.8451057230894747  0.6430111195804004  1.0000
  C   C27       1.0  0.1681563259761986  0.6457997077744795  0.375908861112798  1.0000
  C   C28       1.0  0.8318438722093972  0.35420299314731096  0.6240881088773378  1.0000
  C   C29       1.0  0.3167150290023173  0.13104845992830857  0.6879754684234031  1.0000
  C   C30       1.0  0.6832828673118456  0.8689531566273558  0.31202055409445256  1.0000
  C   C31       1.0  0.41269617375385087  0.7202534224437968  0.6780737221377252  1.0000
  C   C32       1.0  0.587306042757774  0.2797437633575797  0.3219267795857945  1.0000
  C   C33       1.0  0.27137631347464014  0.5723751385816626  0.8326340383183536  1.0000
  C   C34       1.0  0.7286245378579536  0.42762205883257554  0.16736512223376823  1.0000
  C   C35       1.0  0.3653028124923026  0.4973261571281213  0.6737490028051952  1.0000
  C   C36       1.0  0.6346985027861151  0.5026699261688989  0.32625336193721927  1.0000
  N   N1        1.0  0.35557231963026936  0.6013034761811581  0.7258500915849666  1.0000
  N   N2        1.0  0.6444303076384015  0.3986926052910675  0.2741514103491838  1.0000
  O   O1        1.0  0.10010777369626565  0.29121249374966857  0.30521577288254065  1.0000
  O   O2        1.0  0.8998986712603879  0.7087879585877559  0.6947870928946784  1.0000
  O   O3        1.0  0.19043400300343188  0.10495423845580379  0.45481851023702563  1.0000
  O   O4        1.0  0.8095651787706543  0.8950440553243337  0.5451827168923841  1.0000
  O   O5        1.0  0.13073213033963074  0.6065565396547682  0.47594570734141683  1.0000
  O   O6        1.0  0.8692659255408941  0.3934450475367229  0.5240569271154172  1.0000
  O   O7        1.0  0.20490175958916987  0.555793865690667  0.3253209077466935  1.0000
  O   O8        1.0  0.7950994993960021  0.44420990837131297  0.6746808111635191  1.0000
  O   O9        1.0  0.41639133453317356  0.022860478114971296  0.6590097947880409  1.0000
  O   O10       1.0  0.5836078915008327  0.9771411333532  0.3409860995814429  1.0000
  O   O11       1.0  0.2409579938551261  0.2604568612771558  0.6274519598946071  1.0000
  O   O12       1.0  0.7590363417861353  0.7395436629491172  0.37254618193889394  1.0000
  O   O13       1.0  0.48643360169806005  0.7531492464666271  0.5849211655573756  1.0000
  O   O14       1.0  0.5135690255706108  0.24684683500559157  0.415080336376775  1.0000
