data_image0
_chemical_formula_structural       Zn16H20C96S16N8O68F4
_chemical_formula_sum              "Zn16 H20 C96 S16 N8 O68 F4"
_cell_length_a       19.62694419053589
_cell_length_b       19.619514292387002
_cell_length_c       33.348937864781696
_cell_angle_alpha    79.14338006171351
_cell_angle_beta     79.16777031574713
_cell_angle_gamma    63.86602910002399

_space_group_name_H-M_alt    "P 1"
_space_group_IT_number       1

loop_
  _space_group_symop_operation_xyz
  'x, y, z'

loop_
  _atom_site_type_symbol
  _atom_site_label
  _atom_site_symmetry_multiplicity
  _atom_site_fract_x
  _atom_site_fract_y
  _atom_site_fract_z
  _atom_site_occupancy
  Zn  Zn1       1.0  0.054431420991797104  0.4011841932304776  0.4774651260104079  1.0000
  Zn  Zn2       1.0  0.9876508934720932  0.48330556640194533  0.5602270085766178  1.0000
  Zn  Zn3       1.0  0.057831105107410984  0.5630031921057109  0.481885679693832  1.0000
  Zn  Zn4       1.0  0.8999806131811211  0.5542159897337341  0.47958954363438266  1.0000
  Zn  Zn5       1.0  0.6934445334391057  0.3497021741853955  0.2714104332563494  1.0000
  Zn  Zn6       1.0  0.6886120227640546  0.1902250101812086  0.26540713297685403  1.0000
  Zn  Zn7       1.0  0.7710010290544247  0.26468712814084217  0.18980321059363797  1.0000
  Zn  Zn8       1.0  0.8471700847190463  0.19573319272889475  0.27349088724560744  1.0000
  Zn  Zn9       1.0  0.2688797274443999  0.7660505261743964  0.6889126867563388  1.0000
  Zn  Zn10      1.0  0.350518924058413  0.695904628874032  0.7707779827924099  1.0000
  Zn  Zn11      1.0  0.19426141899841554  0.848332832950582  0.7707800981777524  1.0000
  Zn  Zn12      1.0  0.1921186180553747  0.6869576459622092  0.7650306593995494  1.0000
  Zn  Zn13      1.0  0.5615499261330399  0.05952873154144799  0.9820286684824566  1.0000
  Zn  Zn14      1.0  0.4012191830525254  0.05485775652053343  0.9779926808948146  1.0000
  Zn  Zn15      1.0  0.5559776924610987  0.9002480949344823  0.9775512931471796  1.0000
  Zn  Zn16      1.0  0.484997463314528  0.983127763291449  0.05978982926028919  1.0000
  H   H1        1.0  0.9489039084934631  0.24816872575311083  0.3536227409775634  1.0000
  H   H2        1.0  0.7459195903929299  0.4602732912054533  0.3490969028124482  1.0000
  H   H3        1.0  0.996605144587875  0.2978928515174955  0.40127418547692867  1.0000
  H   H4        1.0  0.1037900974006973  0.5910267871396114  0.6982816176997702  1.0000
  H   H5        1.0  0.2029580510886291  0.7024913232003341  0.5963174427990481  1.0000
  H   H6        1.0  0.0525138392448028  0.5493864319325467  0.6485629709311452  1.0000
  H   H7        1.0  0.462819859026915  0.2382142362106237  0.34232471047082663  1.0000
  H   H8        1.0  0.48396978000031526  0.7031173510684281  0.6005500637489334  1.0000
  H   H9        1.0  0.2033265687891372  0.9792202633414178  0.6006343654501973  1.0000
  H   H10       1.0  0.9519305904850697  0.9643923444645207  0.34355400859627855  1.0000
  H   H11       1.0  0.5491292830311069  0.053692413899817264  0.15148986434880374  1.0000
  H   H12       1.0  0.6532171577117722  0.1549861329905298  0.046833123173513506  1.0000
  H   H13       1.0  0.5967491336427173  0.10509052587512004  0.19823722180638728  1.0000
  H   H14       1.0  0.5460482270949784  0.7692804257926295  0.1484339388184566  1.0000
  H   H15       1.0  0.16155557966050083  0.14193872055285783  0.04193321872137549  1.0000
  H   H16       1.0  0.5005518357156263  0.7919104302675346  0.8998223734564661  1.0000
  H   H17       1.0  0.2947659303211196  0.0015661152532401943  0.9002362902438745  1.0000
  H   H18       1.0  0.449663453817486  0.7467116879852749  0.8516248608559778  1.0000
  H   H19       1.0  0.29804166830363243  0.28315867422570296  0.9031797253578302  1.0000
  H   H20       1.0  0.7874336653814709  0.009521053913601822  0.9063836784646923  1.0000
  C   C1        1.0  0.064335811091631  0.3174376601776529  0.5598491172504153  1.0000
  C   C2        1.0  0.07014795574816901  0.5719824465115194  0.5668330645052889  1.0000
  C   C3        1.0  0.1800149950662373  0.44079994431611874  0.437691064226108  1.0000
  C   C4        1.0  0.9353144227554894  0.6825219806702804  0.43859758697804807  1.0000
  C   C5        1.0  0.928187204048548  0.43093912112711763  0.4321782703887108  1.0000
  C   C6        1.0  0.8218860579029724  0.5594846540036044  0.5625188996570357  1.0000
  C   C7        1.0  0.5656487483999157  0.3098512164271412  0.3117549466162544  1.0000
  C   C8        1.0  0.6781119145128116  0.1872425273900615  0.17893279004775314  1.0000
  C   C9        1.0  0.694096573293649  0.4312238345663815  0.18869102009134758  1.0000
  C   C10       1.0  0.9354086030666906  0.18445735455672724  0.19157396991771236  1.0000
  C   C11       1.0  0.8155356585785256  0.3216715303917324  0.32031652849742187  1.0000
  C   C12       1.0  0.8125199499289125  0.0642696994630396  0.30889906620546265  1.0000
  C   C13       1.0  0.4359839642976624  0.6919654217396456  0.6875940762191205  1.0000
  C   C14       1.0  0.3185062864274287  0.818868053389927  0.8189111910594704  1.0000
  C   C15       1.0  0.18627287361912442  0.933564945479723  0.6875347516973632  1.0000
  C   C16       1.0  0.06766781040497702  0.8091951373205929  0.808735206449654  1.0000
  C   C17       1.0  0.1872542017172591  0.6751361118785223  0.6794119509453438  1.0000
  C   C18       1.0  0.3107044916667761  0.5689560723821214  0.8112709683539164  1.0000
  C   C19       1.0  0.43762270571107115  0.18402474819163206  0.9379903046905369  1.0000
  C   C20       1.0  0.43020269478982703  0.9281050468127174  0.9314911568119797  1.0000
  C   C21       1.0  0.6847609993459046  0.9380839293533966  0.9371258082556507  1.0000
  C   C22       1.0  0.5629397702841176  0.815683173113555  0.061428383532025115  1.0000
  C   C23       1.0  0.5705449500996097  0.07044455203954658  0.06801509407875274  1.0000
  C   C24       1.0  0.3166243787015404  0.06280382135573598  0.0613998817801829  1.0000
  C   C25       1.0  0.8982316950972375  0.4051900457449661  0.4027325444366241  1.0000
  C   C26       1.0  0.8444443137547708  0.3507754036820855  0.3487088253493198  1.0000
  C   C27       1.0  0.8276882387375295  0.45002756425861185  0.3873105423501997  1.0000
  C   C28       1.0  0.9153549863989457  0.30485608202978615  0.3633030731200718  1.0000
  C   C29       1.0  0.8006621547645666  0.42394009517958137  0.3605485692715149  1.0000
  C   C30       1.0  0.9416074500967754  0.3323526641864729  0.3897030842590182  1.0000
  C   C31       1.0  0.10007062160275382  0.6004373972002808  0.5949348860896676  1.0000
  C   C32       1.0  0.15698380269591894  0.6486938343170575  0.6503942721160882  1.0000
  C   C33       1.0  0.14253108730503783  0.6441320747495494  0.58103499993301  1.0000
  C   C34       1.0  0.11444993642546558  0.6055292085851532  0.6652578654265111  1.0000
  C   C35       1.0  0.17066563827818731  0.6683953916630755  0.6080938992302264  1.0000
  C   C36       1.0  0.08622696865748482  0.5823835099644509  0.6377011197028963  1.0000
  C   C37       1.0  0.3050573313808655  0.45433722533224596  0.4022860003357137  1.0000
  C   C38       1.0  0.4459016969438069  0.2955004645321677  0.34983626322124184  1.0000
  C   C39       1.0  0.2580653243202278  0.41600831774559294  0.4152994208256473  1.0000
  C   C40       1.0  0.4907589779451058  0.33548037635147676  0.33704420725609197  1.0000
  C   C41       1.0  0.37762367092353344  0.33965034979410547  0.37325286158920074  1.0000
  C   C42       1.0  0.3725191577555407  0.41191658042717433  0.3776299235929841  1.0000
  C   C43       1.0  0.7298085704638027  0.5790998961378829  0.6315030539426799  1.0000
  C   C44       1.0  0.5280074370868064  0.6745088763022832  0.6211014272688757  1.0000
  C   C45       1.0  0.7479214659828273  0.5873094971624508  0.5889400340294414  1.0000
  C   C46       1.0  0.511878248877821  0.665684245793045  0.6634559467113162  1.0000
  C   C47       1.0  0.6078068586782308  0.6418869069882261  0.6095755923964673  1.0000
  C   C48       1.0  0.6500429990780177  0.6088754541886058  0.6435051280940911  1.0000
  C   C49       1.0  0.07169502387832688  0.22655041292777858  0.6286103606223533  1.0000
  C   C50       1.0  0.1731553700978381  0.024044493626568905  0.6206247054599813  1.0000
  C   C51       1.0  0.08301724014489766  0.24333347067880595  0.5860881079121255  1.0000
  C   C52       1.0  0.1611839301265263  0.009181052572671374  0.6629464505512316  1.0000
  C   C53       1.0  0.140955918587764  0.10364565536328027  0.608329130444865  1.0000
  C   C54       1.0  0.10564360416341861  0.14715326067049253  0.6416469655818274  1.0000
  C   C55       1.0  0.8376502252090817  0.8035530571011404  0.3985074680706047  1.0000
  C   C56       1.0  0.9057873221506868  0.9460670513311839  0.34905043915204453  1.0000
  C   C57       1.0  0.9067370660915941  0.7591302947701664  0.41456676948198623  1.0000
  C   C58       1.0  0.8364564943337031  0.9889596388988404  0.33369358265463944  1.0000
  C   C59       1.0  0.9063420768014864  0.8776440446640235  0.37211143701747323  1.0000
  C   C60       1.0  0.8374663048294978  0.8704698939198035  0.37361962252042247  1.0000
  C   C61       1.0  0.6509662335128681  0.1587387120046273  0.1493806208817645  1.0000
  C   C62       1.0  0.5981561472945601  0.10102987943236733  0.09635611978644218  1.0000
  C   C63       1.0  0.6661250247535904  0.17185219660679238  0.10635007041577892  1.0000
  C   C64       1.0  0.5820906286347167  0.08696388833234894  0.13912611794263796  1.0000
  C   C65       1.0  0.6403653192586275  0.1437007805176336  0.07995629108429372  1.0000
  C   C66       1.0  0.6083692692004661  0.1155462383467522  0.1649506523828492  1.0000
  C   C67       1.0  0.6755239488537086  0.522360362993467  0.11936556834568533  1.0000
  C   C68       1.0  0.576687645645201  0.7247155285451181  0.128316904930216  1.0000
  C   C69       1.0  0.6657427020887994  0.5049030198833576  0.16193972133719106  1.0000
  C   C70       1.0  0.5882839571503382  0.7400222511580806  0.0859901297045411  1.0000
  C   C71       1.0  0.6097873088205575  0.6450141190628923  0.1403815833489332  1.0000
  C   C72       1.0  0.6453106551584683  0.6020205675362502  0.10687568617532862  1.0000
  C   C73       1.0  0.08492178344815221  0.1165272770344998  0.17975154763683318  1.0000
  C   C74       1.0  0.17052398809534  0.12475896185237895  0.0741597094489137  1.0000
  C   C75       1.0  0.0118811912121544  0.15516612351743217  0.1675012091804717  1.0000
  C   C76       1.0  0.2422840965267241  0.08670048500331971  0.0872316027209052  1.0000
  C   C77       1.0  0.11327071768759818  0.13678950587713956  0.1082036625512117  1.0000
  C   C78       1.0  0.1430686318572754  0.10730160209585186  0.14623677434116894  1.0000
  C   C79       1.0  0.3450406666284138  0.8480351108893912  0.8484165841302627  1.0000
  C   C80       1.0  0.40103122444504186  0.8995130798716953  0.9029494759929051  1.0000
  C   C81       1.0  0.30232065476597814  0.9197563732166211  0.8629197867927444  1.0000
  C   C82       1.0  0.4448263418947249  0.827438966638638  0.8893144235589432  1.0000
  C   C83       1.0  0.3293087215368544  0.9456585328685492  0.8897563521256231  1.0000
  C   C84       1.0  0.41669365497574523  0.8025090851483511  0.8625381131201378  1.0000
  C   C85       1.0  0.404309414000366  0.45298773549794175  0.8559264173038698  1.0000
  C   C86       1.0  0.3431527981987941  0.30273927722112143  0.8986581313981502  1.0000
  C   C87       1.0  0.3357099265427408  0.49640087755137335  0.839175945290222  1.0000
  C   C88       1.0  0.412558341724818  0.2602146290243609  0.9140296621824006  1.0000
  C   C89       1.0  0.3409382061907635  0.3726666322523966  0.8768888450740419  1.0000
  C   C90       1.0  0.40854014616913764  0.3816001430546193  0.8765810038129798  1.0000
  C   C91       1.0  0.9485900976166661  0.7905881250026495  0.8499078444995404  1.0000
  C   C92       1.0  0.8044319588005848  0.952092488867528  0.899063757579654  1.0000
  C   C93       1.0  0.9944358613766012  0.8299164257350209  0.835928181922654  1.0000
  C   C94       1.0  0.7598469389886732  0.911877459374395  0.9121255879668267  1.0000
  C   C95       1.0  0.8726927765163098  0.9079736706310864  0.8756456545289736  1.0000
  C   C96       1.0  0.8783015145339874  0.8352602193970565  0.8717449412788126  1.0000
  S   S1        1.0  0.29824417778226586  0.3267057816455645  0.39837588238219707  1.0000
  S   S2        1.0  0.45066734245970963  0.4264084670778342  0.3527942605918213  1.0000
  S   S3        1.0  0.6669327811210763  0.6337550887794874  0.5637660293469154  1.0000
  S   S4        1.0  0.592440718887353  0.6171441745295141  0.6894951997447122  1.0000
  S   S5        1.0  0.13334868215913082  0.16135159929880416  0.5619996833853803  1.0000
  S   S6        1.0  0.1122098953204045  0.09081264649768167  0.6880664712828802  1.0000
  S   S7        1.0  0.9704906446717344  0.8008305929677416  0.4001282415661152  1.0000
  S   S8        1.0  0.7723500528771368  0.9466193059261272  0.34636560787274817  1.0000
  S   S9        1.0  0.6168267158219366  0.5865831181330065  0.1864445683754709  1.0000
  S   S10       1.0  0.6395500568113163  0.6588288994771643  0.06066990379239464  1.0000
  S   S11       1.0  0.014774990711515602  0.17779207495595264  0.114666433438785  1.0000
  S   S12       1.0  0.2410531296867191  0.06611744181321201  0.1404877941760461  1.0000
  S   S13       1.0  0.2751741713678229  0.4507566315026139  0.8503449753567124  1.0000
  S   S14       1.0  0.4754164903516838  0.30403526467375724  0.9021542741070688  1.0000
  S   S15       1.0  0.9523160808126008  0.9208315256582434  0.8509236306604463  1.0000
  S   S16       1.0  0.799457849508464  0.821350915207169  0.895907290380144  1.0000
  N   N1        1.0  0.2934828322157799  0.5274082535831041  0.41343806474753814  1.0000
  N   N2        1.0  0.7826337220767243  0.5494251904790132  0.6625344897883989  1.0000
  N   N3        1.0  0.026583795005422003  0.2807302302929883  0.6582608274155176  1.0000
  N   N4        1.0  0.7686583899228268  0.7902580572278239  0.40718644980749014  1.0000
  N   N5        1.0  0.7079190319568482  0.4687350089445557  0.08872406611120447  1.0000
  N   N6        1.0  0.1044189136607585  0.08297502980413186  0.2211562422661686  1.0000
  N   N7        1.0  0.4658202355146557  0.47555559403296127  0.8560584422227818  1.0000
  N   N8        1.0  0.9683986602159608  0.7108649103939868  0.8464549695398345  1.0000
  O   O1        1.0  0.0006660762086597004  0.4995886541991012  0.49964654459877517  1.0000
  O   O2        1.0  0.0645376623444989  0.3154158499125329  0.5216445511559654  1.0000
  O   O3        1.0  0.0212525209078152  0.5454534879302384  0.5837327771657356  1.0000
  O   O4        1.0  0.1405257457031936  0.5119433550432003  0.4392034976019445  1.0000
  O   O5        1.0  0.0524076156874216  0.37497467137804097  0.5768790239299335  1.0000
  O   O6        1.0  0.159060725689308  0.386850415495246  0.4523673440476158  1.0000
  O   O7        1.0  0.0958534780392313  0.575322043353445  0.5288114445835603  1.0000
  O   O8        1.0  0.993889220200636  0.6657814302455587  0.4565495518792487  1.0000
  O   O9        1.0  0.8807182057363931  0.48689503310887244  0.4513109129192258  1.0000
  O   O10       1.0  0.9019515937100948  0.6400443220149152  0.4382913806463407  1.0000
  O   O11       1.0  0.9993866687787828  0.3934961254674573  0.4361124317393745  1.0000
  O   O12       1.0  0.8792799845798173  0.5058634374850042  0.5779579416003597  1.0000
  O   O13       1.0  0.8195835091756294  0.5917382055112196  0.525271199845335  1.0000
  O   O14       1.0  0.7494709115827477  0.25019258359773716  0.25021578153494767  1.0000
  O   O15       1.0  0.5976503668025117  0.3560183787908568  0.30507779329651186  1.0000
  O   O16       1.0  0.6657540398804684  0.1644202958710252  0.21699227205070304  1.0000
  O   O17       1.0  0.7480041258365305  0.37382236632964777  0.1733559722055844  1.0000
  O   O18       1.0  0.5915096575158003  0.24464641271246268  0.2989512995177961  1.0000
  O   O19       1.0  0.6621985055218929  0.4335554141409473  0.2259346341016339  1.0000
  O   O20       1.0  0.7109250128662552  0.23148576283475097  0.1642578696263541  1.0000
  O   O21       1.0  0.8794352717514187  0.20405485899013326  0.1709438721846013  1.0000
  O   O22       1.0  0.855220925772855  0.25235018374806345  0.31346389960408055  1.0000
  O   O23       1.0  0.9315011181342356  0.19004325921576978  0.22931222970398582  1.0000
  O   O24       1.0  0.7537710006988334  0.3682707271449103  0.30537848949925456  1.0000
  O   O25       1.0  0.7450591262862645  0.09315500619630496  0.29835325514441274  1.0000
  O   O26       1.0  0.8607392939130208  0.09378143343053583  0.30050693070970874  1.0000
  O   O27       1.0  0.2509942581667488  0.7492249922147066  0.7490857092700267  1.0000
  O   O28       1.0  0.37801937713621214  0.7233976938322256  0.6675991983636465  1.0000
  O   O29       1.0  0.35925942254448273  0.7493646412095315  0.812156319135063  1.0000
  O   O30       1.0  0.1656334531911341  0.9334025676749957  0.7262941758251031  1.0000
  O   O31       1.0  0.435547949655124  0.6808836004956759  0.726680121753887  1.0000
  O   O32       1.0  0.2258972947858525  0.8756488987575393  0.6680495527963898  1.0000
  O   O33       1.0  0.25849804536957777  0.8651285814710473  0.8026267244393493  1.0000
  O   O34       1.0  0.1024105625287604  0.8514658836023652  0.8081910735187136  1.0000
  O   O35       1.0  0.1780981249257962  0.6512344794681653  0.7175186632111091  1.0000
  O   O36       1.0  0.08814214901309471  0.7542333609903337  0.7877788283500564  1.0000
  O   O37       1.0  0.21962391593302044  0.7195342976652055  0.6636359826671381  1.0000
  O   O38       1.0  0.3613656671432466  0.5915236134997455  0.793267662537765  1.0000
  O   O39       1.0  0.23937501320481405  0.600808531900874  0.8069166461959583  1.0000
  O   O40       1.0  0.5007011313819874  0.9994982018667923  0.9994275100224  1.0000
  O   O41       1.0  0.5051334082020347  0.15553804234527738  0.9484712918828393  1.0000
  O   O42       1.0  0.387026193155549  0.994491131878156  0.9421991234484394  1.0000
  O   O43       1.0  0.6525540139426199  0.8920389703456231  0.9443229261707912  1.0000
  O   O44       1.0  0.39023100511834496  0.15353836413911628  0.9461288897061734  1.0000
  O   O45       1.0  0.6589010336342724  0.003786588405141307  0.9493720299167662  1.0000
  O   O46       1.0  0.495832880734639  0.8838461613358105  0.9427360624368288  1.0000
  O   O47       1.0  0.5807578877107815  0.8156364723504268  0.0225154295788599  1.0000
  O   O48       1.0  0.5339991902925476  0.030281979332990278  0.084772227637302  1.0000
  O   O49       1.0  0.5257537800418888  0.8738552705554732  0.08102253779852485  1.0000
  O   O50       1.0  0.5858812996126873  0.08698123160825579  0.02951512217999413  1.0000
  O   O51       1.0  0.31542317430000116  0.077817578191599  0.0225460950356222  1.0000
  O   O52       1.0  0.37563623718767053  0.028692361579558675  0.0806758517409989  1.0000
  O   O53       1.0  0.32352787119542376  0.5640488041980658  0.3876147476417557  1.0000
  O   O54       1.0  0.2588649541349781  0.546517250152341  0.4472704582515874  1.0000
  O   O55       1.0  0.7592720827978711  0.522134352557138  0.6961688774977545  1.0000
  O   O56       1.0  0.8435837808322619  0.5560651615931671  0.6545612238859632  1.0000
  O   O57       1.0  0.0478014749460343  0.26172101103844614  0.6931944094375879  1.0000
  O   O58       1.0  0.9702244588300671  0.3385174258414309  0.6477821768107219  1.0000
  O   O59       1.0  0.7251530182402631  0.8186039076335089  0.3797960074395164  1.0000
  O   O60       1.0  0.7559537446615323  0.7558998890078568  0.4406815157113114  1.0000
  O   O61       1.0  0.7380726647508667  0.49116961831624895  0.05577762906068529  1.0000
  O   O62       1.0  0.7009910016866173  0.40791249025603066  0.09623473884089151  1.0000
  O   O63       1.0  0.16643707218306503  0.07820869188692106  0.22854112918303568  1.0000
  O   O64       1.0  0.0615260885626299  0.058970690967385074  0.24515974266018498  1.0000
  O   O65       1.0  0.530681819119522  0.42193704273900307  0.8573669924130483  1.0000
  O   O66       1.0  0.45017799881659226  0.5435775086153001  0.8567749092960353  1.0000
  O   O67       1.0  0.913529167745068  0.6959442030316224  0.8449563905383001  1.0000
  O   O68       1.0  0.035669024690498895  0.6638526560669006  0.8471241536377717  1.0000
  F   F1        1.0  0.7835980937863313  0.5215761578093986  0.39745358681460624  1.0000
  F   F2        1.0  0.15661298122794423  0.6655427710717914  0.540452342060682  1.0000
  F   F3        1.0  0.7072929987573956  0.21205622671217128  0.08878628154774051  1.0000
  F   F4        1.0  0.2321748477344983  0.9667329728590198  0.8515566440007162  1.0000
