data_image0
_chemical_formula_structural       Zn4H48C72N24O16
_chemical_formula_sum              "Zn4 H48 C72 N24 O16"
_cell_length_a       5.595608164334625
_cell_length_b       18.99787916971093
_cell_length_c       20.450634894045923
_cell_angle_alpha    90.00322378326649
_cell_angle_beta     90.00086262934613
_cell_angle_gamma    89.99919425781032

_space_group_name_H-M_alt    "P 1"
_space_group_IT_number       1

loop_
  _space_group_symop_operation_xyz
  'x, y, z'

loop_
  _atom_site_type_symbol
  _atom_site_label
  _atom_site_symmetry_multiplicity
  _atom_site_fract_x
  _atom_site_fract_y
  _atom_site_fract_z
  _atom_site_occupancy
  Zn  Zn1       1.0  0.13386600026356632  0.7500214068334261  0.5000148701788376  1.0000
  Zn  Zn2       1.0  0.866105309704146  0.24997450207485636  1.52639092263e-05  1.0000
  Zn  Zn3       1.0  0.8661077859418427  0.2500129623310842  0.49999729776668295  1.0000
  Zn  Zn4       1.0  0.13388854310071  0.7499813666849067  5.942306906100001e-06  1.0000
  H   H1        1.0  0.9498062592955918  0.6147455431413962  0.555825633972681  1.0000
  H   H2        1.0  0.05031910425979899  0.38527611809512763  0.055810327406099695  1.0000
  H   H3        1.0  0.9497733845942377  0.8852894641805449  0.4441556666197641  1.0000
  H   H4        1.0  0.05030974038495369  0.11468181180708835  0.9441608257399494  1.0000
  H   H5        1.0  0.05023901135286481  0.38529935263719756  0.44416648622614463  1.0000
  H   H6        1.0  0.9497905010609601  0.6147098228759378  0.9441607648233658  1.0000
  H   H7        1.0  0.05028618205292901  0.1147327967969574  0.5558100478398273  1.0000
  H   H8        1.0  0.9497355283885512  0.8852609673324068  0.055832269133333105  1.0000
  H   H9        1.0  0.726632749970243  0.4614258215271577  0.4109815610136849  1.0000
  H   H10       1.0  0.2733936977930966  0.5385833912727875  0.9109756234090228  1.0000
  H   H11       1.0  0.7266998206498626  0.0386143399378227  0.5890142439746812  1.0000
  H   H12       1.0  0.27334282604257243  0.9613788609726656  0.08902161081015691  1.0000
  H   H13       1.0  0.27338035255154847  0.538613284395936  0.5890139817890444  1.0000
  H   H14       1.0  0.7267016105670907  0.461394127935435  0.0890018252816631  1.0000
  H   H15       1.0  0.2733865531487538  0.9614073950221568  0.4109734747465979  1.0000
  H   H16       1.0  0.7266809973282663  0.0385591810101218  0.9109753957120432  1.0000
  H   H17       1.0  0.6169316318351576  0.6674051284283352  0.5423906704772108  1.0000
  H   H18       1.0  0.38306632882870423  0.3326022233522323  0.04236544001229701  1.0000
  H   H19       1.0  0.6169688061520803  0.8326168636784034  0.4576172077828531  1.0000
  H   H20       1.0  0.38304871382811  0.16735345910381483  0.9576260767653436  1.0000
  H   H21       1.0  0.38304394133340475  0.33262608236502444  0.45761660754759254  1.0000
  H   H22       1.0  0.6169789406982035  0.6673837184431903  0.9576252113398526  1.0000
  H   H23       1.0  0.3830871863494992  0.1673932910799749  0.5423646426954463  1.0000
  H   H24       1.0  0.6169465161971815  0.832598269088301  0.0423841326453598  1.0000
  H   H25       1.0  0.4881840453466282  0.5448161276544141  0.37225376034189855  1.0000
  H   H26       1.0  0.5120410694428728  0.4552176039664246  0.872274533410348  1.0000
  H   H27       1.0  0.48821444536658015  0.9552573501083547  0.6277216460544821  1.0000
  H   H28       1.0  0.5118958147478878  0.044738701540083504  0.1277264755951535  1.0000
  H   H29       1.0  0.5118219088048832  0.4552356111284936  0.6277344481131167  1.0000
  H   H30       1.0  0.48827941630140975  0.5447699157902548  0.1277342110776019  1.0000
  H   H31       1.0  0.5118737155367512  0.04479017660337801  0.372240646419165  1.0000
  H   H32       1.0  0.4882066405748163  0.9551614404893343  0.8722475477448982  1.0000
  H   H33       1.0  0.1913289018322004  0.6821324632081558  0.7500036084565239  1.0000
  H   H34       1.0  0.8085412318220193  0.31792769853029074  0.24999242362410712  1.0000
  H   H35       1.0  0.1914808484754147  0.817891265142052  0.2500078581690985  1.0000
  H   H36       1.0  0.8083874962824995  0.1820673064443525  0.7499935494395303  1.0000
  H   H37       1.0  0.6071761801640606  0.7761591764047964  0.6447953703360555  1.0000
  H   H38       1.0  0.3927721107723344  0.22390715061975908  0.14478812369808483  1.0000
  H   H39       1.0  0.6073143932025715  0.7238839824969006  0.35522076932088  1.0000
  H   H40       1.0  0.3925258346159525  0.2760794784602538  0.8552396301499885  1.0000
  H   H41       1.0  0.3926921669924184  0.2239104606196491  0.3552236442166716  1.0000
  H   H42       1.0  0.6071695073963426  0.7761151124446287  0.8552382242600629  1.0000
  H   H43       1.0  0.39256467560061736  0.2761235423944727  0.6448036220653677  1.0000
  H   H44       1.0  0.607308555277001  0.7238748828248731  0.144783292456502  1.0000
  H   H45       1.0  0.4094773053837102  0.8072704408039401  0.7500253391601605  1.0000
  H   H46       1.0  0.5904089124789992  0.19275603382530457  0.2500117663975416  1.0000
  H   H47       1.0  0.40962639730138056  0.6927502525234389  0.2500019653663585  1.0000
  H   H48       1.0  0.5902473100869798  0.3072409550718477  0.7500346500391332  1.0000
  C   C1        1.0  0.8131552785542127  0.5441861965782168  0.48135097892089374  1.0000
  C   C2        1.0  0.1869274919564603  0.45583470744305293  0.9813460909093337  1.0000
  C   C3        1.0  0.8131725659142078  0.9558482767895955  0.5186364355564308  1.0000
  C   C4        1.0  0.1868959650783495  0.044134811175595715  0.0186433976735785  1.0000
  C   C5        1.0  0.1868685466424154  0.4558508038077563  0.5186455418074658  1.0000
  C   C6        1.0  0.8132124947425511  0.5441575501999909  0.018640160058630804  1.0000
  C   C7        1.0  0.18687806530400047  0.04417345805786251  0.4813375915626423  1.0000
  C   C8        1.0  0.8131564521299454  0.9558074415255219  0.9813487192371397  1.0000
  C   C9        1.0  0.967411521174455  0.5640018513178905  0.5318037649564147  1.0000
  C   C10       1.0  0.0326843238453733  0.4360171150284133  0.0317960347714177  1.0000
  C   C11       1.0  0.9674100471460677  0.936028216081532  0.4681825196891652  1.0000
  C   C12       1.0  0.0326579188020446  0.0639457554508311  0.9681872485849539  1.0000
  C   C13       1.0  0.0326069427032252  0.4360356754961785  0.468193733739291  1.0000
  C   C14       1.0  0.9674574500852275  0.563979353646154  0.9681921722665124  1.0000
  C   C15       1.0  0.032654880987024605  0.06398983413004093  0.5317944412437258  1.0000
  C   C16       1.0  0.967398072647697  0.9359970236042802  0.0318048683522889  1.0000
  C   C17       1.0  0.8456736191167664  0.47981808516265545  0.4495172174295377  1.0000
  C   C18       1.0  0.1543864804413175  0.5201976553542239  0.9495148360473565  1.0000
  C   C19       1.0  0.8457260140765612  0.020210179728664505  0.5504777578441562  1.0000
  C   C20       1.0  0.15433123299700213  0.9797780723337655  0.05048420603135639  1.0000
  C   C21       1.0  0.1543376962382794  0.5202152307188754  0.5504812590760864  1.0000
  C   C22       1.0  0.8457356350797484  0.47979354964249415  0.0504714148388317  1.0000
  C   C23       1.0  0.15435321109412575  0.9798047123578968  0.449508004708001  1.0000
  C   C24       1.0  0.8456979519155537  0.020168918019543007  0.9495142677406535  1.0000
  C   C25       1.0  0.5390621710833586  0.6462979744335584  0.4978258841820491  1.0000
  C   C26       1.0  0.4609837039279228  0.3537147467084197  0.9978129498644749  1.0000
  C   C27       1.0  0.5390911212854804  0.8537354407032685  0.5021766874842584  1.0000
  C   C28       1.0  0.4609446079162183  0.14624425083592033  0.0021843631412608  1.0000
  C   C29       1.0  0.46092591186926063  0.353735341706532  0.5021779710674821  1.0000
  C   C30       1.0  0.5391026692414088  0.6462664575592358  0.00218112432173  1.0000
  C   C31       1.0  0.4609630842107748  0.14628524145405924  0.4978007624870814  1.0000
  C   C32       1.0  0.539068493065301  0.8537006342934533  0.9978219342378196  1.0000
  C   C33       1.0  0.47020175935559655  0.5841104479855943  0.41028460445794224  1.0000
  C   C34       1.0  0.5299586956814509  0.41590820669457434  0.9102912054210534  1.0000
  C   C35       1.0  0.47022030226521133  0.9159490248034675  0.5897014627436263  1.0000
  C   C36       1.0  0.5298581132412323  0.0840457869682467  0.0897094106248986  1.0000
  C   C37       1.0  0.5298167045719424  0.4159312897907554  0.589711427426316  1.0000
  C   C38       1.0  0.47025813701762337  0.5840698387346067  0.08970971476602331  1.0000
  C   C39       1.0  0.529844626117857  0.08409113294590755  0.4102671862012243  1.0000
  C   C40       1.0  0.4702175359103364  0.9158711995074927  0.9102778157101951  1.0000
  C   C41       1.0  0.9118186545252699  0.7276993976603308  0.6907056689325017  1.0000
  C   C42       1.0  0.08812782945916102  0.27236064044845437  0.19069697917430525  1.0000
  C   C43       1.0  0.9119318773980396  0.7723244661952364  0.3093057451147345  1.0000
  C   C44       1.0  0.08794411171586351  0.22762949156447831  0.8093061609231285  1.0000
  C   C45       1.0  0.08810509286919199  0.27236286954060773  0.3093020989365343  1.0000
  C   C46       1.0  0.9118173629837542  0.7276832035200729  0.8093107881585552  1.0000
  C   C47       1.0  0.0879614875115777  0.2276525285835689  0.690705442801999  1.0000
  C   C48       1.0  0.9119278073549566  0.7723238164717543  0.1907045371905909  1.0000
  C   C49       1.0  0.020041501850244  0.7093685936214484  0.7500054942155501  1.0000
  C   C50       1.0  0.9798643742425098  0.2906905153327558  0.2499978726624974  1.0000
  C   C51       1.0  0.020183502569693704  0.7906492092302461  0.2500060326380904  1.0000
  C   C52       1.0  0.979700926305405  0.20930830962817037  0.7500002648034397  1.0000
  C   C53       1.0  0.6919808398922811  0.7632841155721268  0.6910524262311954  1.0000
  C   C54       1.0  0.30796923172894713  0.23677857050807932  0.19104408795939784  1.0000
  C   C55       1.0  0.6920963040200618  0.7367459614306355  0.3089622112789741  1.0000
  C   C56       1.0  0.3077618011323793  0.2632190345983646  0.8089739214256327  1.0000
  C   C57       1.0  0.3079339720453333  0.23677815182787754  0.3089616983847776  1.0000
  C   C58       1.0  0.6919795352102583  0.7632668528475223  0.8089759039932788  1.0000
  C   C59       1.0  0.30777561590350194  0.26324419302824253  0.6910572897046947  1.0000
  C   C60       1.0  0.6920940342120547  0.7367426957162025  0.1910450896167362  1.0000
  C   C61       1.0  0.5822712571940656  0.7807506973470666  0.7500176127302539  1.0000
  C   C62       1.0  0.41764891590942443  0.21929314710612152  0.25000482400683677  1.0000
  C   C63       1.0  0.5823998874320536  0.7192664294481474  0.250003771462481  1.0000
  C   C64       1.0  0.4174630968307084  0.2807142504339026  0.7500206190157215  1.0000
  C   C65       1.0  0.0357944084077388  0.712060170116196  0.6275747052852054  1.0000
  C   C66       1.0  0.9641567932976401  0.2879821962162978  0.1275638915879185  1.0000
  C   C67       1.0  0.035873112493568705  0.7879721904862792  0.37244032912670383  1.0000
  C   C68       1.0  0.9640285396225892  0.211983121332267  0.8724385615946845  1.0000
  C   C69       1.0  0.9641239773955024  0.28798946411512827  0.3724325731800562  1.0000
  C   C70       1.0  0.035816992318942205  0.7120300650014715  0.8724389849801641  1.0000
  C   C71       1.0  0.964063143494023  0.21202796436684687  0.6275640138979028  1.0000
  C   C72       1.0  0.0358701859728612  0.787961238125732  0.12756969139062593  1.0000
  N   N1        1.0  0.35105390470481984  0.672254928970439  0.46734012189823915  1.0000
  N   N2        1.0  0.6489997322109956  0.32774795384912647  0.9673338563956481  1.0000
  N   N3        1.0  0.3510884274430667  0.8277859124368945  0.5326702446187426  1.0000
  N   N4        1.0  0.6489413273941905  0.17220467065198616  0.0326766880402261  1.0000
  N   N5        1.0  0.6489270298307871  0.3277773345411887  0.5326671561748456  1.0000
  N   N6        1.0  0.3511027250301808  0.6722206176550147  0.0326739089330701  1.0000
  N   N7        1.0  0.6489675654657036  0.17224213914690273  0.4673155182952016  1.0000
  N   N8        1.0  0.35107177363264697  0.8277375827182569  0.9673344990778008  1.0000
  N   N9        1.0  0.30579161762162943  0.6333921909283264  0.41172336019764805  1.0000
  N   N10       1.0  0.6943385116240677  0.36661547690086854  0.9117296215353576  1.0000
  N   N11       1.0  0.30582614876541214  0.8666649621232382  0.5882794296570638  1.0000
  N   N12       1.0  0.6942343408431739  0.1333350473157964  0.0882826325193804  1.0000
  N   N13       1.0  0.694207188131685  0.3666442834541783  0.5882829400942313  1.0000
  N   N14       1.0  0.305849727289484  0.6333515151567256  0.08828547870783152  1.0000
  N   N15       1.0  0.69425128965306  0.13337309037408573  0.411702910759935  1.0000
  N   N16       1.0  0.3058073534333375  0.866590887915592  0.9117129067134685  1.0000
  N   N17       1.0  0.6214804535360088  0.5896277441151058  0.4634238799590236  1.0000
  N   N18       1.0  0.3786230722341344  0.41039390597666175  0.9634190463518736  1.0000
  N   N19       1.0  0.6214949587160704  0.9104152503317526  0.53656446398832  1.0000
  N   N20       1.0  0.3785760495982728  0.08956709152020893  0.0365734246822242  1.0000
  N   N21       1.0  0.37853264896556027  0.4104092563325283  0.5365726407406157  1.0000
  N   N22       1.0  0.6215312113985904  0.58959466705322  0.03657111639465431  1.0000
  N   N23       1.0  0.37855388537061446  0.089611221771932  0.46340418447248777  1.0000
  N   N24       1.0  0.6214888771960575  0.9103625281312449  0.9634191808373201  1.0000
  O   O1        1.0  0.9213829502037072  0.7330398738935388  0.574621451010529  1.0000
  O   O2        1.0  0.07859301978459142  0.26700582213570107  0.0746128544699403  1.0000
  O   O3        1.0  0.9214200243921481  0.7670149366092219  0.42539490488579196  1.0000
  O   O4        1.0  0.07848009209869392  0.23293862465029488  0.9253946341122088  1.0000
  O   O5        1.0  0.07856045562958508  0.26702923610888973  0.42538827306113813  1.0000
  O   O6        1.0  0.9213932754974934  0.7329859106868499  0.9254022460295489  1.0000
  O   O7        1.0  0.07851265779745381  0.23300048330802534  0.574617262339082  1.0000
  O   O8        1.0  0.9214150590192814  0.7669899436486958  0.0746160632665891  1.0000
  O   O9        1.0  0.23298952965518543  0.6813445156428773  0.625879919822502  1.0000
  O   O10       1.0  0.7669222898921719  0.3186767172233687  0.12587051739402  1.0000
  O   O11       1.0  0.23308730907901073  0.8186782074445561  0.37412981385573124  1.0000
  O   O12       1.0  0.7668215566735056  0.18127876207616825  0.8741333239495789  1.0000
  O   O13       1.0  0.7668859647685339  0.31868143178744657  0.37411904506431176  1.0000
  O   O14       1.0  0.23303719840756534  0.6813292272526398  0.8741181784433891  1.0000
  O   O15       1.0  0.7668471596083322  0.18132773718669884  0.6258593708970395  1.0000
  O   O16       1.0  0.2330878916536037  0.818664018276053  0.1258783518901865  1.0000
