data_image0
_chemical_formula_structural       Dy2Ag2H22C30N4O24
_chemical_formula_sum              "Dy2 Ag2 H22 C30 N4 O24"
_cell_length_a       7.514188965736695
_cell_length_b       8.198936695953988
_cell_length_c       14.188465402480105
_cell_angle_alpha    98.35757201719558
_cell_angle_beta     100.45922942042293
_cell_angle_gamma    94.74432160891487

_space_group_name_H-M_alt    "P 1"
_space_group_IT_number       1

loop_
  _space_group_symop_operation_xyz
  'x, y, z'

loop_
  _atom_site_type_symbol
  _atom_site_label
  _atom_site_symmetry_multiplicity
  _atom_site_fract_x
  _atom_site_fract_y
  _atom_site_fract_z
  _atom_site_occupancy
  Dy  Dy1       1.0  0.8111548688363045  0.797248149462753  0.5802714553428956  1.0000
  Dy  Dy2       1.0  0.1888456605210607  0.2027526473631056  0.4197282278595154  1.0000
  Ag  Ag1       1.0  0.1702624031102786  0.9025361261851687  0.03183087248314107  1.0000
  Ag  Ag2       1.0  0.8297352549823173  0.09746345899480247  0.9681684406387843  1.0000
  H   H1        1.0  0.4542584887988213  0.5845571027050553  0.7670122186479273  1.0000
  H   H2        1.0  0.5457411042885597  0.4154461425299231  0.23299323038737188  1.0000
  H   H3        1.0  0.20257370131544414  0.6883213375624351  0.6264689186292712  1.0000
  H   H4        1.0  0.7974266595647065  0.31167821877547647  0.37353064091141863  1.0000
  H   H5        1.0  0.1266636232442906  0.6140955813931795  0.5163902193038652  1.0000
  H   H6        1.0  0.8733369061130745  0.385905215432679  0.4836094638985458  1.0000
  H   H7        1.0  0.7847537170722917  0.0512526918093101  0.4593914684071621  1.0000
  H   H8        1.0  0.21524494568848238  0.9487444038472218  0.540607015385845  1.0000
  H   H9        1.0  0.6369996852835627  0.12040780255505008  0.519740248708338  1.0000
  H   H10       1.0  0.3629993242028108  0.8795917682038945  0.4802591876229697  1.0000
  H   H11       1.0  0.3294069162778825  0.7871122376606791  0.8633422827044868  1.0000
  H   H12       1.0  0.6705934250599269  0.21288733042418778  0.1366558664064996  1.0000
  H   H13       1.0  0.025130787915820497  0.4925851623384148  0.6696364211463148  1.0000
  H   H14       1.0  0.9748710928353219  0.5074156200664247  0.33036338526547837  1.0000
  H   H15       1.0  0.27982226138951216  0.263328224514197  0.9945038640939713  1.0000
  H   H16       1.0  0.7201794508844159  0.7366713174026885  0.005495818656093821  1.0000
  H   H17       1.0  0.5242984969395366  0.20033669334628  0.739723226719448  1.0000
  H   H18       1.0  0.47570000353912434  0.7996690942734119  0.260276704711103  1.0000
  H   H19       1.0  0.8348941981434024  0.47052538898567053  0.9369471771592685  1.0000
  H   H20       1.0  0.16510345994919357  0.5294741961943005  0.06305213596265699  1.0000
  H   H21       1.0  0.9655459456515346  0.0379364248848546  0.7849741043922619  1.0000
  H   H22       1.0  0.03445171244105438  0.9620631602951163  0.21502520872966355  1.0000
  C   C1        1.0  0.005474432570217401  0.2552143408782115  0.7173569871139092  1.0000
  C   C2        1.0  0.9945245671449854  0.7447852357542075  0.28264174400253955  1.0000
  C   C3        1.0  0.35356328445028146  0.9198467254341407  0.8624953249759314  1.0000
  C   C4        1.0  0.6464330124773595  0.08015288004033037  0.13750315972176  1.0000
  C   C5        1.0  0.40353301130375746  0.2560573451837769  0.8665682043530294  1.0000
  C   C6        1.0  0.5964683444734006  0.7439397275041769  0.13342982064389017  1.0000
  C   C7        1.0  0.988749873147711  0.42448815509999344  0.7248919680023747  1.0000
  C   C8        1.0  0.0112504877324398  0.5755114012379252  0.2751075915383153  1.0000
  C   C9        1.0  0.9244322380941484  0.5051730370124119  0.8033689319006853  1.0000
  C   C10       1.0  0.07556812278600229  0.49482651932550675  0.19663062763999756  1.0000
  C   C11       1.0  0.32706083165000877  0.1870086461064275  0.9365043451080053  1.0000
  C   C12       1.0  0.6729366775077067  0.8129896868386483  0.0634962547819029  1.0000
  C   C13       1.0  0.07242704291998342  0.1648917930566753  0.6337864169868935  1.0000
  C   C14       1.0  0.92757196656639  0.8351077777022693  0.36621301934440703  1.0000
  C   C15       1.0  0.4344739662913425  0.5601568553643614  0.4803687196716026  1.0000
  C   C16       1.0  0.5655280829370072  0.4398451675284178  0.5196312104019185  1.0000
  C   C17       1.0  0.4635456110562047  0.1508867652805392  0.7951485621081175  1.0000
  C   C18       1.0  0.5364522252847762  0.8491140545138972  0.20485157989038066  1.0000
  C   C19       1.0  0.4049222613280037  0.4372218355980379  0.8620760045297473  1.0000
  C   C20       1.0  0.5950681346157864  0.562792630661896  0.13793662393454298  1.0000
  C   C21       1.0  0.4995394967980644  0.8636934205672305  0.7167947225395039  1.0000
  C   C22       1.0  0.5004627013651586  0.13630985456044434  0.2832039207660415  1.0000
  C   C23       1.0  0.43872198770476  0.9801203181429089  0.7930587092251072  1.0000
  C   C24       1.0  0.561275809551539  0.0198805251454388  0.2069386119139907  1.0000
  C   C25       1.0  0.8834621040601435  0.4128479296514412  0.8736040316417543  1.0000
  C   C26       1.0  0.1165353757840677  0.5871504209140568  0.12639445260359847  1.0000
  C   C27       1.0  0.9569411694424446  0.17081259587806838  0.7889182097271712  1.0000
  C   C28       1.0  0.0430578400439288  0.8291869748808763  0.21108122660413633  1.0000
  C   C29       1.0  0.9010332213138808  0.6877571786341434  0.8110078037423063  1.0000
  C   C30       1.0  0.09896562946644849  0.3122411457633801  0.18899221414213224  1.0000
  N   N1        1.0  0.3017501193140434  0.021586964399006096  0.9337962432661654  1.0000
  N   N2        1.0  0.6982475387785528  0.9784126207809648  0.06620306985576012  1.0000
  N   N3        1.0  0.899167497320015  0.24858226136757358  0.8662932085519799  1.0000
  N   N4        1.0  0.10082863113041901  0.7514161036189577  0.13370515248398357  1.0000
  O   O1        1.0  0.47850011162780964  0.4734734300356962  0.7881753243401162  1.0000
  O   O2        1.0  0.521497377987572  0.5265249146563348  0.21182386512008122  1.0000
  O   O3        1.0  0.0908870842118503  0.6703444126188528  0.5751899030053096  1.0000
  O   O4        1.0  0.9091146378332482  0.3296551234245584  0.42481048495960744  1.0000
  O   O5        1.0  0.05966574807895601  0.0059590972999288  0.6227490178748099  1.0000
  O   O6        1.0  0.940333271178581  0.9940404675855419  0.37725112367134966  1.0000
  O   O7        1.0  0.7166860517908803  0.03138114644259099  0.5108314719218399  1.0000
  O   O8        1.0  0.2833129576954931  0.9686184243163538  0.48916796440946797  1.0000
  O   O9        1.0  0.4254899373254872  0.7134369277220785  0.6978945414191742  1.0000
  O   O10       1.0  0.5745117847196112  0.28656260832133285  0.30210584654574996  1.0000
  O   O11       1.0  0.49943359964316164  0.7095986026070379  0.4877255343274101  1.0000
  O   O12       1.0  0.5005667807793233  0.2904009419839254  0.5122754356429837  1.0000
  O   O13       1.0  0.3393380124625978  0.5351313793945421  0.9169842468363285  1.0000
  O   O14       1.0  0.6606817707430396  0.4648518257371492  0.08301497123719057  1.0000
  O   O15       1.0  0.6191504087366652  0.922351102659043  0.6749486492288952  1.0000
  O   O16       1.0  0.3808474178331381  0.07764972300887507  0.3250507875547584  1.0000
  O   O17       1.0  0.13915783249576213  0.2502254484285659  0.5786109872836319  1.0000
  O   O18       1.0  0.8608440482553803  0.7497753339762665  0.42138881912816106  1.0000
  O   O19       1.0  0.27110338109736193  0.4982878498891381  0.4448886196429527  1.0000
  O   O20       1.0  0.7288985094249512  0.5017129266422203  0.5551118919836994  1.0000
  O   O21       1.0  0.8725745876776402  0.763994086466887  0.8895839134323607  1.0000
  O   O22       1.0  0.1274241043966455  0.23600299156922225  0.11041668600519468  1.0000
  O   O23       1.0  0.9149349214245461  0.7530053273854378  0.7354024546848661  1.0000
  O   O24       1.0  0.08506276598156151  0.2469942401741037  0.2645989740816148  1.0000
