data_image0
_chemical_formula_structural       Cd4H8C24N8O16
_chemical_formula_sum              "Cd4 H8 C24 N8 O16"
_cell_length_a       7.811281077192148
_cell_length_b       8.772894480960966
_cell_length_c       10.592992611207833
_cell_angle_alpha    112.00751791116393
_cell_angle_beta     89.99950047695526
_cell_angle_gamma    89.99960937040187

_space_group_name_H-M_alt    "P 1"
_space_group_IT_number       1

loop_
  _space_group_symop_operation_xyz
  'x, y, z'

loop_
  _atom_site_type_symbol
  _atom_site_label
  _atom_site_symmetry_multiplicity
  _atom_site_fract_x
  _atom_site_fract_y
  _atom_site_fract_z
  _atom_site_occupancy
  Cd  Cd1       1.0  0.140427371887121  0.5343468909884876  0.3586466897409792  1.0000
  Cd  Cd2       1.0  0.6404291231290385  0.9656578699099185  0.6413530173916655  1.0000
  Cd  Cd3       1.0  0.8595730527471873  0.4656531100660429  0.6413546602624649  1.0000
  Cd  Cd4       1.0  0.3595713015212851  0.03434325451554089  0.35864488572390474  1.0000
  H   H1        1.0  0.8562044358822974  0.7318894993152368  0.9747170466890864  1.0000
  H   H2        1.0  0.3562061111022743  0.7681143792708979  0.02528663496097753  1.0000
  H   H3        1.0  0.14379726891888114  0.26811544488368355  0.025286699937801402  1.0000
  H   H4        1.0  0.6438007145603278  0.23188428677084258  0.9747105458139557  1.0000
  H   H5        1.0  0.09697961727345468  0.6726814346095865  0.10878949068032993  1.0000
  H   H6        1.0  0.5969846006473672  0.8273176639622052  0.8912097852571961  1.0000
  H   H7        1.0  0.9030208073687405  0.32731613454590314  0.8912120890242575  1.0000
  H   H8        1.0  0.40301710425156767  0.17267964067633557  0.108782274334601  1.0000
  C   C1        1.0  0.7681939147487712  0.622352599276951  0.2818730200575743  1.0000
  C   C2        1.0  0.2681955690821455  0.8776472356671903  0.7181281689645758  1.0000
  C   C3        1.0  0.23180394949854843  0.3776461461649916  0.7181270167929057  1.0000
  C   C4        1.0  0.7318035753423546  0.12235760274110419  0.28187176963214  1.0000
  C   C5        1.0  0.6343263160124978  0.6533852860434451  0.20613837171675442  1.0000
  C   C6        1.0  0.13433243594045766  0.8466085028970697  0.7938590963528968  1.0000
  C   C7        1.0  0.36567282842886334  0.34661348584278784  0.7938626171381529  1.0000
  C   C8        1.0  0.8656679886984621  0.15339267443044244  0.2061407107839841  1.0000
  C   C9        1.0  0.8292117957195657  0.6987755147950738  0.06235477278644917  1.0000
  C   C10       1.0  0.32921784907236423  0.8012249337819098  0.9376471359045624  1.0000
  C   C11       1.0  0.17078862890225113  0.30122574188549583  0.9376478903824008  1.0000
  C   C12       1.0  0.6707838557787864  0.1987749879128131  0.06235135806068831  1.0000
  C   C13       1.0  0.9634519663276536  0.6643369738751586  0.13455060182146641  1.0000
  C   C14       1.0  0.46345092624225265  0.8356632915712507  0.8654503624053475  1.0000
  C   C15       1.0  0.03654589791288029  0.33566300074181044  0.8654497961837676  1.0000
  C   C16       1.0  0.5365482182015384  0.164339062035971  0.1345479018712012  1.0000
  C   C17       1.0  0.4481018986048397  0.6426694025699788  0.24064953925663707  1.0000
  C   C18       1.0  0.9481082052577392  0.8573272045558937  0.759345730715502  1.0000
  C   C19       1.0  0.5518972458479184  0.3573293164142086  0.7593495455769599  1.0000
  C   C20       1.0  0.0518922193958531  0.14267031169755737  0.24065394496776799  1.0000
  C   C21       1.0  0.7413960750766081  0.5997113690526845  0.415282470460582  1.0000
  C   C22       1.0  0.24141192876822973  0.90030232158459  0.5847248558586244  1.0000
  C   C23       1.0  0.258606909983257  0.4002849180122753  0.5847168440554853  1.0000
  C   C24       1.0  0.7585846552692885  0.0997012612111305  0.4152737695851343  1.0000
  N   N1        1.0  0.9315553164223475  0.6230014389779511  0.24171957040449144  1.0000
  N   N2        1.0  0.4315603439191094  0.8769979857487084  0.7582832468941588  1.0000
  N   N3        1.0  0.0684438280190136  0.3769973329082815  0.7582814184504159  1.0000
  N   N4        1.0  0.5684388005189761  0.12300439430953247  0.24171596939304857  1.0000
  N   N5        1.0  0.6654766373907111  0.6910617584969357  0.0965846449201493  1.0000
  N   N6        1.0  0.16547663388403322  0.8089317291938017  0.903413472214126  1.0000
  N   N7        1.0  0.3345250674501301  0.3089370133758322  0.9034163439223093  1.0000
  N   N8        1.0  0.8345237907673777  0.1910681925076574  0.0965850217573418  1.0000
  O   O1        1.0  0.8443564039338372  0.4976415857885641  0.43615541969800375  1.0000
  O   O2        1.0  0.34435120144812004  0.0023660808340721967  0.563850380730841  1.0000
  O   O3        1.0  0.15564402070047126  0.5023584152659595  0.5638459303054404  1.0000
  O   O4        1.0  0.6556453825701071  0.9976399867627207  0.4361499190330846  1.0000
  O   O5        1.0  0.34731137478937063  0.7539124330010977  0.23655423365234177  1.0000
  O   O6        1.0  0.8473171978736928  0.7460804765520165  0.7634462840808851  1.0000
  O   O7        1.0  0.6526864894522503  0.24608633889187098  0.7634467552087969  1.0000
  O   O8        1.0  0.1526870673677152  0.25391709258327927  0.23655529560502234  1.0000
  O   O9        1.0  0.40398525583645306  0.5182237755848577  0.2665069601727765  1.0000
  O   O10       1.0  0.90399220183523  0.9817634358383031  0.7334848976370482  1.0000
  O   O11       1.0  0.5960151688171395  0.48177374066858647  0.7334927155104936  1.0000
  O   O12       1.0  0.09600438221914233  0.018234080435355796  0.2665147780649022  1.0000
  O   O13       1.0  0.6288644481491161  0.68318812790492  0.4956389526425583  1.0000
  O   O14       1.0  0.1288690792219782  0.8168105294038385  0.5043562051342222  1.0000
  O   O15       1.0  0.37113469624797807  0.31681564003448415  0.5043663368633418  1.0000
  O   O16       1.0  0.8711326256030957  0.1831931062669838  0.49564432430594246  1.0000
