data_image0
_chemical_formula_structural       CoH46C44N2O6
_chemical_formula_sum              "Co1 H46 C44 N2 O6"
_cell_length_a       8.504597272198124
_cell_length_b       10.877809276416416
_cell_length_c       10.698355724319692
_cell_angle_alpha    80.65014784270632
_cell_angle_beta     68.646938469731
_cell_angle_gamma    77.57922914102069

_space_group_name_H-M_alt    "P 1"
_space_group_IT_number       1

loop_
  _space_group_symop_operation_xyz
  'x, y, z'

loop_
  _atom_site_type_symbol
  _atom_site_label
  _atom_site_symmetry_multiplicity
  _atom_site_fract_x
  _atom_site_fract_y
  _atom_site_fract_z
  _atom_site_occupancy
  Co  Co1       1.0  1.1206898173672608e-07  0.9999988586541024  0.9999996103430816  1.0000
  H   H1        1.0  0.43738761171572105  0.8121041785624712  0.2269054619835629  1.0000
  H   H2        1.0  0.5626152171896452  0.18789844109659978  0.773093494157145  1.0000
  H   H3        1.0  0.4913281181331756  0.7633558259999663  0.06568369305860952  1.0000
  H   H4        1.0  0.5086757840598396  0.23664205704071867  0.9343166203471114  1.0000
  H   H5        1.0  0.24736938742422157  0.6487537633144598  0.14229485194189812  1.0000
  H   H6        1.0  0.7526279150231832  0.351250709415595  0.8577091175436281  1.0000
  H   H7        1.0  0.3878472008196496  0.45254460847907313  0.09841892452607943  1.0000
  H   H8        1.0  0.6121402286401365  0.5474589330949441  0.9015870354170943  1.0000
  H   H9        1.0  0.6145386936125876  0.26780876842943974  0.11294374898820787  1.0000
  H   H10       1.0  0.38544861056399793  0.7321900966495819  0.8870582878998192  1.0000
  H   H11       1.0  0.7855918788309567  0.26785001089447047  0.25674248443103664  1.0000
  H   H12       1.0  0.2144030220052855  0.7321488708617353  0.7432555390893683  1.0000
  H   H13       1.0  0.7268467285240237  0.45071388461018114  0.39033432312020727  1.0000
  H   H14       1.0  0.2731590804006744  0.5492868631761283  0.6096622099311516  1.0000
  H   H15       1.0  0.5029572513524985  0.6342380843924361  0.3752565931402573  1.0000
  H   H16       1.0  0.49704558821693473  0.36576454519867246  0.6247414236507467  1.0000
  H   H17       1.0  0.25809369471042504  0.7937816270101408  0.43753184564573644  1.0000
  H   H18       1.0  0.741909920513237  0.20622284306416114  0.5624703449496095  1.0000
  H   H19       1.0  0.009522368470129551  0.8152097018564817  0.6486728771559882  1.0000
  H   H20       1.0  0.9904816696701535  0.18479286761123606  0.35133041995518244  1.0000
  H   H21       1.0  0.7505266556598472  0.725481926443628  0.6800064964912167  1.0000
  H   H22       1.0  0.2494784495734805  0.2745216076942897  0.3199944825594586  1.0000
  H   H23       1.0  0.7416613424484596  0.6147431346063499  0.4979734481901302  1.0000
  H   H24       1.0  0.25833410039299304  0.3852642243268606  0.502025929575737  1.0000
  H   H25       1.0  0.9915977588958926  0.592007225936122  0.2856681298796887  1.0000
  H   H26       1.0  0.00840478304012043  0.4080019807565591  0.7143327034506441  1.0000
  H   H27       1.0  0.9963927325326979  0.9834268026385831  0.27519388822635465  1.0000
  H   H28       1.0  0.0036098840517838015  0.016582473578388605  0.724800369656073  1.0000
  H   H29       1.0  0.7834299095703374  0.9864388347977667  0.5001001222974324  1.0000
  H   H30       1.0  0.21657669633672336  0.0135637733358109  0.4998987058588611  1.0000
  H   H31       1.0  0.39928471117179515  0.007121625438252001  0.3152830475017794  1.0000
  H   H32       1.0  0.6007209910535141  0.9928573419872961  0.6847205884709736  1.0000
  H   H33       1.0  0.6274607156768327  0.9940941116278099  0.10124494707717704  1.0000
  H   H34       1.0  0.3725384934435355  0.005891544807511204  0.8987529514783857  1.0000
  H   H35       1.0  0.809883225964768  0.5488998680185803  0.030566870374180242  1.0000
  H   H36       1.0  0.19011860602656586  0.45109614527393654  0.9694324430543446  1.0000
  H   H37       1.0  0.9607462998798797  0.5932567016896187  0.8706840439088523  1.0000
  H   H38       1.0  0.03925657787635832  0.40674025640902306  0.12931483015857026  1.0000
  H   H39       1.0  0.7476426659182425  0.6773067389074399  0.9226119595309114  1.0000
  H   H40       1.0  0.25235813097224746  0.3226883395110036  0.07738685390901173  1.0000
  H   H41       1.0  0.7993861904716298  0.7487966438743997  0.11718206699386272  1.0000
  H   H42       1.0  0.20061165839173606  0.2512003362129249  0.8828163514862979  1.0000
  H   H43       1.0  0.017628139644067214  0.6775936794384236  0.05125790492676431  1.0000
  H   H44       1.0  0.9823694497726834  0.3224042062580068  0.9487441873691368  1.0000
  H   H45       1.0  0.8478693623451153  0.8785260630325453  0.9075243303961358  1.0000
  H   H46       1.0  0.15213078417434645  0.12147185139770762  0.09247423229459169  1.0000
  C   C1        1.0  0.2672104553290069  0.9022394273123242  0.12077808239661895  1.0000
  C   C2        1.0  0.7327915659299294  0.09776132206743433  0.8792195179888509  1.0000
  C   C3        1.0  0.3826781234195595  0.7864104437022308  0.15843336029424654  1.0000
  C   C4        1.0  0.6173249329402213  0.2135912405516152  0.8415647400798248  1.0000
  C   C5        1.0  0.2963472199389089  0.669429935208619  0.21721969954548118  1.0000
  C   C6        1.0  0.703654314419005  0.3305726551854847  0.7827824304223583  1.0000
  C   C7        1.0  0.42924291147703303  0.5560481734637364  0.23493859752752405  1.0000
  C   C8        1.0  0.5707552901239412  0.4439525477133514  0.765062888241154  1.0000
  C   C9        1.0  0.46168744990046684  0.45123761525761097  0.1632523170573563  1.0000
  C   C10       1.0  0.5383012634427048  0.5487659456493361  0.8367514084083821  1.0000
  C   C11       1.0  0.5882112452106513  0.3477354984620007  0.17146465453809875  1.0000
  C   C12       1.0  0.41177834595796287  0.652264291027912  0.8285384659101993  1.0000
  C   C13       1.0  0.684332460854158  0.34740633151758976  0.2530445062766873  1.0000
  C   C14       1.0  0.31566094997241845  0.6525934861749931  0.7469547287884025  1.0000
  C   C15       1.0  0.6523654075215505  0.4509965443646777  0.32610108376886876  1.0000
  C   C16       1.0  0.34763389316466936  0.5490051712787365  0.6738952658902093  1.0000
  C   C17       1.0  0.5260262496149011  0.5544557092974215  0.31716366203549756  1.0000
  C   C18       1.0  0.47397619456065626  0.4455431394757595  0.682835044865797  1.0000
  C   C19       1.0  0.14329308203387825  0.6904039663615721  0.3460019890903325  1.0000
  C   C20       1.0  0.8567067775162303  0.3096005351022911  0.6539984507900202  1.0000
  C   C21       1.0  0.14550377843022494  0.7541678628086859  0.44914182883925957  1.0000
  C   C22       1.0  0.8544979451952915  0.24583946367265244  0.5508585880855322  1.0000
  C   C23       1.0  0.005161220269286515  0.7667305622561149  0.5686838520430229  1.0000
  C   C24       1.0  0.9948386606089556  0.23327395907183765  0.43131470913792924  1.0000
  C   C25       1.0  0.859778232027168  0.7164432395458391  0.5867135788316347  1.0000
  C   C26       1.0  0.14022371905275588  0.2835631515302665  0.41328598232652064  1.0000
  C   C27       1.0  0.8549816891442817  0.6543087918279228  0.4840812290751801  1.0000
  C   C28       1.0  0.14501957957241277  0.34570040546387293  0.5159208993828841  1.0000
  C   C29       1.0  0.9955037558626006  0.6416204968617835  0.36511172921133556  1.0000
  C   C30       1.0  0.0044962716269694065  0.3583887208252463  0.6348888763253626  1.0000
  C   C31       1.0  0.8630092552364135  0.9873414400019414  0.28790955351892933  1.0000
  C   C32       1.0  0.13699024091201303  0.012659310440120898  0.7120887584226097  1.0000
  C   C33       1.0  0.7403020102047793  0.9905146606802334  0.41534719534128334  1.0000
  C   C34       1.0  0.25970295908128094  0.009484187030651002  0.5846508000039421  1.0000
  C   C35       1.0  0.5667915369280792  0.9977821876454842  0.4330572911585264  1.0000
  C   C36       1.0  0.4332130369640979  0.002212879247465997  0.5669413942969826  1.0000
  C   C37       1.0  0.5288987552074076  7.406020422000025e-05  0.3153216027077762  1.0000
  C   C38       1.0  0.4711070874346322  0.999915304868992  0.6846804022952142  1.0000
  C   C39       1.0  0.6585724638409618  0.9946828707805723  0.19103307418741616  1.0000
  C   C40       1.0  0.34143065822836155  0.005307460556295504  0.8089676800891823  1.0000
  C   C41       1.0  0.8532632552798135  0.6292030570801473  0.9581953964103321  1.0000
  C   C42       1.0  0.14673963314049843  0.3707939109505388  0.04180253830738682  1.0000
  C   C43       1.0  0.9040724946314428  0.7207478622835737  0.023754416172437336  1.0000
  C   C44       1.0  0.09592637866870042  0.2792500427457938  0.9762454416460286  1.0000
  N   N1        1.0  0.8252140802731134  0.9898473370405655  0.17490361259485365  1.0000
  N   N2        1.0  0.17478925239194612  0.010147750247618603  0.8250935499392966  1.0000
  O   O1        1.0  0.1624917576779766  0.8804646698467522  0.0687603041991949  1.0000
  O   O2        1.0  0.8375094026141882  0.1195341595934991  0.9312406371795346  1.0000
  O   O3        1.0  0.28422646586973604  0.0102658162169931  0.13921846644875305  1.0000
  O   O4        1.0  0.7157757828436077  0.9897339977575329  0.8607782781700808  1.0000
  O   O5        1.0  0.9491600771973838  0.8302743725755733  0.933013280011217  1.0000
  O   O6        1.0  0.05083879610275232  0.16972353245379423  0.0669865778072491  1.0000
