data_image0
_chemical_formula_structural       Zn6H44C64O36
_chemical_formula_sum              "Zn6 H44 C64 O36"
_cell_length_a       6.728396631507707
_cell_length_b       14.491566075
_cell_length_c       15.72
_cell_angle_alpha    90.0
_cell_angle_beta     98.3733289689115
_cell_angle_gamma    90.0

_space_group_name_H-M_alt    "P 1"
_space_group_IT_number       1

loop_
  _space_group_symop_operation_xyz
  'x, y, z'

loop_
  _atom_site_type_symbol
  _atom_site_label
  _atom_site_symmetry_multiplicity
  _atom_site_fract_x
  _atom_site_fract_y
  _atom_site_fract_z
  _atom_site_occupancy
  Zn  Zn1       1.0  0.4999974874086703  0.5000004804518667  3.4233330808209065e-08  1.0000
  Zn  Zn2       1.0  0.49999598515682214  0.0  0.4999986683354082  1.0000
  Zn  Zn3       1.0  0.06163889561660341  0.5258700102224836  0.09414212212204381  1.0000
  Zn  Zn4       1.0  0.9383620882081303  0.025870219827154997  0.4058576847454774  1.0000
  Zn  Zn5       1.0  0.938359083704434  0.4741302606247117  0.9058568613465711  1.0000
  Zn  Zn6       1.0  0.06163889561660341  0.9741314311331236  0.594144666651303  1.0000
  H   H1        1.0  0.5223164431293625  0.17012239996980574  0.2844191338980124  1.0000
  H   H2        1.0  0.477695056458316  0.6701228804216726  0.21558196453487002  1.0000
  H   H3        1.0  0.4776845406953711  0.8298771808208443  0.7155806729695016  1.0000
  H   H4        1.0  0.522307429618273  0.3298773904255228  0.7844172998336205  1.0000
  H   H5        1.0  0.4373806258383653  0.2936307903492049  0.17806222401273433  1.0000
  H   H6        1.0  0.5626308737493134  0.7936326509141622  0.3219363298908888  1.0000
  H   H7        1.0  0.5626173534826721  0.7063694804979831  0.8219373955881936  1.0000
  H   H8        1.0  0.4373776213346688  0.2063662398199426  0.6780620367461481  1.0000
  H   H9        1.0  0.7696006177425474  0.6897922521462192  0.4390514823707292  1.0000
  H   H10       1.0  0.23039886383034516  0.18979108163780714  0.060949503128128406  1.0000
  H   H11       1.0  0.23040337058588994  0.3102087087575143  0.5609472394987449  1.0000
  H   H12       1.0  0.7695991154906993  0.8102078090962975  0.9390532971343788  1.0000
  H   H13       1.0  0.8909510198534748  0.7312101359617884  0.592155162529167  1.0000
  H   H14       1.0  0.10904395496386603  0.2312131057926408  0.9078449059374876  1.0000
  H   H15       1.0  0.10904846171941071  0.2687866846026878  0.40784137004347804  1.0000
  H   H16       1.0  0.8909570288608678  0.7687892352241832  0.09215808159160593  1.0000
  H   H17       1.0  0.9255178348991253  0.607850797795848  0.7047110641056733  1.0000
  H   H18       1.0  0.0744771399182156  0.1078510074005266  0.7952902766256145  1.0000
  H   H19       1.0  0.07448014442191211  0.3921501631078854  0.29528791936294146  1.0000
  H   H20       1.0  0.9255238439065183  0.8921499535032138  0.20471143863884583  1.0000
  H   H21       1.0  0.839054227477682  0.4449940031757436  0.6624516772524205  1.0000
  H   H22       1.0  0.1609467563470517  0.9449937935710649  0.8375500380120471  1.0000
  H   H23       1.0  0.1609497608507553  0.5550062676714518  0.3375483168816871  1.0000
  H   H24       1.0  0.8390557297295302  0.0550064772761303  0.1624517708857098  1.0000
  H   H25       1.0  0.21772887173581526  0.3958709479920728  0.008918069650128804  1.0000
  H   H26       1.0  0.7822646008296701  0.8958700483308562  0.4910787245216639  1.0000
  H   H27       1.0  0.782263098577822  0.6041279427420321  0.9910805392853135  1.0000
  H   H28       1.0  0.2177348807432153  0.10413022251633917  0.5089197164479345  1.0000
  H   H29       1.0  0.9093656230186014  0.3656699332960116  0.074440324022099  1.0000
  H   H30       1.0  0.09063085405058763  0.8656724839175141  0.4255585658132263  1.0000
  H   H31       1.0  0.09062784954689111  0.6343310276077219  0.9255609230758992  1.0000
  H   H32       1.0  0.9093686275222981  0.1343298570993099  0.5744417835533184  1.0000
  H   H33       1.0  0.8020853117254703  0.4157880500158412  0.14260483466542692  1.0000
  H   H34       1.0  0.1979126675955669  0.9157899105807985  0.357394784935508  1.0000
  H   H35       1.0  0.19790665858817397  0.5842129108878921  0.8573944104023283  1.0000
  H   H36       1.0  0.8020883162291669  0.08421243043602537  0.6426043857997003  1.0000
  H   H37       1.0  0.7608259646924935  0.574915779073244  0.1660045703028956  1.0000
  H   H38       1.0  0.2391795258877849  0.0749166787344606  0.3339967897291345  1.0000
  H   H39       1.0  0.2391735168803919  0.4250844917739514  0.8339976874605953  1.0000
  H   H40       1.0  0.7608259646924935  0.9250849722258179  0.6660045703028956  1.0000
  H   H41       1.0  0.9327782180853745  0.6119110904995821  0.2342997261290947  1.0000
  H   H42       1.0  0.0672212634875109  0.1119119901607988  0.2657006232374428  1.0000
  H   H43       1.0  0.06721976123566262  0.3880871101779775  0.7657005296041532  1.0000
  H   H44       1.0  0.9327782180853745  0.8880882806863895  0.7342990899967816  1.0000
  C   C1        1.0  0.6179888543852172  0.2632310393685344  0.3900470221030403  1.0000
  C   C2        1.0  0.3820151339432131  0.7632322098769464  0.10995360816338012  1.0000
  C   C3        1.0  0.3820001114247233  0.7367685414221157  0.609953944095075  1.0000
  C   C4        1.0  0.6179933611407693  0.23676875102679415  0.8900441223413438  1.0000
  C   C5        1.0  0.5437701017850358  0.24173301780290757  0.30454511503496223  1.0000
  C   C6        1.0  0.45623989555079464  0.7417341883113195  0.19545525363231772  1.0000
  C   C7        1.0  0.45623989555079464  0.7582658729311973  0.6954533452353715  1.0000
  C   C8        1.0  0.5437685995331876  0.2582667725924139  0.8045443852693523  1.0000
  C   C9        1.0  0.49714621339925463  0.3115232664734647  0.24423325971793022  1.0000
  C   C10       1.0  0.5028472591662378  0.8115258170949602  0.255767987380068  1.0000
  C   C11       1.0  0.5028442546625413  0.6884749342041019  0.7557665278488486  1.0000
  C   C12       1.0  0.4971552269103512  0.1884744537522351  0.7442306408561168  1.0000
  C   C13       1.0  0.5286529414284757  0.4041647375920334  0.267494104575654  1.0000
  C   C14       1.0  0.4713540514036581  0.9041679782700811  0.23250671295735262  1.0000
  C   C15       1.0  0.4713465401444097  0.5958327730289809  0.7325043363939372  1.0000
  C   C16       1.0  0.5286529414284757  0.0958329826336595  0.767493468443341  1.0000
  C   C17       1.0  0.7866857280213042  0.637157499211142  0.48901586491282967  1.0000
  C   C18       1.0  0.21331675805528502  0.1371577088158134  0.010984035587981104  1.0000
  C   C19       1.0  0.2133182603071333  0.36284346169259857  0.5109828569566446  1.0000
  C   C20       1.0  0.7866872302731523  0.8628418719748367  0.9890172308107524  1.0000
  C   C21       1.0  0.8544057391226829  0.65976927203846  0.5745497372536194  1.0000
  C   C22       1.0  0.145596746953899  0.1597715518127671  0.9254507993795117  1.0000
  C   C23       1.0  0.14560425821314743  0.34022823858255435  0.42544935914903453  1.0000
  C   C24       1.0  0.8544012323671382  0.8402300991475115  0.07455136475068261  1.0000
  C   C25       1.0  0.8755859879418324  0.5905973140311573  0.6374303056298558  1.0000
  C   C26       1.0  0.12441800038660493  0.0905995938054645  0.8625703246365646  1.0000
  C   C27       1.0  0.12442250714214963  0.40940157670295446  0.36256933327181434  1.0000
  C   C28       1.0  0.8755814811862879  0.9094034372679047  0.13743066086229314  1.0000
  C   C29       1.0  0.8289966513485822  0.4994249732943388  0.6143763290694153  1.0000
  C   C30       1.0  0.1710058347280068  0.9994247636896603  0.8856242075637084  1.0000
  C   C31       1.0  0.1710043324761585  0.5005746074963113  0.3856241139304188  1.0000
  C   C32       1.0  0.828993646844886  0.000575507157528  0.11437614180282914  1.0000
  C   C33       1.0  0.7197378743703098  0.3779667409065723  0.5059582371332851  1.0000
  C   C34       1.0  0.2802586026988791  0.8779665313018938  0.9940438333636125  1.0000
  C   C35       1.0  0.2802586026988791  0.622033529940623  0.49404065270203296  1.0000
  C   C36       1.0  0.7197408788740064  0.1220364997714682  0.005955879870612108  1.0000
  C   C37       1.0  0.6707028717668706  0.5228165100161561  0.3742912657744527  1.0000
  C   C38       1.0  0.3292966098060149  0.0228187897904633  0.1257116281213513  1.0000
  C   C39       1.0  0.3293011165615596  0.4771810006048653  0.6257119090212271  1.0000
  C   C40       1.0  0.6707043740187191  0.9771821711132773  0.8742888148784829  1.0000
  C   C41       1.0  0.7403788147756603  0.5455925163008999  0.46535735400700423  1.0000
  C   C42       1.0  0.2596146577898253  0.0455927259055713  0.03464389309099401  1.0000
  C   C43       1.0  0.25961916454537715  0.4544077545462955  0.5346435378585568  1.0000
  C   C44       1.0  0.7403878282867568  0.9544061648285336  0.9653560074098168  1.0000
  C   C45       1.0  0.7625325227929665  0.4759230275255106  0.5287356196582493  1.0000
  C   C46       1.0  0.23746695877991905  0.9759235079773771  0.9712653658406083  1.0000
  C   C47       1.0  0.2374684610317672  0.5240772433216847  0.47126355107695167  1.0000
  C   C48       1.0  0.7625340250448147  0.0240774529263561  0.0287350771592259  1.0000
  C   C49       1.0  0.6492447063556598  0.3557269085563632  0.41448879508622843  1.0000
  C   C50       1.0  0.35076529098017073  0.8557287691213205  0.08551220971336451  1.0000
  C   C51       1.0  0.35075777972092953  0.6442733622908321  0.5855104692822692  1.0000
  C   C52       1.0  0.6492326883408666  0.1442728818389654  0.9144874098875633  1.0000
  C   C53       1.0  0.6108591671098367  0.4264887568405911  0.3522680328937184  1.0000
  C   C54       1.0  0.3891448212186006  0.9264906174055483  0.1477345057696482  1.0000
  C   C55       1.0  0.3891448212186006  0.5735101338935136  0.6477306889757559  1.0000
  C   C56       1.0  0.6108501535987401  0.07351034349819228  0.8522661988293266  1.0000
  C   C57       1.0  0.46453232575731823  0.4736810338146995  0.1978130763340289  1.0000
  C   C58       1.0  0.5354671558155745  0.9736870347189139  0.3021853646355623  1.0000
  C   C59       1.0  0.5354581423044777  0.5263157867497767  0.8021860751004298  1.0000
  C   C60       1.0  0.46453533026101473  0.0263159963544553  0.6978132636006151  1.0000
  C   C61       1.0  0.6690098339330393  0.1830450888655903  0.44993574105258466  1.0000
  C   C62       1.0  0.3309896476398464  0.6830434991478285  0.050065244446273006  1.0000
  C   C63       1.0  0.3309896476398464  0.8169544919250527  0.5500626999170136  1.0000
  C   C64       1.0  0.6690098339330393  0.3169581518124502  0.9499344687879514  1.0000
  O   O1        1.0  0.6690624127477564  0.5820875367329847  0.3169123006606043  1.0000
  O   O2        1.0  0.3309325620695844  0.0820870562811109  0.18309158459994285  1.0000
  O   O3        1.0  0.33093406432143274  0.4179134241707558  0.6830897698362932  1.0000
  O   O4        1.0  0.6690579059922115  0.9179159747922582  0.8169082029668291  1.0000
  O   O5        1.0  0.7388555314007663  0.31654756816888596  0.5613921808396753  1.0000
  O   O6        1.0  0.26114244792027114  0.8165473585642147  0.9386099832905188  1.0000
  O   O7        1.0  0.2611439501721193  0.6834513225652188  0.4386056239976028  1.0000
  O   O8        1.0  0.7388585359044698  0.1834549824526093  0.06138982357699521  1.0000
  O   O9        1.0  0.851833883957184  0.1556636452075111  0.45983981873438756  1.0000
  O   O10       1.0  0.14816709986754975  0.655661365433204  0.040163804927026106  1.0000
  O   O11       1.0  0.1481655976157015  0.844335935583139  0.5401592583675239  1.0000
  O   O12       1.0  0.8518323817053358  0.3443402855270747  0.9598378167041447  1.0000
  O   O13       1.0  0.5253089288125851  0.1430714933961994  0.47854394658423166  1.0000
  O   O14       1.0  0.4746935572639971  0.6430692136218994  0.021460406842784604  1.0000
  O   O15       1.0  0.4746935572639971  0.8569280873944434  0.521455317784266  1.0000
  O   O16       1.0  0.5253029198051921  0.3569296771122125  0.9785391191248536  1.0000
  O   O17       1.0  0.29694261173395387  0.5130818823527292  0.19641133286467044  1.0000
  O   O18       1.0  0.7030553675870835  0.0130883024663007  0.303584469942372  1.0000
  O   O19       1.0  0.7030478563278424  0.48691493821173987  0.8035865463051622  1.0000
  O   O20       1.0  0.296944113985802  0.9869154186636137  0.6964107903656469  1.0000
  O   O21       1.0  0.5796258489171323  0.48058021913963234  0.13971252446081914  1.0000
  O   O22       1.0  0.4203706281520567  0.9805820797045894  0.36028509310987294  1.0000
  O   O23       1.0  0.4203706281520567  0.5194214318206463  0.8602889099037656  1.0000
  O   O24       1.0  0.5796318579245253  0.019419571255689  0.6397135351263117  1.0000
  O   O25       1.0  0.2025636393200898  0.4624903868438536  0.0019887448592684036  1.0000
  O   O26       1.0  0.7974433535120371  0.9624881070695466  0.4980120726737384  1.0000
  O   O27       1.0  0.7974388467564922  0.5375098840033417  0.9980149724354419  1.0000
  O   O28       1.0  0.20256063481639336  0.0375121637776488  0.5019885575926821  1.0000
  O   O29       1.0  0.9380090590236136  0.3970585353039552  0.13110667328789563  1.0000
  O   O30       1.0  0.06198741804557531  0.897059705812367  0.3688915804151094  1.0000
  O   O31       1.0  0.06198291129002342  0.6029444957694139  0.8688938440444929  1.0000
  O   O32       1.0  0.9380135657791657  0.1029426352044567  0.6311082264524047  1.0000
  O   O33       1.0  0.8932629854490983  0.6057274938105692  0.17242076544026472  1.0000
  O   O34       1.0  0.10673799837564252  0.1057277034152406  0.3275790414272564  1.0000
  O   O35       1.0  0.10673649612378713  0.39427139692353547  0.8275795839262798  1.0000
  O   O36       1.0  0.8932614831972502  0.8942711873188641  0.6724213079392883  1.0000
