data_image0
_chemical_formula_structural       Cu6H20C26I6N8
_chemical_formula_sum              "Cu6 H20 C26 I6 N8"
_cell_length_a       9.313446547144721
_cell_length_b       9.522373945833744
_cell_length_c       10.700684811084525
_cell_angle_alpha    99.84917751124244
_cell_angle_beta     108.56971313276496
_cell_angle_gamma    97.07060499274303

_space_group_name_H-M_alt    "P 1"
_space_group_IT_number       1

loop_
  _space_group_symop_operation_xyz
  'x, y, z'

loop_
  _atom_site_type_symbol
  _atom_site_label
  _atom_site_symmetry_multiplicity
  _atom_site_fract_x
  _atom_site_fract_y
  _atom_site_fract_z
  _atom_site_occupancy
  Cu  Cu1       1.0  0.28456188676194216  0.28843150383411836  0.7399460536072053  1.0000
  Cu  Cu2       1.0  0.715438890706359  0.7115672609810201  0.260054067687143  1.0000
  Cu  Cu3       1.0  0.5019954374534946  0.3373573758305567  0.9678858636107815  1.0000
  Cu  Cu4       1.0  0.49800511678616016  0.662640311101043  0.032114972898888504  1.0000
  Cu  Cu5       1.0  0.5933267712308846  0.08070848255995597  0.9591462357616078  1.0000
  Cu  Cu6       1.0  0.40667106088908866  0.9192924974166202  0.04085712853819251  1.0000
  H   H1        1.0  0.7017453248788641  0.9967529144876293  0.5404652704898536  1.0000
  H   H2        1.0  0.2982559008586562  0.0032480293439504982  0.4595362279015161  1.0000
  H   H3        1.0  0.7574845129240086  0.1850903542750045  0.3898462534106242  1.0000
  H   H4        1.0  0.24251671281351148  0.814910589556568  0.6101552449807455  1.0000
  H   H5        1.0  0.8846034115462583  0.3296844258888639  0.30636167690913385  1.0000
  H   H6        1.0  0.11539849773186722  0.6703143346277257  0.693638758258295  1.0000
  H   H7        1.0  0.047995855626176365  0.510257545968258  0.24289721950555784  1.0000
  H   H8        1.0  0.9520037900323004  0.4897412231454295  0.7571025879157103  1.0000
  H   H9        1.0  0.3262587892870527  0.6013119520340806  0.39077592658437493  1.0000
  H   H10       1.0  0.673740620496055  0.3986911716612409  0.6092253853152981  1.0000
  H   H11       1.0  0.42778723255216977  0.5059455746354825  0.6018858226317716  1.0000
  H   H12       1.0  0.5722139919773923  0.4940553536965239  0.3981138040744837  1.0000
  H   H13       1.0  0.7534922896402066  0.9037075000236567  0.7306409968963405  1.0000
  H   H14       1.0  0.2465064480410604  0.09629235902190197  0.2693587172790827  1.0000
  H   H15       1.0  0.8218885673966055  0.7582425451900007  0.9056415059967334  1.0000
  H   H16       1.0  0.1781101702846613  0.24175731385555815  0.09435820817868999  1.0000
  H   H17       1.0  0.10075227396911401  0.7679023644342563  0.03566663159823238  1.0000
  H   H18       1.0  0.89924487279832  0.23210077560794665  0.9643349883978443  1.0000
  H   H19       1.0  0.24276036363438883  0.05207547639826518  0.8260818516307392  1.0000
  H   H20       1.0  0.7572390575874834  0.9479221993323109  0.17391679932073603  1.0000
  C   C1        1.0  0.9568613502547404  0.07315440762896226  0.6572151942163555  1.0000
  C   C2        1.0  0.04314055841940959  0.9268443451378443  0.34278430510851604  1.0000
  C   C3        1.0  0.8108720267504096  0.0651405863690258  0.5567673141694197  1.0000
  C   C4        1.0  0.18912874950993336  0.9348581629465467  0.4432309354398141  1.0000
  C   C5        1.0  0.8361235994399292  0.1589378925582423  0.4783685171657835  1.0000
  C   C6        1.0  0.16387853367081817  0.8410619535916762  0.5216321386288809  1.0000
  C   C7        1.0  0.0731735498590069  0.3232592825223434  0.4876678959415981  1.0000
  C   C8        1.0  0.9268265446726642  0.6767416733575613  0.5123342244192485  1.0000
  C   C9        1.0  0.005171188198950509  0.37055934586066996  0.3697504728466966  1.0000
  C   C10       1.0  0.9948284574595262  0.6294394232530178  0.6302493345745714  1.0000
  C   C11       1.0  0.09762294586367662  0.4714473957478588  0.33453536648779186  1.0000
  C   C12       1.0  0.9023769236274146  0.5285524589991579  0.6654646615607048  1.0000
  C   C13       1.0  0.25216849705574856  0.5219038334614934  0.4165883268148318  1.0000
  C   C14       1.0  0.7478318207045688  0.4780982003019573  0.583413078330693  1.0000
  C   C15       1.0  0.30888782935265613  0.469498340970908  0.5326580716906476  1.0000
  C   C16       1.0  0.6911124878036787  0.5305036850427525  0.4673423976123201  1.0000
  C   C17       1.0  0.992931810854962  0.9898018847128252  0.7619726158634702  1.0000
  C   C18       1.0  0.007068058636136199  0.010197970034184298  0.23802741218503334  1.0000
  C   C19       1.0  0.8743751356833159  0.9053062180249323  0.7864720591400809  1.0000
  C   C20       1.0  0.12562269341677276  0.09469472320272126  0.21352662594694033  1.0000
  C   C21       1.0  0.9118057678708877  0.8242782322101616  0.8845455145617789  1.0000
  C   C22       1.0  0.0881929692064034  0.17572161908561404  0.11545326377108715  1.0000
  C   C23       1.0  0.06614927451104789  0.8293598359174154  0.9573194337728947  1.0000
  C   C24       1.0  0.9338494631702189  0.17064002312814344  0.04268028040252854  1.0000
  C   C25       1.0  0.14545035248135463  0.988297684609627  0.8400948995483188  1.0000
  C   C26       1.0  0.854549293177115  0.011701084504060991  0.15990490787294925  1.0000
  I   I1        1.0  0.5342069107094004  0.19285152083198645  0.7434723705185318  1.0000
  I   I2        1.0  0.46579725014563406  0.8071526713024608  0.2565304175006985  1.0000
  I   I3        1.0  0.2490678653123766  0.45470640175926746  0.9426242207078911  1.0000
  I   I4        1.0  0.7509322280113366  0.5452945386210712  0.05737602796784093  1.0000
  I   I5        1.0  0.5112806479124146  0.20148477604288925  0.16308639695286328  1.0000
  I   I6        1.0  0.488717854497466  0.7985194453340863  0.8369157575435222  1.0000
  N   N1        1.0  0.0653705250288752  0.16817396358835168  0.6404897288485427  1.0000
  N   N2        1.0  0.9346302524394258  0.831824801226787  0.3595103924458056  1.0000
  N   N3        1.0  0.9899863795618838  0.2198017487904379  0.5310498440368361  1.0000
  N   N4        1.0  0.010013265492609892  0.7801970125734669  0.46894902754187473  1.0000
  N   N5        1.0  0.2209609975419653  0.37186642740696385  0.5683964156249813  1.0000
  N   N6        1.0  0.7790393196143695  0.6281355986066967  0.43160405367798627  1.0000
  N   N7        1.0  0.18145444855114326  0.9105172768650431  0.9356375757838575  1.0000
  N   N8        1.0  0.8185440659014844  0.08948150429697677  0.06436285360688743  1.0000
