data_image0
_chemical_formula_structural       CoP2H46C56O6
_chemical_formula_sum              "Co1 P2 H46 C56 O6"
_cell_length_a       9.463696039589909
_cell_length_b       10.922330439235518
_cell_length_c       11.310121400832909
_cell_angle_alpha    86.98192722874253
_cell_angle_beta     88.69186378110764
_cell_angle_gamma    70.72373838285492

_space_group_name_H-M_alt    "P 1"
_space_group_IT_number       1

loop_
  _space_group_symop_operation_xyz
  'x, y, z'

loop_
  _atom_site_type_symbol
  _atom_site_label
  _atom_site_symmetry_multiplicity
  _atom_site_fract_x
  _atom_site_fract_y
  _atom_site_fract_z
  _atom_site_occupancy
  Co  Co1       1.0  0.5000025005873924  0.5000026089759687  0.49999976011986297  1.0000
  P   P1        1.0  0.8354671107427195  0.5283286825501821  0.6438502907129262  1.0000
  P   P2        1.0  0.16453935665070668  0.4716726603836819  0.3561503153848733  1.0000
  H   H1        1.0  0.42659835777000416  0.21146708454926977  0.7301852940750848  1.0000
  H   H2        1.0  0.5734022149490983  0.7885274853994487  0.2698167270665266  1.0000
  H   H3        1.0  0.4394073448445327  0.05817813840125301  0.9036331948007685  1.0000
  H   H4        1.0  0.5605910245094492  0.9418222844751013  0.0963711741324786  1.0000
  H   H5        1.0  0.4203319688355905  0.13728758596150212  0.1092916855883104  1.0000
  H   H6        1.0  0.579673805888767  0.8627128058079023  0.8907107606157184  1.0000
  H   H7        1.0  0.38973184939246874  0.3682258560413915  0.1383641272366489  1.0000
  H   H8        1.0  0.6102784827340602  0.6317764413986212  0.8616354558558612  1.0000
  H   H9        1.0  0.3700665336659841  0.5208618862697421  0.966582300392261  1.0000
  H   H10       1.0  0.6299343249515631  0.47913749002697176  0.03341500522229521  1.0000
  H   H11       1.0  0.2667053906280189  0.6336085595378408  0.8223334575667637  1.0000
  H   H12       1.0  0.7333061227158524  0.36638504755821805  0.1776710432267166  1.0000
  H   H13       1.0  0.29968379736113365  0.8097298636952958  0.8617939064031148  1.0000
  H   H14       1.0  0.700321523423753  0.19027733926536436  0.13820990897608001  1.0000
  H   H15       1.0  0.18127546322506302  0.0440157284196516  0.8967626146420358  1.0000
  H   H16       1.0  0.8187267735534646  0.9559856220291608  0.10323808023341033  1.0000
  H   H17       1.0  0.07791658126874525  0.20099359317084972  0.7291022803454013  1.0000
  H   H18       1.0  0.9220832080321772  0.7990059017172655  0.27090653535774584  1.0000
  H   H19       1.0  0.0916995118469401  0.1225872807272879  0.5234182498293904  1.0000
  H   H20       1.0  0.9082925026132215  0.8774132432004581  0.4765950891120029  1.0000
  H   H21       1.0  0.2082523095990894  0.8871009963611987  0.4894688037565658  1.0000
  H   H22       1.0  0.791749233613217  0.11289941190105424  0.5105346149092825  1.0000
  H   H23       1.0  0.05689251718455066  0.4839743727254986  0.841867226545375  1.0000
  H   H24       1.0  0.9431108145479358  0.5160241185937268  0.1581389220655183  1.0000
  H   H25       1.0  0.1071208167838692  0.3300950411381791  0.015339976489706007  1.0000
  H   H26       1.0  0.892881589829969  0.6698946738155842  0.9846622973692974  1.0000
  H   H27       1.0  0.9515315554249993  0.187848462880723  0.054656762985388206  1.0000
  H   H28       1.0  0.04846230997567607  0.8121470354720157  0.9453400386742032  1.0000
  H   H29       1.0  0.7428880528723242  0.20078570372940874  0.9182099695261172  1.0000
  H   H30       1.0  0.2571102872557276  0.7992174955967216  0.08178097031976961  1.0000
  H   H31       1.0  0.6944699366878384  0.3537621925339707  0.7405431817644798  1.0000
  H   H32       1.0  0.30553832999152064  0.6462371257221022  0.2594495500683536  1.0000
  H   H33       1.0  0.5789045066171428  0.7451528420651243  0.591739550367592  1.0000
  H   H34       1.0  0.4210988794613614  0.25484262142319386  0.4082552841739613  1.0000
  H   H35       1.0  0.5075236657742865  0.981795904554012  0.6225216118064624  1.0000
  H   H36       1.0  0.49246031665533974  0.0182005547726547  0.37747268800685424  1.0000
  H   H37       1.0  0.6903544048669018  0.07015106195160571  0.7121122526176294  1.0000
  H   H38       1.0  0.3096209473947482  0.9298570389220944  0.2878797620832643  1.0000
  H   H39       1.0  0.9434848382027569  0.9218325542823395  0.7684561458020341  1.0000
  H   H40       1.0  0.05649705782202121  0.0781861908371013  0.2315333236081472  1.0000
  H   H41       1.0  0.013067072142966697  0.6856859807432799  0.743361730113179  1.0000
  H   H42       1.0  0.9869343048226045  0.3143260271024317  0.2566365748324486  1.0000
  H   H43       1.0  0.0978030253657138  0.5049296397695003  0.6064776849669897  1.0000
  H   H44       1.0  0.9022015672441556  0.4950794513217647  0.39352072722024906  1.0000
  H   H45       1.0  0.050969342799049924  0.3670162533991999  0.5699041044513677  1.0000
  H   H46       1.0  0.9490391563298886  0.6329908900578759  0.4300943422395846  1.0000
  C   C1        1.0  0.39600703751100497  0.46517427739847517  0.7318661819816938  1.0000
  C   C2        1.0  0.6039987825879011  0.5348231763190016  0.2681337869946816  1.0000
  C   C3        1.0  0.39640261422393774  0.37630780997993457  0.8360836360606357  1.0000
  C   C4        1.0  0.6035958040931818  0.6236896389329019  0.1639147209082807  1.0000
  C   C5        1.0  0.4177445593417631  0.2447663506497407  0.8200989767167642  1.0000
  C   C6        1.0  0.5822517400793219  0.7552311379321566  0.17990295937764963  1.0000
  C   C7        1.0  0.4259044812094644  0.15928290671261894  0.9176045741243684  1.0000
  C   C8        1.0  0.5740878681122864  0.8407194495996039  0.0823980373256461  1.0000
  C   C9        1.0  0.4150902891977282  0.2031768151195905  0.0325290289734141  1.0000
  C   C10       1.0  0.5849123125654502  0.7968235822860238  0.9674734838138548  1.0000
  C   C11       1.0  0.3953345331222807  0.33361324350392624  0.04922562632307861  1.0000
  C   C12       1.0  0.6046701430595222  0.666390043306656  0.9507749008821804  1.0000
  C   C13       1.0  0.3841337609464119  0.41982493569585  0.9519185314184001  1.0000
  C   C14       1.0  0.615864615584734  0.580175415357324  0.04807876804150623  1.0000
  C   C15       1.0  0.32598618273491564  0.5994660388331354  0.7407059963184821  1.0000
  C   C16       1.0  0.6740274041304418  0.4005304666457904  0.2592974025771611  1.0000
  C   C17       1.0  0.32886507119342656  0.6927362650062748  0.6510973316979262  1.0000
  C   C18       1.0  0.6711428152498018  0.30726415891724923  0.3489086048539535  1.0000
  C   C19       1.0  0.25777553613010457  0.8326233447099937  0.6733254819320039  1.0000
  C   C20       1.0  0.7422326771003966  0.16737899239907963  0.3266776802860036  1.0000
  C   C21       1.0  0.2503259352565123  0.8777727118649499  0.7881906247626987  1.0000
  C   C22       1.0  0.7496798403649906  0.12222767092656278  0.2118109377571642  1.0000
  C   C23       1.0  0.18568329791497015  0.009530215666970298  0.8076222335047376  1.0000
  C   C24       1.0  0.8143171858493121  0.9904702124298127  0.1923829747238557  1.0000
  C   C25       1.0  0.12811576111229783  0.09821897118619921  0.7127647899685884  1.0000
  C   C26       1.0  0.871879108493232  0.9017795441408086  0.287242419881764  1.0000
  C   C27       1.0  0.13613238594065546  0.05426819490505612  0.5981269884439442  1.0000
  C   C28       1.0  0.8638656539346172  0.94573034171944  0.40188280587567954  1.0000
  C   C29       1.0  0.2009766622548882  0.9224059600060459  0.5784524883131753  1.0000
  C   C30       1.0  0.7990178423659915  0.0775935083641599  0.42155290362536146  1.0000
  C   C31       1.0  0.8698153923074377  0.43034977355715404  0.7811853174362186  1.0000
  C   C32       1.0  0.1301903851083566  0.5696505912785597  0.2188144777153056  1.0000
  C   C33       1.0  0.9864701074002012  0.4234198852296274  0.8582735923123792  1.0000
  C   C34       1.0  0.013535341434035803  0.5765785843763283  0.1417307445413485  1.0000
  C   C35       1.0  0.015168371443088835  0.3363772461692919  0.9565681061819974  1.0000
  C   C36       1.0  0.9848293515135185  0.663619278512776  0.04343474194565292  1.0000
  C   C37       1.0  0.9276873236516325  0.2564954097601629  0.978299015052457  1.0000
  C   C38       1.0  0.07230861168194017  0.7435030228870333  0.021700219445968092  1.0000
  C   C39       1.0  0.8112427185893195  0.2632732579767564  0.9017601038663088  1.0000
  C   C40       1.0  0.188757777735013  0.7367270444294577  0.09823273278393431  1.0000
  C   C41       1.0  0.7824182434652658  0.3495579880889537  0.8028207928540211  1.0000
  C   C42       1.0  0.21758680487836557  0.6504442738552572  0.19717448278971264  1.0000
  C   C43       1.0  0.797701382526441  0.6991388802133187  0.669454377135267  1.0000
  C   C44       1.0  0.20229731720339567  0.30086341993700233  0.3305436827274377  1.0000
  C   C45       1.0  0.6565542940974538  0.7840419039424804  0.6337056455012373  1.0000
  C   C46       1.0  0.3434461995354354  0.21595842539743162  0.3662898422015104  1.0000
  C   C47       1.0  0.6177655153279671  0.9169382217257581  0.6501034019782495  1.0000
  C   C48       1.0  0.38222334770252087  0.08306209236865672  0.349888795126347  1.0000
  C   C49       1.0  0.7200866010698236  0.9661832755569861  0.7003540842211039  1.0000
  C   C50       1.0  0.2798979450823822  0.033822877266743503  0.2996387376956235  1.0000
  C   C51       1.0  0.8619965355054902  0.8824803927557101  0.7332630510093167  1.0000
  C   C52       1.0  0.13798828936798913  0.11753063823918815  0.2667321248536965  1.0000
  C   C53       1.0  0.9010505793803674  0.7491879110012507  0.7185289813337333  1.0000
  C   C54       1.0  0.09894945941591263  0.25081923850780896  0.2814687592283462  1.0000
  C   C55       1.0  0.012409765544404521  0.47389068754124974  0.5642824400751607  1.0000
  C   C56       1.0  0.9875969832617385  0.5261155066300988  0.4357178689164272  1.0000
  O   O1        1.0  0.46595461552948353  0.4102624267324941  0.6394570785534839  1.0000
  O   O2        1.0  0.5340553951926524  0.58973790365458  0.3605399767678961  1.0000
  O   O3        1.0  0.391523150163934  0.6676184110062025  0.5488447883198972  1.0000
  O   O4        1.0  0.6084840045156881  0.33238393695950214  0.4511592797766895  1.0000
  O   O5        1.0  0.71158637122349  0.5088736029781913  0.5755248149031331  1.0000
  O   O6        1.0  0.28842046564032126  0.491126742022992  0.4244731906856458  1.0000
