data_image0
_chemical_formula_structural       Cu2H36C52N4O16
_chemical_formula_sum              "Cu2 H36 C52 N4 O16"
_cell_length_a       7.671428878620204
_cell_length_b       7.671797651525878
_cell_length_c       19.675
_cell_angle_alpha    95.45659562286953
_cell_angle_beta     95.45685872258791
_cell_angle_gamma    92.7472169053562

_space_group_name_H-M_alt    "P 1"
_space_group_IT_number       1

loop_
  _space_group_symop_operation_xyz
  'x, y, z'

loop_
  _atom_site_type_symbol
  _atom_site_label
  _atom_site_symmetry_multiplicity
  _atom_site_fract_x
  _atom_site_fract_y
  _atom_site_fract_z
  _atom_site_occupancy
  Cu  Cu1       1.0  0.6453962366950137  0.35459703682001736  0.2499994456349555  1.0000
  Cu  Cu2       1.0  0.35460348175290324  0.6454015212306388  0.7499993722895297  1.0000
  H   H1        1.0  0.7055245202565672  0.3514754801208468  0.505699459632801  1.0000
  H   H2        1.0  0.648522290998315  0.2944532956446935  0.9942995335130932  1.0000
  H   H3        1.0  0.29447265465567085  0.6485243895082604  0.4942988043530717  1.0000
  H   H4        1.0  0.3514732728037586  0.7055413276706233  0.005701525763477405  1.0000
  H   H5        1.0  0.08702409106712139  0.5826018337041319  0.3883429826247919  1.0000
  H   H6        1.0  0.41739327929197145  0.9129766398013217  0.1116567616191446  1.0000
  H   H7        1.0  0.912971774372572  0.41739803592496844  0.6116562493259181  1.0000
  H   H8        1.0  0.5826076732190799  0.0870206066708903  0.8883435782088185  1.0000
  H   H9        1.0  0.5554566884290963  0.6486542357743161  0.3486194570708321  1.0000
  H   H10       1.0  0.3513460841217366  0.4445555792077727  0.1513824327846933  1.0000
  H   H11       1.0  0.4445389507823805  0.3513416991194518  0.6513801288558554  1.0000
  H   H12       1.0  0.6486620190272632  0.555452159891999  0.8486155116778633  1.0000
  H   H13       1.0  0.3420455909592732  0.8788480570831823  0.3514714723097612  1.0000
  H   H14       1.0  0.12114177460990311  0.6579546385280253  0.1485260244827487  1.0000
  H   H15       1.0  0.657951282315345  0.1211465662321345  0.6485291272611846  1.0000
  H   H16       1.0  0.878863407956395  0.342047854257963  0.8514721254208695  1.0000
  H   H17       1.0  0.265198596737676  0.142032141390807  0.24755499857700164  1.0000
  H   H18       1.0  0.8579660834836886  0.7348183817206007  0.2524444469729943  1.0000
  H   H19       1.0  0.7348011217102409  0.8579664166598562  0.7524438193474907  1.0000
  H   H20       1.0  0.1420321746728774  0.2651775531731673  0.7475562525792725  1.0000
  H   H21       1.0  0.0316368049846076  0.35923477820164623  0.24921525798487207  1.0000
  H   H22       1.0  0.6407390599515352  0.9683580396427374  0.2507844956790066  1.0000
  H   H23       1.0  0.9683616039907648  0.64076377984901  0.750784019645252  1.0000
  H   H24       1.0  0.3592579641418965  0.0316392068294746  0.7492162067474339  1.0000
  H   H25       1.0  0.5172843328843086  0.7678845858982656  0.5880986820994138  1.0000
  H   H26       1.0  0.23211897759927066  0.4827107077521618  0.9119042140470839  1.0000
  H   H27       1.0  0.4827167704455562  0.2321152837308418  0.4119007440656119  1.0000
  H   H28       1.0  0.7678834352031386  0.5172891618769455  0.0880972937083726  1.0000
  H   H29       1.0  0.9392343393704365  0.9155368409260234  0.6145224950716468  1.0000
  H   H30       1.0  0.0844714997244154  0.0607654293582627  0.8854792287396265  1.0000
  H   H31       1.0  0.06076714100645119  0.08446958659530422  0.385477188232116  1.0000
  H   H32       1.0  0.9155284449517113  0.9392370634277256  0.11452177650495801  1.0000
  H   H33       1.0  0.7692457133832846  0.9420569570845458  0.4016933351649499  1.0000
  H   H34       1.0  0.0579364362801158  0.23073943794199891  0.09830576764757382  1.0000
  H   H35       1.0  0.2307556161747897  0.0579468472798936  0.5983062452833181  1.0000
  H   H36       1.0  0.9420635083960179  0.7692630548439894  0.9016957458562163  1.0000
  C   C1        1.0  0.7673577205667428  0.4193444183373956  0.3771033134018751  1.0000
  C   C2        1.0  0.5806547359166315  0.2326372919519599  0.1228958603984154  1.0000
  C   C3        1.0  0.2326422241093837  0.5806580744485927  0.6228951505466469  1.0000
  C   C4        1.0  0.41934236358620314  0.7673612660986961  0.8771059099741904  1.0000
  C   C5        1.0  0.8854364865198292  0.4639105423210879  0.4409611711241723  1.0000
  C   C6        1.0  0.5360887292856233  0.1145571961243022  0.0590404990134061  1.0000
  C   C7        1.0  0.11456076380181199  0.5360906388864564  0.5590376525486533  1.0000
  C   C8        1.0  0.4639083702172115  0.8854413619263539  0.9409612713591998  1.0000
  C   C9        1.0  0.8341267775903916  0.4163671352671799  0.5034554165836624  1.0000
  C   C10       1.0  0.5836349991015908  0.16585827542323273  0.9965440066889145  1.0000
  C   C11       1.0  0.1658692386681082  0.5836353575188156  0.49654188518569947  1.0000
  C   C12       1.0  0.41636587800005737  0.8341376594705352  0.003457806488931702  1.0000
  C   C13       1.0  0.05062310289127231  0.5473636556214956  0.4376074049309935  1.0000
  C   C14       1.0  0.45263417983706933  0.9493781879647045  0.06239296928123391  1.0000
  C   C15       1.0  0.9493727625484212  0.4526362140076046  0.5623913187605111  1.0000
  C   C16       1.0  0.5473655386108405  0.0506203700859515  0.9376088981985333  1.0000
  C   C17       1.0  0.4596294811074415  0.6554639510609164  0.3047017748924645  1.0000
  C   C18       1.0  0.3445357512867915  0.5403755656663733  0.19529880780629583  1.0000
  C   C19       1.0  0.5403701619310723  0.3445332954112956  0.6952985163819179  1.0000
  C   C20       1.0  0.6554680463975586  0.459625615541178  0.8046997503752067  1.0000
  C   C21       1.0  0.3384586721569036  0.7843711269523013  0.3062297985446136  1.0000
  C   C22       1.0  0.21562641560853987  0.6615470518889666  0.1937661548514669  1.0000
  C   C23       1.0  0.6615408954722072  0.2156248079414667  0.6937709495612268  1.0000
  C   C24       1.0  0.7843773820758103  0.3384541293185848  0.8062318950708232  1.0000
  C   C25       1.0  0.21251468750047306  0.7874874373376883  0.24999723253471026  1.0000
  C   C26       1.0  0.7874874990737196  0.2125084975560796  0.7500025961598665  1.0000
  C   C27       1.0  0.0793467003140904  0.9206572431754267  0.249998316486419  1.0000
  C   C28       1.0  0.9206542521969681  0.07934000329679243  0.7500025316007566  1.0000
  C   C29       1.0  0.1286193510834579  0.0986687348412048  0.24944661314338393  1.0000
  C   C30       1.0  0.9013248127350549  0.8713930452016285  0.2505519808179599  1.0000
  C   C31       1.0  0.8713790578919145  0.9013298232094515  0.7505536810051652  1.0000
  C   C32       1.0  0.09867490571285488  0.1286055128490275  0.7494488701433752  1.0000
  C   C33       1.0  0.9994128089359579  0.2195280653938809  0.24942600368002843  1.0000
  C   C34       1.0  0.7804556974026795  0.0005849639864834  0.2505742265544768  1.0000
  C   C35       1.0  0.0005842151574669176  0.7804691810783313  0.75057368222798  1.0000
  C   C36       1.0  0.2195426361632897  0.9994122824857286  0.7494265244255374  1.0000
  C   C37       1.0  0.6616897117727802  0.8373156140428435  0.5170017972711705  1.0000
  C   C38       1.0  0.1626859184465204  0.3382993630620703  0.9829972445492886  1.0000
  C   C39       1.0  0.33831277643902513  0.1626855671647007  0.482996204097546  1.0000
  C   C40       1.0  0.8373195657573972  0.6617083760377014  0.017005685398224606  1.0000
  C   C41       1.0  0.8366627420582377  0.9214022197322009  0.5090160398061129  1.0000
  C   C42       1.0  0.0786015948683385  0.1633308637596542  0.9909847794128623  1.0000
  C   C43       1.0  0.1633386629092399  0.0786028962106826  0.49098257555148445  1.0000
  C   C44       1.0  0.9214009687528772  0.8366716290263341  0.009016831198081818  1.0000
  C   C45       1.0  0.9663476843629155  0.9542218471622022  0.5646603083566077  1.0000
  C   C46       1.0  0.0457852369328791  0.0336537913210364  0.9353393991180637  1.0000
  C   C47       1.0  0.0336523357226142  0.0457819572022373  0.4353392235380795  1.0000
  C   C48       1.0  0.9542185607514712  0.9663473898865078  0.06466322513713862  1.0000
  C   C49       1.0  0.8715793903403721  0.9672641832195837  0.44427855243495884  1.0000
  C   C50       1.0  0.0327346477807922  0.1284153339744947  0.0557200904340576  1.0000
  C   C51       1.0  0.1284219392177022  0.0327396211448558  0.5557210280133162  1.0000
  C   C52       1.0  0.9672678404310132  0.8715858472330495  0.9442814687491464  1.0000
  N   N1        1.0  0.46405353552680145  0.5359502999928409  0.25000034551987943  1.0000
  N   N2        1.0  0.5359489526850041  0.4640508812147104  0.7499981641080495  1.0000
  N   N3        1.0  0.8285867206836526  0.1714010059319264  0.2500007647406122  1.0000
  N   N4        1.0  0.17141183911052593  0.828600175275618  0.7500001405226443  1.0000
  O   O1        1.0  0.8053642989624735  0.49264329131637663  0.3232644314760122  1.0000
  O   O2        1.0  0.5073484416391878  0.1946356180856483  0.1767351572648863  1.0000
  O   O3        1.0  0.19463826465874226  0.5073592014696189  0.6767351460980819  1.0000
  O   O4        1.0  0.4926498919267814  0.8053616283865637  0.8232661019743405  1.0000
  O   O5        1.0  0.6376134054438579  0.3096046498416882  0.3739434970553575  1.0000
  O   O6        1.0  0.6903918211758368  0.362377320155936  0.1260513522267317  1.0000
  O   O7        1.0  0.3623839956965895  0.6903991545227512  0.6260533964361201  1.0000
  O   O8        1.0  0.30960381803564013  0.6376186147378249  0.873949250218381  1.0000
  O   O9        1.0  0.5531917169132612  0.7846531163179762  0.468145866028877  1.0000
  O   O10       1.0  0.2153475819870039  0.4467996899272251  0.0318578056618009  1.0000
  O   O11       1.0  0.446810695889141  0.215346753311124  0.5318541169489421  1.0000
  O   O12       1.0  0.7846495929252342  0.5532001797018822  0.9681419831017024  1.0000
  O   O13       1.0  0.6358974797408052  0.8262773698494712  0.5827502742044502  1.0000
  O   O14       1.0  0.1737298312790756  0.3641007342327072  0.9172503331880293  1.0000
  O   O15       1.0  0.3641036235890596  0.1737224997796361  0.4172476271829453  1.0000
  O   O16       1.0  0.8262738155864683  0.6358978238179489  0.082749646915623  1.0000
