data_image0
_chemical_formula_structural       NiH22C24N2O14
_chemical_formula_sum              "Ni1 H22 C24 N2 O14"
_cell_length_a       7.201265522494401
_cell_length_b       8.307832290987797
_cell_length_c       10.758387871711953
_cell_angle_alpha    68.43588728566183
_cell_angle_beta     79.43374954845433
_cell_angle_gamma    77.25222981129187

_space_group_name_H-M_alt    "P 1"
_space_group_IT_number       1

loop_
  _space_group_symop_operation_xyz
  'x, y, z'

loop_
  _atom_site_type_symbol
  _atom_site_label
  _atom_site_symmetry_multiplicity
  _atom_site_fract_x
  _atom_site_fract_y
  _atom_site_fract_z
  _atom_site_occupancy
  Ni  Ni1       1.0  0.5000085745643049  0.4999880970793242  0.5000002011768104  1.0000
  H   H1        1.0  0.024832888846340533  0.8999563778995566  0.23998964889106847  1.0000
  H   H2        1.0  0.975173114006978  0.10005890164512722  0.760011653500392  1.0000
  H   H3        1.0  0.7794397000789246  0.4909535083132255  0.17784432462874383  1.0000
  H   H4        1.0  0.22052823410037098  0.5090542414743523  0.8221680790140978  1.0000
  H   H5        1.0  0.4817842497745986  0.0157889776518587  0.8974754177898064  1.0000
  H   H6        1.0  0.5182220829453855  0.9842250907606527  0.10252152704298113  1.0000
  H   H7        1.0  0.6218571964755952  0.6869484344565535  0.7742043284404829  1.0000
  H   H8        1.0  0.3781482389311749  0.3130563857137716  0.2257952324016657  1.0000
  H   H9        1.0  0.8725698725034904  0.14457225232197862  0.9493845504263803  1.0000
  H   H10       1.0  0.1274445084261089  0.8554365798888598  0.05061939259599782  1.0000
  H   H11       1.0  0.8916418323927928  0.35931013968523473  0.5012348323662295  1.0000
  H   H12       1.0  0.10837092018913819  0.6406935431970096  0.49876326054971554  1.0000
  H   H13       1.0  0.9315402913395374  0.3439124201622192  0.3579997010775741  1.0000
  H   H14       1.0  0.06845592933314754  0.6560962321979106  0.6419961670188601  1.0000
  H   H15       1.0  0.4193891388514218  0.2498102041199104  0.6955455516497935  1.0000
  H   H16       1.0  0.5806134433787379  0.750168386054135  0.3044521677409691  1.0000
  H   H17       1.0  0.24710887590068617  0.3362377028771775  0.5973176031467631  1.0000
  H   H18       1.0  0.7528969029656666  0.663752882843177  0.40267369875451214  1.0000
  H   H19       1.0  0.18341493760403446  0.19112876869975537  0.46206872351326916  1.0000
  H   H20       1.0  0.8165883919443575  0.8088606046866149  0.5379157539194493  1.0000
  H   H21       1.0  0.7256696318792139  0.05917940761727181  0.6207991840090656  1.0000
  H   H22       1.0  0.2743242941723808  0.9408004103233764  0.37919455574151334  1.0000
  C   C1        1.0  0.9184966793595635  0.15418226605689975  0.18970158442974855  1.0000
  C   C2        1.0  0.08149796622814157  0.8458260517444176  0.8103085019536992  1.0000
  C   C3        1.0  0.8352859447340748  0.30218980437491183  0.07470321605542549  1.0000
  C   C4        1.0  0.1647106995903727  0.6978160006835454  0.9253036027770632  1.0000
  C   C5        1.0  0.7727841288028758  0.4685381269350374  0.08529125716231081  1.0000
  C   C6        1.0  0.2271922778340638  0.5314698693364549  0.9147173095796574  1.0000
  C   C7        1.0  0.6971942028769575  0.6067267368195532  0.976138757816173  1.0000
  C   C8        1.0  0.302799126191303  0.39328171194002687  0.023864008062481935  1.0000
  C   C9        1.0  0.6199391323953949  0.7807236207353796  0.9888135195885822  1.0000
  C   C10       1.0  0.3800471419124918  0.21928463274088023  0.011191975472854691  1.0000
  C   C11       1.0  0.6831006604576544  0.5792391680196615  0.8576956051192326  1.0000
  C   C12       1.0  0.316887875001747  0.42076524014232325  0.142307883647824  1.0000
  C   C13       1.0  0.746266233606953  0.4129573594871943  0.846622185745879  1.0000
  C   C14       1.0  0.2537287149179406  0.5870431748034335  0.15338440179542803  1.0000
  C   C15       1.0  0.7217148424487834  0.3842109428991663  0.7211025876043705  1.0000
  C   C16       1.0  0.27831439942541186  0.6157746459880187  0.278898511094944  1.0000
  C   C17       1.0  0.8230598767689087  0.27527646459239463  0.9551983244768892  1.0000
  C   C18       1.0  0.1769404845757735  0.7247321389707649  0.04480358515738916  1.0000
  C   C19       1.0  0.44715425932994884  0.14078617364816645  0.5481816762580181  1.0000
  C   C20       1.0  0.5528462348239176  0.8592030973370228  0.45180501661087646  1.0000
  C   C21       1.0  0.322233009557749  0.10707817063507719  0.47894484117458797  1.0000
  C   C22       1.0  0.6777597387274099  0.8929002230538287  0.5210531404890874  1.0000
  C   C23       1.0  0.6259266017277697  0.03349109783316353  0.5684964137652884  1.0000
  C   C24       1.0  0.3740687195371351  0.9664887308283241  0.4314980912056329  1.0000
  N   N1        1.0  0.39143621899044934  0.28575418456144763  0.5980418370377479  1.0000
  N   N2        1.0  0.6085674847962538  0.7142257286649711  0.40195632278597765  1.0000
  O   O1        1.0  0.9650860335719927  0.17382279270392337  0.2873097006935125  1.0000
  O   O2        1.0  0.03490160222325762  0.8261854107735546  0.7126993689958921  1.0000
  O   O3        1.0  0.9409486603169699  0.9989754228275628  0.17408611150916187  1.0000
  O   O4        1.0  0.059056981294688206  0.0010279635719854065  0.8259193929356243  1.0000
  O   O5        1.0  0.6195674748138843  0.8100745743465155  0.09530087406508159  1.0000
  O   O6        1.0  0.3804397238443116  0.18993563803088162  0.9046932992529833  1.0000
  O   O7        1.0  0.5494790061265249  0.8995177904539985  0.8813070393143577  1.0000
  O   O8        1.0  0.4505225711560571  0.1004988299793013  0.11868883322109268  1.0000
  O   O9        1.0  0.8247626707379396  0.2598404218181116  0.6860794182155558  1.0000
  O   O10       1.0  0.17525418879004218  0.7401631515475484  0.3139275256458661  1.0000
  O   O11       1.0  0.5864132781755416  0.494186686887474  0.6562519929006284  1.0000
  O   O12       1.0  0.41359068122948633  0.5057984054264466  0.3437493788707826  1.0000
  O   O13       1.0  0.930911702476699  0.4245889096323552  0.4063352169477312  1.0000
  O   O14       1.0  0.06909352672518311  0.5754173443087468  0.5936584002917867  1.0000
