data_image0
_chemical_formula_structural       Zn4H36C32N12O24
_chemical_formula_sum              "Zn4 H36 C32 N12 O24"
_cell_length_a       9.144571682131005
_cell_length_b       9.288705963246572
_cell_length_c       16.3828
_cell_angle_alpha    92.82602995298255
_cell_angle_beta     105.9329433889613
_cell_angle_gamma    117.22818732794582

_space_group_name_H-M_alt    "P 1"
_space_group_IT_number       1

loop_
  _space_group_symop_operation_xyz
  'x, y, z'

loop_
  _atom_site_type_symbol
  _atom_site_label
  _atom_site_symmetry_multiplicity
  _atom_site_fract_x
  _atom_site_fract_y
  _atom_site_fract_z
  _atom_site_occupancy
  Zn  Zn1       1.0  0.867829205405073  0.9652113242191476  0.3230615128255748  1.0000
  Zn  Zn2       1.0  0.1496528571273856  0.5471905254980172  0.17547291212952834  1.0000
  Zn  Zn3       1.0  0.1321767108704748  0.0347912600164761  0.6769353152560028  1.0000
  Zn  Zn4       1.0  0.8503438183548155  0.452809584956313  0.8245285348185261  1.0000
  H   H1        1.0  0.3654777315234199  0.3120081385692473  0.22066779834462116  1.0000
  H   H2        1.0  0.5969623684261974  0.1505110379374557  0.2748334340656555  1.0000
  H   H3        1.0  0.6345313851526981  0.6880006301195892  0.7793345761772486  1.0000
  H   H4        1.0  0.4030254888613456  0.8494742298291555  0.7251686883636876  1.0000
  H   H5        1.0  0.40971335952637133  0.23631785253937926  0.3165739280966449  1.0000
  H   H6        1.0  0.4174275073700501  0.0902732267151052  0.17864154299550714  1.0000
  H   H7        1.0  0.5902905681364246  0.7636896792588175  0.6834294479382024  1.0000
  H   H8        1.0  0.5825622017854073  0.9097244099579456  0.8213618193485814  1.0000
  H   H9        1.0  0.9902798061909124  0.7144688529968874  0.43425286758633763  1.0000
  H   H10       1.0  0.7752974304283881  0.5529024864890673  0.06642616515748759  1.0000
  H   H11       1.0  0.0097257558583692  0.2855374419106695  0.5657464515315026  1.0000
  H   H12       1.0  0.2247020850460331  0.447087728840124  0.9335797131203876  1.0000
  H   H13       1.0  0.5347948755726861  0.6190204758299558  0.23404874430528366  1.0000
  H   H14       1.0  0.8904866991395719  0.3009379673111639  0.2596597990600458  1.0000
  H   H15       1.0  0.46521629808860615  0.3809746870618014  0.7659456299143981  1.0000
  H   H16       1.0  0.109513953568154  0.6990522480180275  0.7403456430770133  1.0000
  H   H17       1.0  0.8174989432376593  0.1019086569972032  0.05092322601900183  1.0000
  H   H18       1.0  0.556057594600567  0.7608064871691411  0.4500257989597855  1.0000
  H   H19       1.0  0.18249169185175868  0.8980951641290602  0.9490719055365558  1.0000
  H   H20       1.0  0.44395464792160766  0.2391973339571223  0.5499775266195072  1.0000
  H   H21       1.0  0.7714824967564482  0.9758448730801277  0.4640704396576112  1.0000
  H   H22       1.0  0.021764432550142494  0.3048650951038354  0.036410931960176585  1.0000
  H   H23       1.0  0.2285219964319509  0.0241527635929231  0.5359290840446531  1.0000
  H   H24       1.0  0.9782321745596434  0.695143673585001  0.9635901361479993  1.0000
  H   H25       1.0  0.769771048843232  0.1224200145360683  0.41961492475058987  1.0000
  H   H26       1.0  0.21962270958254487  0.3560933948799416  0.08120630643441729  1.0000
  H   H27       1.0  0.2302350787316598  0.8775763852463356  0.5803860356010873  1.0000
  H   H28       1.0  0.7803736116733972  0.6439104262463218  0.9187939691722775  1.0000
  H   H29       1.0  0.07448966490488833  0.10590133999397723  0.2322496960790446  1.0000
  H   H30       1.0  0.3855905222883109  0.8452415900475785  0.2748863598265245  1.0000
  H   H31       1.0  0.9255147599110886  0.8941049549135727  0.7677482279908006  1.0000
  H   H32       1.0  0.6143943520800903  0.1547510990628993  0.7251069674465072  1.0000
  H   H33       1.0  0.9501090788263298  0.9157653838601263  0.19363688929403372  1.0000
  H   H34       1.0  0.2264619797008152  0.7527493815182851  0.3078082028134047  1.0000
  H   H35       1.0  0.0498873853565343  0.0842409110474307  0.806354931817495  1.0000
  H   H36       1.0  0.7735356900877689  0.2472482551547657  0.6921957689225734  1.0000
  C   C1        1.0  0.46560355234768735  0.2982365981460617  0.2686997922791433  1.0000
  C   C2        1.0  0.5291761160258588  0.1968004333746194  0.22691216364883357  1.0000
  C   C3        1.0  0.5343994493811408  0.7017647491989152  0.7313014378076585  1.0000
  C   C4        1.0  0.47081977644931067  0.8031959664077847  0.7730908907813969  1.0000
  C   C5        1.0  0.8592080354974456  0.6511586054164198  0.3878320553608176  1.0000
  C   C6        1.0  0.7602842975051161  0.4693381546235572  0.1111598474137665  1.0000
  C   C7        1.0  0.14079880671206277  0.3488501632724167  0.6121675290650755  1.0000
  C   C8        1.0  0.23971201756873478  0.5306458762524144  0.8888423156126279  1.0000
  C   C9        1.0  0.6291902694059743  0.6062248421243837  0.28568341080750054  1.0000
  C   C10       1.0  0.823332630356866  0.3434362929264196  0.20974624325393879  1.0000
  C   C11       1.0  0.3708218301892856  0.3937765052205933  0.7143149405490306  1.0000
  C   C12       1.0  0.17666610211051653  0.6565502117308384  0.7902569697322264  1.0000
  C   C13       1.0  0.5736164377024195  0.937020112675647  0.065769001759179  1.0000
  C   C14       1.0  0.3690513481654206  0.5056495532407226  0.4328337296673155  1.0000
  C   C15       1.0  0.42636701976091723  0.0629874191225426  0.9342287960924621  1.0000
  C   C16       1.0  0.6309596141965272  0.4943517941042543  0.567165668226302  1.0000
  C   C17       1.0  0.3925555270132507  0.8771583162088776  0.03646136525381389  1.0000
  C   C18       1.0  0.3362766751500601  0.3576382712935029  0.46198941335264  1.0000
  C   C19       1.0  0.6074301303621965  0.1228380835735265  0.9635346273109349  1.0000
  C   C20       1.0  0.6637315155920973  0.6423643129421208  0.5380120360137254  1.0000
  C   C21       1.0  0.6776786050093689  0.0573397764449552  0.02835678635520369  1.0000
  C   C22       1.0  0.5315727452522266  0.6458919250569863  0.4720054860870134  1.0000
  C   C23       1.0  0.32230911553333647  0.9426628077906614  0.9716421368093079  1.0000
  C   C24       1.0  0.46844177173655766  0.3541118960692771  0.5279939152292954  1.0000
  C   C25       1.0  0.6706849511210393  0.8900355846969177  0.13973336588621524  1.0000
  C   C26       1.0  0.2480569836023818  0.5282042541224214  0.3580325733789422  1.0000
  C   C27       1.0  0.32930390665496384  0.109966999538706  0.8602584067785128  1.0000
  C   C28       1.0  0.7519507099865875  0.471799567003842  0.641972496763614  1.0000
  C   C29       1.0  0.2740249611247095  0.7447071185551479  0.07224310277045021  1.0000
  C   C30       1.0  0.16367002760239305  0.20494164758922306  0.4250956199300475  1.0000
  C   C31       1.0  0.7259677371319739  0.2553028870243352  0.9277604529512898  1.0000
  C   C32       1.0  0.83634143191275  0.7950584628651072  0.5749050403575282  1.0000
  N   N1        1.0  0.6078036854183395  0.4642829825641357  0.3101828125035907  1.0000
  N   N2        1.0  0.6533137287938897  0.297589704339579  0.18634585093353448  1.0000
  N   N3        1.0  0.39220727694361557  0.5357183647808412  0.6898165853900265  1.0000
  N   N4        1.0  0.3466825862799682  0.7023943265363926  0.8136563120928527  1.0000
  N   N5        1.0  0.7536263720594931  0.4898383801466296  0.374679822184099  1.0000
  N   N6        1.0  0.6105670802077938  0.377557158214195  0.12414010063579178  1.0000
  N   N7        1.0  0.2463819616095861  0.5101666778702807  0.6253229390274058  1.0000
  N   N8        1.0  0.3894285947859474  0.6224256357711297  0.8758613193403022  1.0000
  N   N9        1.0  0.7873389849174686  0.7279744619317512  0.33458758313081194  1.0000
  N   N10       1.0  0.8947933795895651  0.451494770202423  0.1623394960288067  1.0000
  N   N11       1.0  0.21267276045152536  0.2720305960851591  0.6654095968843662  1.0000
  N   N12       1.0  0.10520371849132464  0.5484929713454818  0.8376647218930271  1.0000
  O   O1        1.0  0.6885692356382267  0.9558295086892488  0.21577264049625464  1.0000
  O   O2        1.0  0.2399710991763726  0.4712775991523444  0.2823185052220296  1.0000
  O   O3        1.0  0.3114196159556997  0.0441532852960762  0.7842228507769775  1.0000
  O   O4        1.0  0.760029130932665  0.5287249850832723  0.7176853867337911  1.0000
  O   O5        1.0  0.742588888334204  0.8099951542743469  0.12373514642504087  1.0000
  O   O6        1.0  0.18328440712600272  0.6154743103554381  0.3737599447034086  1.0000
  O   O7        1.0  0.2574109191761451  0.19001979886770937  0.876257429009236  1.0000
  O   O8        1.0  0.8167237836161547  0.3845282738801785  0.6262476086256539  1.0000
  O   O9        1.0  0.3410274545217078  0.6756898575462102  0.1250349657126435  1.0000
  O   O10       1.0  0.0399440744366828  0.2146735031711913  0.36950183215539306  1.0000
  O   O11       1.0  0.6589656663336642  0.3243077791268334  0.8749597634537665  1.0000
  O   O12       1.0  0.9600691623918749  0.7853278441737856  0.6304979142491263  1.0000
  O   O13       1.0  0.11399066161428816  0.7037957236353165  0.05208784910137611  1.0000
  O   O14       1.0  0.14030781210715304  0.06831965468607852  0.4466923980320415  1.0000
  O   O15       1.0  0.8859999734751369  0.2962080974909469  0.9479097240392561  1.0000
  O   O16       1.0  0.8596976070152066  0.9316841664401849  0.5533129339958833  1.0000
  O   O17       1.0  0.7264034287232235  0.0036154313505463  0.4068598387421004  1.0000
  O   O18       1.0  0.112419711056873  0.3247085316952862  0.09419892926810998  1.0000
  O   O19       1.0  0.2736033389317853  0.9963822053225044  0.5931412542636068  1.0000
  O   O20       1.0  0.8875743357324594  0.6752952894309772  0.905799777035149  1.0000
  O   O21       1.0  0.04620409842762289  0.9975572514336974  0.2465178887416428  1.0000
  O   O22       1.0  0.2589750975632512  0.7965773645751568  0.2569816820603137  1.0000
  O   O23       1.0  0.9537920799013905  0.0024440959112795  0.753476802246027  1.0000
  O   O24       1.0  0.7410091367250401  0.2034140876446742  0.7430170061251216  1.0000
