data_image0
_chemical_formula_structural       Cd8H104C96N16O44
_chemical_formula_sum              "Cd8 H104 C96 N16 O44"
_cell_length_a       14.318705870503031
_cell_length_b       14.684807022009773
_cell_length_c       22.495847106695784
_cell_angle_alpha    90.00008084099998
_cell_angle_beta     99.4225717246562
_cell_angle_gamma    90.00009099242423

_space_group_name_H-M_alt    "P 1"
_space_group_IT_number       1

loop_
  _space_group_symop_operation_xyz
  'x, y, z'

loop_
  _atom_site_type_symbol
  _atom_site_label
  _atom_site_symmetry_multiplicity
  _atom_site_fract_x
  _atom_site_fract_y
  _atom_site_fract_z
  _atom_site_occupancy
  Cd  Cd1       1.0  0.8176011226071082  0.6292775603795775  0.6378972251553139  1.0000
  Cd  Cd2       1.0  0.18239889178569507  0.1292789096375913  0.8621022443912383  1.0000
  Cd  Cd3       1.0  0.18239852145880764  0.3707224654969395  0.36210251178142994  1.0000
  Cd  Cd4       1.0  0.8176014679008076  0.8707224781918939  0.13789800676833155  1.0000
  Cd  Cd5       1.0  0.7410774040714614  0.7474936896849442  0.7583918727804715  1.0000
  Cd  Cd6       1.0  0.2589242588984035  0.2474935345688252  0.7416083116835354  1.0000
  Cd  Cd7       1.0  0.25892502524512645  0.2525056552152307  0.2416054679963935  1.0000
  Cd  Cd8       1.0  0.7410740157089678  0.7525058103334602  0.2583939592469023  1.0000
  H   H1        1.0  0.9186380778328881  0.5837805690685728  0.9078202457391601  1.0000
  H   H2        1.0  0.08135973397348549  0.08378117435665898  0.5921794116430732  1.0000
  H   H3        1.0  0.0813573342960083  0.4162174138773978  0.09217996830226842  1.0000
  H   H4        1.0  0.9186399100924304  0.9162188515198582  0.40782032529367035  1.0000
  H   H5        1.0  0.0235857114815516  0.47502853013978813  0.7538691715355129  1.0000
  H   H6        1.0  0.9764135376421663  0.9750283446682034  0.746130100289463  1.0000
  H   H7        1.0  0.9764103931008278  0.5249714957335955  0.24613022081479133  1.0000
  H   H8        1.0  0.023587537663637196  0.0249730431623973  0.2538706650921654  1.0000
  H   H9        1.0  0.11839807636560098  0.36183289187251694  0.930072328967846  1.0000
  H   H10       1.0  0.8816002416339471  0.861832175740446  0.5699263024523163  1.0000
  H   H11       1.0  0.8815966124246586  0.6381684959514616  0.06992692554864284  1.0000
  H   H12       1.0  0.11840361892317472  0.13816921208972133  0.4300720667698173  1.0000
  H   H13       1.0  0.6059483435073575  0.5709333675903707  0.5884753742163938  1.0000
  H   H14       1.0  0.39405509928983656  0.0709324304016903  0.9115243748773595  1.0000
  H   H15       1.0  0.3940527472416663  0.42906597731344226  0.41152628177364664  1.0000
  H   H16       1.0  0.6059473454719181  0.9290669144994583  0.08847385650905443  1.0000
  H   H17       1.0  0.5085695764149561  0.47896222095737073  0.7499189593224785  1.0000
  H   H18       1.0  0.49143251950585654  0.9789606067277108  0.7500810378606317  1.0000
  H   H19       1.0  0.49143152977405435  0.5210316761400406  0.2500835872740836  1.0000
  H   H20       1.0  0.5085642620757581  0.021031928409208  0.24991664218368476  1.0000
  H   H21       1.0  0.3787634052307354  0.3764770983918311  0.5768206909621938  1.0000
  H   H22       1.0  0.6212392034764774  0.8764787865553816  0.9231792608969016  1.0000
  H   H23       1.0  0.6212376700718208  0.623520884559156  0.42318007441753747  1.0000
  H   H24       1.0  0.37876113303968134  0.12351987736894192  0.0768196543468207  1.0000
  H   H25       1.0  0.9867895928774574  0.38310688449601576  0.5872920844506099  1.0000
  H   H26       1.0  0.013211628101871004  0.8831069206747701  0.9127086275729612  1.0000
  H   H27       1.0  0.013210766807752301  0.6168931413816242  0.4127081667081996  1.0000
  H   H28       1.0  0.9867901473780448  0.11689446715596573  0.08729176142118435  1.0000
  H   H29       1.0  0.031051344562030205  0.4074211486163364  0.6638169122618366  1.0000
  H   H30       1.0  0.9689492225331833  0.9074211471385711  0.8361842032530123  1.0000
  H   H31       1.0  0.9689476070536498  0.5925802392123815  0.3361836463679282  1.0000
  H   H32       1.0  0.031054676637509698  0.09258092166997053  0.16381639249337357  1.0000
  H   H33       1.0  0.9855843073924857  0.49739442016532837  0.6136305871713503  1.0000
  H   H34       1.0  0.0144157230984661  0.997393720028363  0.8863705597216338  1.0000
  H   H35       1.0  0.0144146365006037  0.5026069676628993  0.3863695261536364  1.0000
  H   H36       1.0  0.9855860523814571  0.0026076678023728  0.11362982927251157  1.0000
  H   H37       1.0  0.9105124875598064  0.21047266089142622  0.6258114819664585  1.0000
  H   H38       1.0  0.08948698896256957  0.7104740942984267  0.8741888997829363  1.0000
  H   H39       1.0  0.08948714106288239  0.7895294079118786  0.37418736436187333  1.0000
  H   H40       1.0  0.9105141017903405  0.28952933646091594  0.12581275620938476  1.0000
  H   H41       1.0  0.9018325240151056  0.21066681683309696  0.7036705417283003  1.0000
  H   H42       1.0  0.0981676607721766  0.710666732681034  0.7963299091539682  1.0000
  H   H43       1.0  0.09816638898699638  0.7893338900172537  0.29632779037721246  1.0000
  H   H44       1.0  0.9018348457728604  0.2893353361277208  0.2036718846721683  1.0000
  H   H45       1.0  0.9924608030491909  0.2748992327930608  0.6782893402139295  1.0000
  H   H46       1.0  0.007538796129047407  0.7748997434146008  0.8217111133531251  1.0000
  H   H47       1.0  0.007538125398077999  0.7251014740582705  0.321709882501132  1.0000
  H   H48       1.0  0.9924644105901094  0.225102325394289  0.17829030408552887  1.0000
  H   H49       1.0  0.7582786952982729  0.29393373073875045  0.716576123964991  1.0000
  H   H50       1.0  0.24172093239594966  0.793934523407394  0.7834239055157468  1.0000
  H   H51       1.0  0.24172094104505956  0.7060662951372763  0.28342316766698167  1.0000
  H   H52       1.0  0.7582808585284935  0.20606618344839941  0.2165773740875707  1.0000
  H   H53       1.0  0.7280792210992787  0.2546937493566759  0.6408235983292202  1.0000
  H   H54       1.0  0.2719203318891986  0.7546947536919647  0.85917638740969  1.0000
  H   H55       1.0  0.2719197073479904  0.7453069574946555  0.3591756243858413  1.0000
  H   H56       1.0  0.728082174655192  0.24530663414086726  0.140825406416063  1.0000
  H   H57       1.0  0.7139973172116996  0.3726578538183958  0.6578002983742907  1.0000
  H   H58       1.0  0.28600316825485084  0.8726574812834967  0.8421998877791523  1.0000
  H   H59       1.0  0.2860023345781002  0.627343534010457  0.3421998838679913  1.0000
  H   H60       1.0  0.7140000230178315  0.12734322557257374  0.1578006390491922  1.0000
  H   H61       1.0  0.6107848317943051  0.8149487600076312  0.5190541748160626  1.0000
  H   H62       1.0  0.38921552836335843  0.31495273291863424  0.9809450564002449  1.0000
  H   H63       1.0  0.38921622034049347  0.1850492229418919  0.48094525464934196  1.0000
  H   H64       1.0  0.6107841079819137  0.6850493358851678  0.01905423523285782  1.0000
  H   H65       1.0  0.655486473467228  0.7531230637286798  0.5860884841734801  1.0000
  H   H66       1.0  0.34451376898574887  0.2531275022714042  0.9139106781241895  1.0000
  H   H67       1.0  0.34451458638951493  0.24687423824541102  0.41391139059632565  1.0000
  H   H68       1.0  0.6554844515667566  0.7468752475070632  0.0860884756747211  1.0000
  H   H69       1.0  0.5933866201824074  0.6951031164749324  0.5222841845305339  1.0000
  H   H70       1.0  0.4066135118104768  0.19510710950233093  0.9777149130903737  1.0000
  H   H71       1.0  0.4066137317802117  0.30489690940220987  0.47771562132349743  1.0000
  H   H72       1.0  0.5933854089168021  0.8048963212521942  0.022283864321430272  1.0000
  H   H73       1.0  0.9093800553093628  0.7605437395479839  0.4785744703992449  1.0000
  H   H74       1.0  0.09062041674152249  0.26054420556662455  0.021425103639082007  1.0000
  H   H75       1.0  0.0906195964771968  0.23945424340126215  0.5214257118411396  1.0000
  H   H76       1.0  0.90937992749852  0.7394558203100345  0.9785742569101715  1.0000
  H   H77       1.0  0.8484241490062487  0.771054472768519  0.4025296680470944  1.0000
  H   H78       1.0  0.15157635077868287  0.2710558800321508  0.09747036301315863  1.0000
  H   H79       1.0  0.15157834209296786  0.2289469150633323  0.5974712351691168  1.0000
  H   H80       1.0  0.8484218774964133  0.7289468697467997  0.9025292360905299  1.0000
  H   H81       1.0  0.84509539179205  0.666158344131013  0.44213351524878425  1.0000
  H   H82       1.0  0.15490702425676525  0.16615967054983835  0.05786616032774822  1.0000
  H   H83       1.0  0.15490423682804527  0.33384100076860795  0.5578653310780268  1.0000
  H   H84       1.0  0.845095466843098  0.833842398257936  0.9421347428888398  1.0000
  H   H85       1.0  0.6506121679491131  0.8121573387060723  0.3974822799812259  1.0000
  H   H86       1.0  0.3493863018450155  0.3121604273877949  0.10251848075620275  1.0000
  H   H87       1.0  0.34938816084510177  0.1878420061936836  0.6025161899581022  1.0000
  H   H88       1.0  0.6506112803134058  0.6878416414185298  0.8974846118680234  1.0000
  H   H89       1.0  0.751347958349882  0.8833732113218391  0.4095655575895378  1.0000
  H   H90       1.0  0.24865061613674297  0.3833767976227876  0.0904335013154665  1.0000
  H   H91       1.0  0.24865237044433997  0.11662613357791682  0.5904329123497903  1.0000
  H   H92       1.0  0.7513483200370032  0.6166279950845633  0.9095661667066468  1.0000
  H   H93       1.0  0.6706139256981771  0.8873936866620014  0.46153674418220453  1.0000
  H   H94       1.0  0.32938750347343415  0.38739592402028933  0.0384634854824952  1.0000
  H   H95       1.0  0.32938568747739777  0.11260633921256162  0.5384612115354415  1.0000
  H   H96       1.0  0.6706157264128335  0.6126054638141485  0.9615392678701014  1.0000
  H   H97       1.0  0.9956261845491168  0.6527571134187158  0.6796988391747478  1.0000
  H   H98       1.0  0.004374590162228703  0.1527567322714418  0.8203011707662428  1.0000
  H   H99       1.0  0.0043734826845565  0.3472429124592722  0.3203022336763226  1.0000
  H   H100      1.0  0.9956264542512868  0.8472426126294367  0.17969781339515123  1.0000
  H   H101      1.0  0.9921734883725649  0.7259578808926863  0.6285267732500658  1.0000
  H   H102      1.0  0.007828125874908701  0.22595829727511332  0.8714729419029014  1.0000
  H   H103      1.0  0.0078276023764658  0.27404146401112683  0.37147488273997453  1.0000
  H   H104      1.0  0.9921721951973764  0.7740417286000751  0.12852508273203261  1.0000
  C   C1        1.0  0.018831996727065804  0.4733821135087056  0.9258915810471606  1.0000
  C   C2        1.0  0.9811672569837527  0.9733808807654539  0.5741081342467069  1.0000
  C   C3        1.0  0.9811641310224245  0.5266172313902331  0.07410914721709361  1.0000
  C   C4        1.0  0.0188351877793025  0.02661982608753991  0.42589009714047427  1.0000
  C   C5        1.0  0.9631466424291376  0.5358991227425066  0.8884546822128957  1.0000
  C   C6        1.0  0.03685179383809611  0.035899019712097406  0.6115454360161723  1.0000
  C   C7        1.0  0.03684807724757629  0.46409817922789653  0.11154635352041713  1.0000
  C   C8        1.0  0.9631506740920627  0.9641010061664448  0.3884541312849522  1.0000
  C   C9        1.0  0.964850696662495  0.5363219430269482  0.8266885764785173  1.0000
  C   C10       1.0  0.03514844058331331  0.03632129054690131  0.673311165834086  1.0000
  C   C11       1.0  0.035145415641821394  0.4636774018710099  0.1733112611761882  1.0000
  C   C12       1.0  0.9648526269973061  0.9636773733795254  0.3266891542412509  1.0000
  C   C13       1.0  0.02185532065252  0.4740656811327853  0.8020138336124205  1.0000
  C   C14       1.0  0.9781432187406408  0.9740647127914742  0.6979853682215166  1.0000
  C   C15       1.0  0.9781414763820421  0.5259350257161728  0.19798473704599934  1.0000
  C   C16       1.0  0.021857148667152198  0.025935313086655806  0.3020153282420637  1.0000
  C   C17       1.0  0.07617543358297499  0.4104278825986968  0.8388267217866243  1.0000
  C   C18       1.0  0.9238215765835064  0.9104260685903114  0.6611727165781432  1.0000
  C   C19       1.0  0.9238213866193448  0.5895728242517324  0.16117318478612935  1.0000
  C   C20       1.0  0.07617802886818478  0.0895725953319157  0.3388247938339646  1.0000
  C   C21       1.0  0.07476996268628258  0.410187564470519  0.9009393069895071  1.0000
  C   C22       1.0  0.9252277471986188  0.9101876606455194  0.5990597547209475  1.0000
  C   C23       1.0  0.9252261573425641  0.5898138233556905  0.09906097597110634  1.0000
  C   C24       1.0  0.07477469756573639  0.0898144081593131  0.4009384766669868  1.0000
  C   C25       1.0  0.9042994837329345  0.6029900761833601  0.7867720070561361  1.0000
  C   C26       1.0  0.0956997881605517  0.10299028583054343  0.7132282548786222  1.0000
  C   C27       1.0  0.0956994678807987  0.39700926871759634  0.2132285515724917  1.0000
  C   C28       1.0  0.9042998559047176  0.897009059070058  0.2867714820577447  1.0000
  C   C29       1.0  0.1362166012355388  0.3429602108642627  0.8120462581703763  1.0000
  C   C30       1.0  0.8637817271695096  0.8429597233514913  0.6879550240406404  1.0000
  C   C31       1.0  0.8637795187926613  0.6570404959860243  0.18795402478986037  1.0000
  C   C32       1.0  0.13621930952206904  0.1570403025248126  0.31204351481635234  1.0000
  C   C33       1.0  0.4920504503263459  0.4734876535457389  0.5758353091253241  1.0000
  C   C34       1.0  0.507950934999421  0.973487805218433  0.9241650583435971  1.0000
  C   C35       1.0  0.5079506481420211  0.5265082864789578  0.42416679216759695  1.0000
  C   C36       1.0  0.49204940151543747  0.026509496754052002  0.07583385689936513  1.0000
  C   C37       1.0  0.5593386592994064  0.5292201753250723  0.6107335419505732  1.0000
  C   C38       1.0  0.4406625881144777  0.02921790051942  0.8892663991964371  1.0000
  C   C39       1.0  0.4406596153092579  0.4707805315290515  0.3892687289806248  1.0000
  C   C40       1.0  0.5593384408519171  0.9707794014527097  0.11073169435426423  1.0000
  C   C41       1.0  0.564647629884746  0.5317739069544345  0.6731352795272658  1.0000
  C   C42       1.0  0.43535433028885256  0.031772850256921004  0.8268647333844329  1.0000
  C   C43       1.0  0.4353534763062044  0.4682220330707453  0.32686726707042624  1.0000
  C   C44       1.0  0.5646431669146493  0.9682224087847972  0.17313346088346293  1.0000
  C   C45       1.0  0.5043963348414167  0.4768184525507735  0.7011719853533835  1.0000
  C   C46       1.0  0.49560504137885886  0.9768169507287897  0.7988274952180066  1.0000
  C   C47       1.0  0.495603340110307  0.5231768064962525  0.29882953279980745  1.0000
  C   C48       1.0  0.5043945640702389  0.02317898928975381  0.20117001519258795  1.0000
  C   C49       1.0  0.43818016401152693  0.4204056368810001  0.6664759221389717  1.0000
  C   C50       1.0  0.5618211279773532  0.9204049946805173  0.8335248314622137  1.0000
  C   C51       1.0  0.5618209344568398  0.5795903031436893  0.33352617915394234  1.0000
  C   C52       1.0  0.43817920081622225  0.0795936692433159  0.16647363847673097  1.0000
  C   C53       1.0  0.43199867694222854  0.4188931164622431  0.6038038626216604  1.0000
  C   C54       1.0  0.5680026121678735  0.9188933010300249  0.8961968892939397  1.0000
  C   C55       1.0  0.5680045297704479  0.5811021425874259  0.39619755481319174  1.0000
  C   C56       1.0  0.43199702417416574  0.0811053628941636  0.10380240233727282  1.0000
  C   C57       1.0  0.6292878160815006  0.5979512373497687  0.7098660068714153  1.0000
  C   C58       1.0  0.3707142855269723  0.09795000004680081  0.7901349704195229  1.0000
  C   C59       1.0  0.37071329011010323  0.40204538365133413  0.29013653972666026  1.0000
  C   C60       1.0  0.6292853353679532  0.9020466209486387  0.20986343060099702  1.0000
  C   C61       1.0  0.37273622723096617  0.36189548501386065  0.6953394218174155  1.0000
  C   C62       1.0  0.6272656458178574  0.8618962441246865  0.8046604448693347  1.0000
  C   C63       1.0  0.6272620242073473  0.6381024979351083  0.3046615131979422  1.0000
  C   C64       1.0  0.3727367989445439  0.13810378175237759  0.19533778651746303  1.0000
  C   C65       1.0  0.9761935441064294  0.4262106508275424  0.6256492504959327  1.0000
  C   C66       1.0  0.023807058761271104  0.9262113011784836  0.8743518859644797  1.0000
  C   C67       1.0  0.023806099960779602  0.5737907370008273  0.3743504864415712  1.0000
  C   C68       1.0  0.976196155681116  0.07379144860681923  0.12564997677932155  1.0000
  C   C69       1.0  0.8775504408568152  0.4129567543940454  0.6393253038696542  1.0000
  C   C70       1.0  0.1224501213340687  0.9129588908262107  0.8606749272075407  1.0000
  C   C71       1.0  0.1224477719711601  0.5870439524561631  0.3606734046233485  1.0000
  C   C72       1.0  0.8775537932824446  0.08704385895922681  0.1393265591487776  1.0000
  C   C73       1.0  0.9186816912778255  0.2530813750736769  0.6666663694353759  1.0000
  C   C74       1.0  0.0813192898798718  0.753082706986902  0.8333346429504901  1.0000
  C   C75       1.0  0.08131723717009011  0.7469200127535771  0.33333285328006923  1.0000
  C   C76       1.0  0.9186846401824552  0.24692072377543894  0.16666773401576052  1.0000
  C   C77       1.0  0.7577659350716103  0.31215863738772504  0.6691186422706111  1.0000
  C   C78       1.0  0.24223372731969306  0.8121595339550753  0.8308814075260147  1.0000
  C   C79       1.0  0.2422330010982421  0.6878420694640968  0.33088102574922834  1.0000
  C   C80       1.0  0.7577694793988171  0.1878418538778917  0.16912000991225543  1.0000
  C   C81       1.0  0.6433246022065761  0.7510664532976961  0.536685140109718  1.0000
  C   C82       1.0  0.3566756363311044  0.25107101813398464  0.9633140198954637  1.0000
  C   C83       1.0  0.35667645765146  0.24893221062823304  0.4633147346608482  1.0000
  C   C84       1.0  0.6433225842220551  0.7489324126204054  0.036685133903830505  1.0000
  C   C85       1.0  0.734499900668844  0.728715509372471  0.5152225412792648  1.0000
  C   C86       1.0  0.2655003107597409  0.22871793571395932  0.984777484419027  1.0000
  C   C87       1.0  0.2655004512931285  0.27128383552875596  0.4847772645743902  1.0000
  C   C88       1.0  0.7344979252379388  0.7712848140654884  0.015222559989432193  1.0000
  C   C89       1.0  0.8462131265921541  0.7404337555617533  0.4465558640471273  1.0000
  C   C90       1.0  0.15378730717435468  0.2404357516043021  0.05344368757487671  1.0000
  C   C91       1.0  0.1537872253691788  0.2595649083635508  0.5534439418061512  1.0000
  C   C92       1.0  0.8462123368948012  0.7595676791518287  0.9465560493637643  1.0000
  C   C93       1.0  0.7041074051543745  0.842415221539419  0.4324473635058652  1.0000
  C   C94       1.0  0.29589250714895593  0.3424188318069455  0.0675517875766687  1.0000
  C   C95       1.0  0.29589221574313734  0.15758412335971173  0.5675510375161751  1.0000
  C   C96       1.0  0.7041078679840139  0.6575839179753586  0.9324493541932031  1.0000
  N   N1        1.0  0.022038460734535203  0.4683851833134371  0.9890639747321046  1.0000
  N   N2        1.0  0.9779593676733569  0.9683878941849143  0.510935597159154  1.0000
  N   N3        1.0  0.9779569591169518  0.531612799633031  0.010936684614101522  1.0000
  N   N4        1.0  0.022041669020168804  0.0316141746191576  0.48906294169897546  1.0000
  N   N5        1.0  0.47975886405144746  0.4685293892708131  0.512310114004066  1.0000
  N   N6        1.0  0.5202432274554099  0.968531060071328  0.9876907621606464  1.0000
  N   N7        1.0  0.5202436502103325  0.531466550755134  0.48769212512343074  1.0000
  N   N8        1.0  0.4797564088859758  0.0314669228769375  0.012308529470182293  1.0000
  N   N9        1.0  0.8540949680981881  0.3305123645702822  0.6590093415503376  1.0000
  N   N10       1.0  0.14590473695846376  0.8305138138440641  0.8409911740108031  1.0000
  N   N11       1.0  0.14590326017496116  0.6694883422809071  0.3409902575522068  1.0000
  N   N12       1.0  0.8540991776574031  0.1694882549654508  0.1590103123451385  1.0000
  N   N13       1.0  0.760245441347365  0.771751113285454  0.4678101685733793  1.0000
  N   N14       1.0  0.23975434414584373  0.27175387820219044  0.032189349042127405  1.0000
  N   N15       1.0  0.23975489517008697  0.22824891259071484  0.5321887466711034  1.0000
  N   N16       1.0  0.7602453153684863  0.7282495525549211  0.9678112785060622  1.0000
  O   O1        1.0  0.9163856333954852  0.6077289373007346  0.7317669446038907  1.0000
  O   O2        1.0  0.0836150555902222  0.10772856661927929  0.7682330151428972  1.0000
  O   O3        1.0  0.0836147262890776  0.39227040760098225  0.26823330655454214  1.0000
  O   O4        1.0  0.9163852963723969  0.8922714592578701  0.23176679071114142  1.0000
  O   O5        1.0  0.8463906168436707  0.6493345548596281  0.8111598608462673  1.0000
  O   O6        1.0  0.15360943573239175  0.14933412086227804  0.6888396310574052  1.0000
  O   O7        1.0  0.15360974284413226  0.3506681949217025  0.18884039031405564  1.0000
  O   O8        1.0  0.8463894849923007  0.8506665859885558  0.31115914635288533  1.0000
  O   O9        1.0  0.13552423723727  0.34515765815436356  0.7554557256068932  1.0000
  O   O10       1.0  0.8644776348330367  0.8451552517368272  0.7445459036390504  1.0000
  O   O11       1.0  0.8644733063075805  0.654843729673587  0.24454514049307366  1.0000
  O   O12       1.0  0.1355262102789112  0.15484613609236672  0.2554515749735273  1.0000
  O   O13       1.0  0.18532561384228066  0.2876807059865953  0.8481726686909568  1.0000
  O   O14       1.0  0.8146725861525183  0.7876800634004085  0.6518272159839782  1.0000
  O   O15       1.0  0.814671206360039  0.7123200008638336  0.15182723788178987  1.0000
  O   O16       1.0  0.18532774264170368  0.21231928149934737  0.34817125395535  1.0000
  O   O17       1.0  0.6864080665153125  0.6453328749978766  0.6817276353549815  1.0000
  O   O18       1.0  0.31359340968005267  0.1453316097400261  0.8182728805315592  1.0000
  O   O19       1.0  0.31359088509712757  0.35466510795123446  0.31827292327288603  1.0000
  O   O20       1.0  0.686407650177337  0.8546663732099874  0.18172699423862337  1.0000
  O   O21       1.0  0.6245664505516545  0.6116395895073269  0.7640285847638779  1.0000
  O   O22       1.0  0.37543424587831703  0.1116382419000104  0.7359713793416774  1.0000
  O   O23       1.0  0.3754332321258928  0.388359074419803  0.23597337869598795  1.0000
  O   O24       1.0  0.6245653750179018  0.8883597410472746  0.2640270216796026  1.0000
  O   O25       1.0  0.3833719317240494  0.3564273187032185  0.7524627695002692  1.0000
  O   O26       1.0  0.6166320468856484  0.8564320229862332  0.7475368525402433  1.0000
  O   O27       1.0  0.6166263197149106  0.6435713452216802  0.24753816551546495  1.0000
  O   O28       1.0  0.38337111349864017  0.14357072679564453  0.2524618930701338  1.0000
  O   O29       1.0  0.30814014045795085  0.31842257478539443  0.6603760952951775  1.0000
  O   O30       1.0  0.6918588182356302  0.8184194247363052  0.8396234472597257  1.0000
  O   O31       1.0  0.6918574030849527  0.6815767701147949  0.3396247708036527  1.0000
  O   O32       1.0  0.3081408026586415  0.1815765152832114  0.16037495376041735  1.0000
  O   O33       1.0  0.8161065537402478  0.47555064256555113  0.631310077815975  1.0000
  O   O34       1.0  0.18389412761708  0.9755515302848253  0.8686902230357421  1.0000
  O   O35       1.0  0.1838916668103181  0.5244500642851478  0.3686890759817986  1.0000
  O   O36       1.0  0.8161104948954899  0.024450538525322002  0.13131133223748043  1.0000
  O   O37       1.0  0.7875527143835724  0.6651491994296563  0.5401665182587934  1.0000
  O   O38       1.0  0.21244878409741116  0.165152169818505  0.9598331291103934  1.0000
  O   O39       1.0  0.21244833002994307  0.33485014547122205  0.45983246590259347  1.0000
  O   O40       1.0  0.7875487440061522  0.8348533038640014  0.04016684638229862  1.0000
  O   O41       1.0  0.9886295370028079  0.6606883867009188  0.6356706603910071  1.0000
  O   O42       1.0  0.011370537189726802  0.16068879308922857  0.8643288441695846  1.0000
  O   O43       1.0  0.011371538301048598  0.3393109582019136  0.3643301049894916  1.0000
  O   O44       1.0  0.9886283835343121  0.8393112327856898  0.13566993324032242  1.0000
