data_image0
_chemical_formula_structural       Al2H14C20O10
_chemical_formula_sum              "Al2 H14 C20 O10"
_cell_length_a       7.052007124044422
_cell_length_b       11.191002965475388
_cell_length_c       11.190739109948428
_cell_angle_alpha    77.79802825810147
_cell_angle_beta     71.58819049491865
_cell_angle_gamma    71.58384245222616

_space_group_name_H-M_alt    "P 1"
_space_group_IT_number       1

loop_
  _space_group_symop_operation_xyz
  'x, y, z'

loop_
  _atom_site_type_symbol
  _atom_site_label
  _atom_site_symmetry_multiplicity
  _atom_site_fract_x
  _atom_site_fract_y
  _atom_site_fract_z
  _atom_site_occupancy
  Al  Al1       1.0  0.5002915389658681  0.4999629862967083  0.4995085685529619  1.0000
  Al  Al2       1.0  0.9997019950697346  0.5005003730151146  0.5000465954559702  1.0000
  H   H1        1.0  0.24996745021724104  0.3735048110626878  0.6265647932786254  1.0000
  H   H2        1.0  0.7499582740073049  0.6270784461975722  0.3729876629043434  1.0000
  H   H3        1.0  0.8567770650401981  0.5006455281990584  0.8815973018554647  1.0000
  H   H4        1.0  0.7400854014044711  0.4993598936699969  0.11724190059774739  1.0000
  H   H5        1.0  0.9606930448455766  0.5833219299221641  0.10986924991797768  1.0000
  H   H6        1.0  0.03653544396855309  0.41386432407689017  0.12971255397488335  1.0000
  H   H7        1.0  0.1536034073045371  0.41595225012157766  0.8909330375773266  1.0000
  H   H8        1.0  0.07948591648689522  0.5854309878866389  0.8711205494203188  1.0000
  H   H9        1.0  0.7598800197165685  0.8827967001658192  0.5006294870138319  1.0000
  H   H10       1.0  0.643238146390729  0.11843776419494394  0.4993515825383739  1.0000
  H   H11       1.0  0.34643465758885833  0.1090257151406533  0.5840552782422324  1.0000
  H   H12       1.0  0.42053514048397733  0.12884587505081418  0.414585562008  1.0000
  H   H13       1.0  0.5392899061275855  0.8901091782665277  0.41667212421835853  1.0000
  H   H14       1.0  0.46348533180230317  0.8702449188971428  0.5861282712232525  1.0000
  C   C1        1.0  0.8628452002742149  0.2760396059970987  0.500207237549134  1.0000
  C   C2        1.0  0.6371834535397338  0.49979002905909203  0.7239687647951744  1.0000
  C   C3        1.0  0.13841002601643723  0.7243649562267153  0.49963804559346425  1.0000
  C   C4        1.0  0.3615599363681101  0.5003539696252375  0.27564723777291533  1.0000
  C   C5        1.0  0.42984250945213637  0.4993133024218608  0.13588567066705795  1.0000
  C   C6        1.0  0.5649292534618765  0.5003655102622135  0.8637814941436519  1.0000
  C   C7        1.0  0.29876715972174844  0.49934353348241  0.0658193469563031  1.0000
  C   C8        1.0  0.6989849549537082  0.5002465457522192  0.9340058261669032  1.0000
  C   C9        1.0  0.3639952730815138  0.49995944174017376  0.9342745580673797  1.0000
  C   C10       1.0  0.6339420177395138  0.49957842674734826  0.06526058858161589  1.0000
  C   C11       1.0  0.0815439846656004  0.4990169869774589  0.07502833874901435  1.0000
  C   C12       1.0  0.1553422621121498  0.5002484060966665  0.9256350261089782  1.0000
  C   C13       1.0  0.9350923263267246  0.136229983220332  0.499635193754621  1.0000
  C   C14       1.0  0.07013552306538873  0.8641280815958653  0.5006792672000773  1.0000
  C   C15       1.0  0.13602720983119804  0.0657178994066925  0.5000432648757  1.0000
  C   C16       1.0  0.8660312022647284  0.9347733044871875  0.5004078797762049  1.0000
  C   C17       1.0  0.2012311222551374  0.9341749078695972  0.5006526937648774  1.0000
  C   C18       1.0  0.8010274802144152  0.06602419254993921  0.4997530144341483  1.0000
  C   C19       1.0  0.3446814948316685  0.07433467917229561  0.4997604413094195  1.0000
  C   C20       1.0  0.4184710025112254  0.9249533724853406  0.500979952149976  1.0000
  O   O1        1.0  0.6733305617965895  0.32932546103975113  0.501178833834608  1.0000
  O   O2        1.0  0.8266737168206432  0.49882498355362515  0.6706882645094154  1.0000
  O   O3        1.0  0.0030510828410612247  0.6711847548177873  0.4988826578921391  1.0000
  O   O4        1.0  0.49692471812372924  0.5011190076880183  0.3288320330758055  1.0000
  O   O5        1.0  0.32808761196093156  0.6707633596094882  0.49813696231300514  1.0000
  O   O6        1.0  0.17188497837452119  0.5018687374186613  0.32923454028753696  1.0000
  O   O7        1.0  0.9976688657604028  0.3295836840703857  0.5011650896311722  1.0000
  O   O8        1.0  0.502329541363103  0.49884621262104634  0.6704243506930896  1.0000
  O   O9        1.0  0.25003246791906253  0.4423841773639127  0.5576278394071396  1.0000
  O   O10       1.0  0.7499503562457547  0.5581342007425291  0.44186766998412724  1.0000
