data_image0
_chemical_formula_structural       Al4H16C38O22
_chemical_formula_sum              "Al4 H16 C38 O22"
_cell_length_a       6.702869820065296
_cell_length_b       18.423389307869225
_cell_length_c       20.603374943586676
_cell_angle_alpha    107.87927353109136
_cell_angle_beta     90.3646306895748
_cell_angle_gamma    90.0677114440046

_space_group_name_H-M_alt    "P 1"
_space_group_IT_number       1

loop_
  _space_group_symop_operation_xyz
  'x, y, z'

loop_
  _atom_site_type_symbol
  _atom_site_label
  _atom_site_symmetry_multiplicity
  _atom_site_fract_x
  _atom_site_fract_y
  _atom_site_fract_z
  _atom_site_occupancy
  Al  Al1       1.0  0.1370513891463858  0.5005714628382876  0.5011375865401176  1.0000
  Al  Al2       1.0  0.6372048227493609  0.5009884451917374  0.5013914212795993  1.0000
  Al  Al3       1.0  0.6531137565478885  0.0005746581443162  0.0017187594014770997  1.0000
  Al  Al4       1.0  0.15283356887150754  0.0001465359543076  0.0008529836403212995  1.0000
  H   H1        1.0  0.20704940363242497  0.6900973431138341  0.272327375687638  1.0000
  H   H2        1.0  0.2074807932815759  0.773609375553491  0.1986393191966228  1.0000
  H   H3        1.0  0.7114640251297288  0.2896162584033206  0.7098276177273842  1.0000
  H   H4        1.0  0.716144757737851  0.20897964679225112  0.787683242096264  1.0000
  H   H5        1.0  0.0737209185067229  0.21038676263316347  0.7912301538944531  1.0000
  H   H6        1.0  0.0690926645434047  0.2910387101247665  0.7133662298542728  1.0000
  H   H7        1.0  0.5929228574298834  0.9196054472732698  0.20533234415446325  1.0000
  H   H8        1.0  0.5921030830989764  0.9339962739659878  0.29581258152218465  1.0000
  H   H9        1.0  0.36270221079136883  0.915365169018102  0.2477944033910402  1.0000
  H   H10       1.0  0.4723303755154476  0.8396104995177679  0.3716639189432838  1.0000
  H   H11       1.0  0.6038695085761319  0.7834882149338468  0.41614683159554  1.0000
  H   H12       1.0  0.34661412740958747  0.7636292554901658  0.3924954793936306  1.0000
  H   H13       1.0  0.3870064796252636  0.5936204630924137  0.49707419957127974  1.0000
  H   H14       1.0  0.8856403048726236  0.401562840876018  0.4877794095567294  1.0000
  H   H15       1.0  0.40261492475777766  0.9016419873837476  0.9892315115304053  1.0000
  H   H16       1.0  0.9037762620328921  0.09753481751557297  0.007080639778287395  1.0000
  C   C1        1.0  0.3859959969745645  0.39497163419771647  0.39635684737308435  1.0000
  C   C2        1.0  0.38770143821364667  0.4241555998228037  0.5774420650233193  1.0000
  C   C3        1.0  0.889092634495853  0.6053031779242488  0.6062474503823123  1.0000
  C   C4        1.0  0.8866817615999028  0.5777977171792444  0.42501438774073086  1.0000
  C   C5        1.0  0.07025169118622192  0.7648846444739945  0.22326129823022706  1.0000
  C   C6        1.0  0.8940184218583624  0.8016527409213979  0.21202848650561623  1.0000
  C   C7        1.0  0.7144722306563692  0.7911669084430102  0.24440599305653166  1.0000
  C   C8        1.0  0.7143808766996854  0.7424332111468601  0.2853447683699171  1.0000
  C   C9        1.0  0.8920069610100398  0.7062072098970517  0.2959134034426539  1.0000
  C   C10       1.0  0.07007031675363613  0.7179327647632545  0.2642293639633805  1.0000
  C   C11       1.0  0.8989172688702781  0.8448713053506295  0.16607940556692563  1.0000
  C   C12       1.0  0.8891194671439636  0.6603562220356238  0.3397072655109311  1.0000
  C   C13       1.0  0.8870689085401653  0.6219842823776673  0.37846482049022245  1.0000
  C   C14       1.0  0.9065174014715256  0.8808034225528729  0.1253373799350967  1.0000
  C   C15       1.0  0.8967579702629253  0.8332462092783146  0.8332033811854127  1.0000
  C   C16       1.0  0.8942740820208499  0.7796944741077709  0.780482161506242  1.0000
  C   C17       1.0  0.8921327687528235  0.7206267137918658  0.7222348923944178  1.0000
  C   C18       1.0  0.8908754532207512  0.6670891843730827  0.6694868592919574  1.0000
  C   C19       1.0  0.38676727834417335  0.3332709616539447  0.33304618074890857  1.0000
  C   C20       1.0  0.39175409533900307  0.27992976360067706  0.2802084912435702  1.0000
  C   C21       1.0  0.39727809959227756  0.22101970096169046  0.22190725347572018  1.0000
  C   C22       1.0  0.4028388018919814  0.1675566031879328  0.16917200024872153  1.0000
  C   C23       1.0  0.5754305988575156  0.22717085234477  0.7710653818241224  1.0000
  C   C24       1.0  0.3952344445640322  0.20445243262424384  0.7943807129733711  1.0000
  C   C25       1.0  0.21232653839832952  0.22792788950793147  0.7730309900768472  1.0000
  C   C26       1.0  0.20979240645200292  0.27264631031917475  0.7298194675854713  1.0000
  C   C27       1.0  0.3900362871576349  0.29528366823517155  0.7064843350246404  1.0000
  C   C28       1.0  0.5728927700798893  0.2718487611211202  0.7278640549365104  1.0000
  C   C29       1.0  0.39818285771177403  0.1593120746489447  0.8389290332928707  1.0000
  C   C30       1.0  0.38820817835653537  0.34064067016880983  0.6621428627534767  1.0000
  C   C31       1.0  0.3882766486029182  0.3794242006942738  0.6237332481012243  1.0000
  C   C32       1.0  0.4009459041074237  0.1209712719887648  0.8777181834086317  1.0000
  C   C33       1.0  0.40204836688823786  0.07717331953463  0.924807049050045  1.0000
  C   C34       1.0  0.404201827658973  0.10564035516778598  0.10604333608838347  1.0000
  C   C35       1.0  0.9053721895189427  0.9239274674503408  0.07789545470190984  1.0000
  C   C36       1.0  0.8998237239891653  0.895029810182969  0.8964008303563559  1.0000
  C   C37       1.0  0.5227123555539707  0.902913351614245  0.24651927496873327  1.0000
  C   C38       1.0  0.48920836683223  0.7824352321085685  0.3773452018659213  1.0000
  O   O1        1.0  0.5573172477116941  0.4409852536445626  0.5584028418811469  1.0000
  O   O2        1.0  0.21578292725717327  0.4178311550853166  0.42136715217245047  1.0000
  O   O3        1.0  0.05702113082517  0.5596615182945754  0.44321738251684184  1.0000
  O   O4        1.0  0.2173667996046191  0.44181294475106375  0.5591364906335128  1.0000
  O   O5        1.0  0.058481720961062  0.5820387592601078  0.5808670252086612  1.0000
  O   O6        1.0  0.5567620745056986  0.41922423775489653  0.42104781434383637  1.0000
  O   O7        1.0  0.3872168803786806  0.5456073371525746  0.5072184289585093  1.0000
  O   O8        1.0  0.7179757562867195  0.581337176362048  0.5818463509398908  1.0000
  O   O9        1.0  0.7167957864742434  0.5617099733323915  0.4447310710943596  1.0000
  O   O10       1.0  0.8866422504626785  0.4558652325098648  0.49417329498243817  1.0000
  O   O11       1.0  0.23392165575280194  0.08149708566764961  0.08087860080325977  1.0000
  O   O12       1.0  0.5723922062257074  0.06042502934473501  0.9439555317571258  1.0000
  O   O13       1.0  0.7306754535089298  0.9185369146956786  0.9220388987410284  1.0000
  O   O14       1.0  0.5745093590413717  0.0821702399459454  0.08157081581078528  1.0000
  O   O15       1.0  0.7343086292930464  0.9417412121581139  0.05998104093957582  1.0000
  O   O16       1.0  0.23202988035833982  0.060214444452960016  0.9435978468227543  1.0000
  O   O17       1.0  0.40295661789662063  0.955702447716959  0.9944286222393255  1.0000
  O   O18       1.0  0.07448947713464091  0.9399508851002879  0.05775690832552272  1.0000
  O   O19       1.0  0.071301805344298  0.9190203391355499  0.9205692238865306  1.0000
  O   O20       1.0  0.9032567609533403  0.0452601264616561  0.007933150202241302  1.0000
  O   O21       1.0  0.5350575544189058  0.8217775563015479  0.23554532047211288  1.0000
  O   O22       1.0  0.54008012395159  0.727405461055042  0.3132554291451583  1.0000
