data_image0
_chemical_formula_structural       Ba2H12C4N20O6
_chemical_formula_sum              "Ba2 H12 C4 N20 O6"
_cell_length_a       8.460649900012287
_cell_length_b       9.086082891169964
_cell_length_c       9.052295535930439
_cell_angle_alpha    120.12427547497335
_cell_angle_beta     114.99672587083523
_cell_angle_gamma    90.00135387620931

_space_group_name_H-M_alt    "P 1"
_space_group_IT_number       1

loop_
  _space_group_symop_operation_xyz
  'x, y, z'

loop_
  _atom_site_type_symbol
  _atom_site_label
  _atom_site_symmetry_multiplicity
  _atom_site_fract_x
  _atom_site_fract_y
  _atom_site_fract_z
  _atom_site_occupancy
  Ba  Ba1       1.0  0.7500003202813302  0.08629166981600633  2.055945167037879e-06  1.0000
  Ba  Ba2       1.0  0.24999754408731434  0.9137033088471541  0.9999990070220756  1.0000
  H   H1        1.0  0.8046349873383818  0.523332327958535  0.11522782865788612  1.0000
  H   H2        1.0  0.3046157311108003  0.5918401456851041  0.11512294070705999  1.0000
  H   H3        1.0  0.19536365431999766  0.4766652920355341  0.8847737642462827  1.0000
  H   H4        1.0  0.6953862947284221  0.4081600778963548  0.8848791041439408  1.0000
  H   H5        1.0  0.4614618333775056  0.26616297932743294  0.08304840267312831  1.0000
  H   H6        1.0  0.9614562763946566  0.8168843934546004  0.08304901769690774  1.0000
  H   H7        1.0  0.5385412805732058  0.7338319162387776  0.9169480959721308  1.0000
  H   H8        1.0  0.03854460588487999  0.18311186337430027  0.9169494770350819  1.0000
  H   H9        1.0  0.3527264704290189  0.1741025306553396  0.8504818551676789  1.0000
  H   H10       1.0  0.8527201554480187  0.6763748330566842  0.8504766043933852  1.0000
  H   H11       1.0  0.647270505988871  0.8258937818376  0.14951620550672104  1.0000
  H   H12       1.0  0.14727759825961326  0.32362412076715696  0.14952198621793392  1.0000
  C   C1        1.0  0.320572184398543  0.08698403498146942  0.5194474131658138  1.0000
  C   C2        1.0  0.8205735324590009  0.4324615227068947  0.5194430628390589  1.0000
  C   C3        1.0  0.6794226710091775  0.9130096636134724  0.48055511595124034  1.0000
  C   C4        1.0  0.17942605828697825  0.5675480086536313  0.48055382921592116  1.0000
  N   N1        1.0  0.48377065501283306  0.04367006614091911  0.5707976007590785  1.0000
  N   N2        1.0  0.9837846832342407  0.5271375911487085  0.5707978691705404  1.0000
  N   N3        1.0  0.5162249776846295  0.9563262737849315  0.42920545829490203  1.0000
  N   N4        1.0  0.016230091575607654  0.4728836658674708  0.429206567072441  1.0000
  N   N5        1.0  0.2670402296914673  0.1761908927967397  0.6539823008322683  1.0000
  N   N6        1.0  0.7670349927459839  0.47778424431460564  0.6539715050659536  1.0000
  N   N7        1.0  0.7329485329332996  0.823804213212526  0.34601627988666184  1.0000
  N   N8        1.0  0.23296876993352103  0.5222172715481436  0.3460252553312059  1.0000
  N   N9        1.0  0.10745889452911679  0.19697988737004826  0.5608165176489732  1.0000
  N   N10       1.0  0.6074451148352081  0.36382880539772344  0.5607944072930305  1.0000
  N   N11       1.0  0.8925335168353854  0.8030231209064527  0.43918196075750127  1.0000
  N   N12       1.0  0.3925639454375585  0.6361686655247638  0.43920797573623077  1.0000
  N   N13       1.0  0.06478508516271118  0.1225338684583264  0.3735912979579509  1.0000
  N   N14       1.0  0.5647829223545031  0.25104707836903367  0.37357496123990314  1.0000
  N   N15       1.0  0.9352066864229797  0.8774625176191507  0.6264058166111749  1.0000
  N   N16       1.0  0.4352243262168685  0.7489530678229104  0.6264258255454677  1.0000
  N   N17       1.0  0.19606637208978844  0.05250418663921861  0.343947141320477  1.0000
  N   N18       1.0  0.6960717080430711  0.29143784999297395  0.34394215060464706  1.0000
  N   N19       1.0  0.8039295251665806  0.9474974519664773  0.656055363474209  1.0000
  N   N20       1.0  0.303930829014014  0.7085729747531317  0.6560609898986837  1.0000
  O   O1        1.0  0.7499976301037633  0.40224650825855696  4.984178956857405e-05  1.0000
  O   O2        1.0  0.25000272154498754  0.5977524097242436  0.9999497729171121  1.0000
  O   O3        1.0  0.41216122399293914  0.15189797887092743  0.9587799557921242  1.0000
  O   O4        1.0  0.9121684596968436  0.8068811946436228  0.9587828771901523  1.0000
  O   O5        1.0  0.5878355505158694  0.8480930216247986  0.041210944543394  1.0000
  O   O6        1.0  0.08783449884299438  0.1931176855956664  0.04121665952644087  1.0000
