data_image0
_chemical_formula_structural       Cd6H112C152N12O28
_chemical_formula_sum              "Cd6 H112 C152 N12 O28"
_cell_length_a       12.79231901064661
_cell_length_b       12.792340907355968
_cell_length_c       24.528288832952576
_cell_angle_alpha    75.110866174346
_cell_angle_beta     75.1107099755163
_cell_angle_gamma    76.77857665888833

_space_group_name_H-M_alt    "P 1"
_space_group_IT_number       1

loop_
  _space_group_symop_operation_xyz
  'x, y, z'

loop_
  _atom_site_type_symbol
  _atom_site_label
  _atom_site_symmetry_multiplicity
  _atom_site_fract_x
  _atom_site_fract_y
  _atom_site_fract_z
  _atom_site_occupancy
  Cd  Cd1       1.0  0.25609153437961396  0.7439099548198483  0.7499996491800118  1.0000
  Cd  Cd2       1.0  0.7439083362090602  0.2560906505970095  0.2499997607559691  1.0000
  Cd  Cd3       1.0  0.8757251350329938  0.49620068243625326  0.19795089349255326  1.0000
  Cd  Cd4       1.0  0.5038010297486082  0.12427375676752925  0.30204915743814803  1.0000
  Cd  Cd5       1.0  0.12427473292589039  0.5038015411804793  0.8020483024998056  1.0000
  Cd  Cd6       1.0  0.49620048501960673  0.8757257559524876  0.6979501794661899  1.0000
  H   H1        1.0  0.2846551692854931  0.18598642855443606  0.45684686224343807  1.0000
  H   H2        1.0  0.8140143620283241  0.7153475131215214  0.043152155089970334  1.0000
  H   H3        1.0  0.7153446991402035  0.8140141747005673  0.5431529559612044  1.0000
  H   H4        1.0  0.18598386569570374  0.28465337589223344  0.9568474348494505  1.0000
  H   H5        1.0  0.37258343879596373  0.08853833613341072  0.5392679241083442  1.0000
  H   H6        1.0  0.9114641057507171  0.6274183156533797  0.9607311761987914  1.0000
  H   H7        1.0  0.6274180720275666  0.9114636038864177  0.4607310918805751  1.0000
  H   H8        1.0  0.0885341267660777  0.3725809573223628  0.039268219415575296  1.0000
  H   H9        1.0  0.826726208899089  0.26553789025818036  0.4098906571177139  1.0000
  H   H10       1.0  0.7344592636555731  0.17327556103116143  0.09010828861485719  1.0000
  H   H11       1.0  0.17327448312190796  0.7344625733602258  0.5901086628165402  1.0000
  H   H12       1.0  0.2655430699151752  0.8267254280902777  0.9098907443441462  1.0000
  H   H13       1.0  0.6108275432963238  0.34201798425100083  0.1445261189985487  1.0000
  H   H14       1.0  0.6579816436302082  0.389171240645041  0.35547306289797825  1.0000
  H   H15       1.0  0.38917150068599676  0.657981947378801  0.855474712716962  1.0000
  H   H16       1.0  0.34202070253711986  0.6108273298240121  0.6445246579017762  1.0000
  H   H17       1.0  0.9129315451918387  0.18348789202447352  0.49430090591428666  1.0000
  H   H18       1.0  0.8165099586336237  0.08707116931486078  0.005697317881832557  1.0000
  H   H19       1.0  0.0870683288747074  0.8165119064543024  0.5056982027248296  1.0000
  H   H20       1.0  0.18349155566777142  0.9129299637668851  0.9943013968102292  1.0000
  H   H21       1.0  0.638655163460072  0.6789841593108576  0.06603697485329724  1.0000
  H   H22       1.0  0.3210160392115213  0.3613399883284958  0.4339648289577909  1.0000
  H   H23       1.0  0.36134470975839145  0.32101482790612584  0.9339626490262916  1.0000
  H   H24       1.0  0.6789862996188064  0.6386577643932015  0.5660346318884351  1.0000
  H   H25       1.0  0.5151009858312889  0.33603643931899535  0.07125155157402219  1.0000
  H   H26       1.0  0.6639642999957828  0.48489841244219206  0.42874745346332327  1.0000
  H   H27       1.0  0.48489805946593373  0.6639626832108763  0.9287493871132925  1.0000
  H   H28       1.0  0.3360380435417625  0.5151017762267287  0.5712500533928164  1.0000
  H   H29       1.0  0.08385706132108342  0.9492805711596902  0.6260328070339582  1.0000
  H   H30       1.0  0.05072155503505369  0.9161466510490613  0.873966330001373  1.0000
  H   H31       1.0  0.9161444451764991  0.05072136453642895  0.3739670254922984  1.0000
  H   H32       1.0  0.9492783181834101  0.08385233616792229  0.12603329387821555  1.0000
  H   H33       1.0  0.2336072058809151  0.18445136824692554  0.38121676448196945  1.0000
  H   H34       1.0  0.8155487959270856  0.76639433233116  0.11878210814096955  1.0000
  H   H35       1.0  0.7663918384826757  0.8155509950063973  0.6187829297807852  1.0000
  H   H36       1.0  0.1844477924101611  0.23360603334142377  0.8812173605050404  1.0000
  H   H37       1.0  0.9942200268520764  0.04476031579709175  0.5446101820608077  1.0000
  H   H38       1.0  0.955238229756013  0.005782812949021855  0.955389315025954  1.0000
  H   H39       1.0  0.005782305022521  0.9552390508007635  0.45538988137914066  1.0000
  H   H40       1.0  0.044760822878202995  0.9942171273282057  0.04460988361488923  1.0000
  H   H41       1.0  0.14544119934810598  0.2747980285688172  0.29861667450225576  1.0000
  H   H42       1.0  0.725204178070797  0.8545605601433339  0.20138200113353114  1.0000
  H   H43       1.0  0.8545586672958833  0.7252050041478455  0.7013824145182995  1.0000
  H   H44       1.0  0.27479568988808717  0.14544166347339876  0.7986171948588351  1.0000
  H   H45       1.0  0.545391913689663  0.6737849597662944  0.9910714711454248  1.0000
  H   H46       1.0  0.3262166812254463  0.4546067381890283  0.5089279758806952  1.0000
  H   H47       1.0  0.4546104259887471  0.32621360421718765  0.008927474460335814  1.0000
  H   H48       1.0  0.6737873034805801  0.5453915443594114  0.4910703814529427  1.0000
  H   H49       1.0  0.0304464416731278  0.580530004925663  0.05086135743100332  1.0000
  H   H50       1.0  0.41947042524392236  0.9695554474344235  0.449139817038919  1.0000
  H   H51       1.0  0.9695525975164329  0.41947154274215875  0.9491396686095611  1.0000
  H   H52       1.0  0.5805302632992095  0.030445823122065067  0.5508598041921928  1.0000
  H   H53       1.0  0.18672486674288538  0.6421816855689073  0.9724733888447545  1.0000
  H   H54       1.0  0.35782014322339956  0.8132780827836614  0.5275285063955764  1.0000
  H   H55       1.0  0.8132750008347358  0.35781810642430406  0.027526944600367625  1.0000
  H   H56       1.0  0.6421813611112127  0.18672385075059586  0.4724717343993419  1.0000
  H   H57       1.0  0.9965036040633918  0.8513719240877932  0.1871375119457924  1.0000
  H   H58       1.0  0.14862619410786237  0.003497761290859113  0.312864045420028  1.0000
  H   H59       1.0  0.0034970923691020014  0.14862449186907872  0.8128627511161568  1.0000
  H   H60       1.0  0.8513736725361271  0.9965052714258038  0.6871350436005271  1.0000
  H   H61       1.0  0.9016812333806498  0.023104769142420958  0.21911562769224696  1.0000
  H   H62       1.0  0.9768947395970572  0.09831903838612291  0.2808842449208413  1.0000
  H   H63       1.0  0.0983186424676035  0.9768925998746951  0.7808842101309565  1.0000
  H   H64       1.0  0.023104311722271103  0.9016817109910418  0.7191148467481909  1.0000
  H   H65       1.0  0.0024689483341262994  0.6212577007316895  0.2515164891364847  1.0000
  H   H66       1.0  0.3787412736961002  0.9975308651777013  0.24848519253796303  1.0000
  H   H67       1.0  0.9975309144507348  0.37874370729954177  0.7484840386336912  1.0000
  H   H68       1.0  0.6212577724491978  0.002469068613962171  0.7515152309088861  1.0000
  H   H69       1.0  0.47656547061392734  0.43466704014731766  0.22564365051955085  1.0000
  H   H70       1.0  0.5653340952401678  0.5234339348323688  0.2743557877976243  1.0000
  H   H71       1.0  0.5234360376653626  0.5653324660871349  0.7743569111907862  1.0000
  H   H72       1.0  0.43466741388720453  0.4765663826638758  0.725644258672247  1.0000
  H   H73       1.0  0.2987592355402455  0.526259153544224  0.19723048802025292  1.0000
  H   H74       1.0  0.47374165675193325  0.7012385548205843  0.30277058544254487  1.0000
  H   H75       1.0  0.7012414513067283  0.4737404944886806  0.802770163691811  1.0000
  H   H76       1.0  0.5262590309431161  0.2987619044741125  0.6972295510290465  1.0000
  H   H77       1.0  0.3155033368417151  0.7488571386182202  0.09208973461566931  1.0000
  H   H78       1.0  0.25114984463190376  0.6844934074143935  0.40791281693153547  1.0000
  H   H79       1.0  0.6844965259431461  0.2511442694130039  0.9079107931545066  1.0000
  H   H80       1.0  0.7488500173048748  0.31550718935504574  0.5920882260791133  1.0000
  H   H81       1.0  0.3250808562180366  0.7246134439027829  0.9931498753843044  1.0000
  H   H82       1.0  0.27539102073382077  0.6749188401419985  0.5068524770971763  1.0000
  H   H83       1.0  0.6749181872974716  0.27538810808875525  0.006850334118922793  1.0000
  H   H84       1.0  0.7246096634833563  0.32508242609077354  0.49314796067127276  1.0000
  H   H85       1.0  0.6610618006576345  0.5989395704284208  0.3186452546183531  1.0000
  H   H86       1.0  0.40106562579513383  0.33893644233427284  0.18135460362158545  1.0000
  H   H87       1.0  0.3389380647570163  0.401060219402929  0.6813554870954378  1.0000
  H   H88       1.0  0.5989350658445999  0.6610615896606123  0.8186458537654246  1.0000
  H   H89       1.0  0.8692063752634381  0.7684804925913937  0.28410504733368214  1.0000
  H   H90       1.0  0.231519496527234  0.130794168581602  0.21589639663149277  1.0000
  H   H91       1.0  0.1307926725780177  0.23152106372385356  0.7158943456322149  1.0000
  H   H92       1.0  0.7684762431071094  0.869207122047108  0.7841079542684425  1.0000
  H   H93       1.0  0.8309306893577072  0.7926599088443851  0.356053900837523  1.0000
  H   H94       1.0  0.20733982839244192  0.1690708624797566  0.1439466635706452  1.0000
  H   H95       1.0  0.16906917728628196  0.20734312387228476  0.6439451881830393  1.0000
  H   H96       1.0  0.7926559186644583  0.830927193911059  0.856057706947844  1.0000
  H   H97       1.0  0.7643186538130494  0.8812857843136115  0.30120071530881626  1.0000
  H   H98       1.0  0.11871496388204149  0.23568505966156292  0.19880033374681716  1.0000
  H   H99       1.0  0.23567957475905388  0.11871591596194261  0.698798359390139  1.0000
  H   H100      1.0  0.8812824216280077  0.7643167607938823  0.8012029136405232  1.0000
  H   H101      1.0  0.5613127796849681  0.6997169715271243  0.3785737483372173  1.0000
  H   H102      1.0  0.30028713241544835  0.4386867587157044  0.12142660616895991  1.0000
  H   H103      1.0  0.4386887255832761  0.30028172128368175  0.6214277368822678  1.0000
  H   H104      1.0  0.6997127425847297  0.5613097990396129  0.8785737468947232  1.0000
  H   H105      1.0  0.5825641814175954  0.839506540883967  0.3601757837200452  1.0000
  H   H106      1.0  0.16049476029091642  0.4174351731233017  0.1398250345529206  1.0000
  H   H107      1.0  0.4174340476213274  0.16049353902985794  0.6398239131911864  1.0000
  H   H108      1.0  0.8395042793654638  0.5825647541827906  0.8601766136999274  1.0000
  H   H109      1.0  0.6402956700093511  0.7437727284362057  0.4159333711895954  1.0000
  H   H110      1.0  0.2562317113657926  0.35970149119819445  0.08406560274633527  1.0000
  H   H111      1.0  0.3597050145890961  0.25623096942009493  0.5840659291260977  1.0000
  H   H112      1.0  0.7437656941633861  0.6402946763669777  0.9159363521003171  1.0000
  C   C1        1.0  0.08004496537267869  0.17704483825468026  0.4445052062709323  1.0000
  C   C2        1.0  0.8229549715585024  0.9199573277891989  0.055493697464591124  1.0000
  C   C3        1.0  0.9199549004232351  0.8229573832001905  0.5554943979901025  1.0000
  C   C4        1.0  0.17704407759784863  0.08004341942611151  0.9445058024731096  1.0000
  C   C5        1.0  0.23373282381282223  0.012755206110142619  0.5882699703084526  1.0000
  C   C6        1.0  0.9872465721623415  0.7662696879103238  0.9117291539118852  1.0000
  C   C7        1.0  0.7662678634154075  0.9872468735462763  0.41172954395085526  1.0000
  C   C8        1.0  0.012751655561686398  0.2337312011034386  0.08827043602753548  1.0000
  C   C9        1.0  0.9274168967757531  0.33397843112668113  0.2990602934166304  1.0000
  C   C10       1.0  0.6660219531620868  0.07258584879681249  0.20093807675709732  1.0000
  C   C11       1.0  0.0725821441099654  0.6660247390647314  0.7009397021429892  1.0000
  C   C12       1.0  0.3339787362291204  0.9274162330214611  0.7990610292335417  1.0000
  C   C13       1.0  0.1318243588815236  0.12386631727412126  0.4944595323294436  1.0000
  C   C14       1.0  0.8761339691193939  0.8681785878826814  0.005539568998195027  1.0000
  C   C15       1.0  0.8681755090773606  0.8761359063426046  0.5055396636629226  1.0000
  C   C16       1.0  0.12386343717231091  0.13182244292953268  0.9944601109429527  1.0000
  C   C17       1.0  0.9801267122126732  0.2762637736143035  0.3490248900390824  1.0000
  C   C18       1.0  0.7237362986272302  0.019875696608544064  0.15097431785886778  1.0000
  C   C19       1.0  0.019873975015556804  0.7237383060421225  0.6509746242202253  1.0000
  C   C20       1.0  0.2762652121963002  0.9801262434112844  0.8490246981300514  1.0000
  C   C21       1.0  0.23904767394596857  0.13533125270740246  0.49412564185497837  1.0000
  C   C22       1.0  0.8646697785010886  0.7609550910645029  0.005872922071766572  1.0000
  C   C23       1.0  0.7609521953278106  0.8646701618093928  0.5058736611091915  1.0000
  C   C24       1.0  0.1353292728182325  0.23904565831266217  0.9941261695972657  1.0000
  C   C25       1.0  0.6982332949709972  0.5132572046713122  0.15118783224045274  1.0000
  C   C26       1.0  0.48674439239115946  0.30176495692259653  0.34881243070262963  1.0000
  C   C27       1.0  0.3017673914091574  0.4867440637233145  0.8488121972593275  1.0000
  C   C28       1.0  0.5132571263217472  0.6982321284976154  0.651187227117127  1.0000
  C   C29       1.0  0.6316441642426014  0.5112486001759609  0.10995212768808932  1.0000
  C   C30       1.0  0.4887510839653118  0.36835291183994906  0.390048989168136  1.0000
  C   C31       1.0  0.3683557020201249  0.4887520009171882  0.8900480987852291  1.0000
  C   C32       1.0  0.511249615478242  0.6316443175405696  0.6099503503846789  1.0000
  C   C33       1.0  0.28971539205483776  0.948606960013528  0.6367240104184901  1.0000
  C   C34       1.0  0.051395266838866915  0.7102862995274037  0.8632760773567583  1.0000
  C   C35       1.0  0.7102861179206172  0.051394168744508355  0.3632755208109018  1.0000
  C   C36       1.0  0.9486046042166266  0.28971268552772506  0.13672395479149912  1.0000
  C   C37       1.0  0.28897731914567976  0.08071020036256026  0.5402420760714931  1.0000
  C   C38       1.0  0.9192938516383079  0.7110237767384364  0.9597573495556376  1.0000
  C   C39       1.0  0.7110225453353323  0.9192928301922478  0.45975742121773056  1.0000
  C   C40       1.0  0.0807052009959079  0.2889761635387913  0.040241849085198594  1.0000
  C   C41       1.0  0.9158054910275625  0.24886187510720256  0.4044320771704689  1.0000
  C   C42       1.0  0.7511362392305969  0.08419654957312876  0.09556623693953269  1.0000
  C   C43       1.0  0.0841943782462167  0.7511395394095928  0.595567225793701  1.0000
  C   C44       1.0  0.24886445147550518  0.9158047231452144  0.9044329760229104  1.0000
  C   C45       1.0  0.5947603332789556  0.4154117778511834  0.11131824177949307  1.0000
  C   C46       1.0  0.5845895512331936  0.4052369432027093  0.38868137366961963  1.0000
  C   C47       1.0  0.40523871155144786  0.5845889650404106  0.888682074695545  1.0000
  C   C48       1.0  0.4154119739686238  0.5947601487030669  0.6113170593441382  1.0000
  C   C49       1.0  0.5249299099639018  0.5031639324205984  0.02344909901003691  1.0000
  C   C50       1.0  0.4968363814458527  0.4750696403983171  0.4765500328046883  1.0000
  C   C51       1.0  0.47507160395623776  0.49683476903762624  0.9765507531347737  1.0000
  C   C52       1.0  0.5031651389632046  0.5249290675454789  0.5234485945341162  1.0000
  C   C53       1.0  0.9649665839616971  0.20152422827827376  0.4514588450150042  1.0000
  C   C54       1.0  0.7984729045405174  0.03503661397059696  0.0485402056384387  1.0000
  C   C55       1.0  0.0350332866269767  0.7984763771385847  0.5485405649209695  1.0000
  C   C56       1.0  0.20152696388518623  0.9649639892843996  0.9514596125662036  1.0000
  C   C57       1.0  0.6112843254756726  0.6040693350763605  0.06651970188447359  1.0000
  C   C58       1.0  0.3959312560104279  0.3887120529102291  0.4334810447380093  1.0000
  C   C59       1.0  0.3887155442649188  0.39593045907870567  0.9334802232919729  1.0000
  C   C60       1.0  0.6040702600726817  0.6112866507098503  0.5665183991381326  1.0000
  C   C61       1.0  0.5417944720486929  0.4123178339334929  0.0689970317238533  1.0000
  C   C62       1.0  0.587681605611067  0.45820492765864157  0.43100258149797804  1.0000
  C   C63       1.0  0.4582053968438231  0.5876811489597812  0.9310034086930726  1.0000
  C   C64       1.0  0.41232073839329075  0.5417936406485567  0.568995547570438  1.0000
  C   C65       1.0  0.1264304167727346  0.002927157822341506  0.5893360841868825  1.0000
  C   C66       1.0  0.997074862884702  0.8735719199037674  0.910663087238035  1.0000
  C   C67       1.0  0.8735702739333674  0.9970741148960017  0.41066312877556027  1.0000
  C   C68       1.0  0.0029241884346192  0.1264288294733973  0.08933600443099719  1.0000
  C   C69       1.0  0.1443037256073012  0.20289961606746232  0.388402823197005  1.0000
  C   C70       1.0  0.7970988944860266  0.8556983889289285  0.1115966618316122  1.0000
  C   C71       1.0  0.8556961415035075  0.7971017962874782  0.6115968880358338  1.0000
  C   C72       1.0  0.2028985139686483  0.14430264404514054  0.8884026098408668  1.0000
  C   C73       1.0  0.07632068503812658  0.05741131554233901  0.5433492812751481  1.0000
  C   C74       1.0  0.9425897653105367  0.9236829833408536  0.9566490830957547  1.0000
  C   C75       1.0  0.9236816485326215  0.9425896735791003  0.45664975168384825  1.0000
  C   C76       1.0  0.0574092860087845  0.07631776603631121  0.043350008573277386  1.0000
  C   C77       1.0  0.0950389304769743  0.25301139571099907  0.3416082798254436  1.0000
  C   C78       1.0  0.7469886830991825  0.9049638067876417  0.15839097228269597  1.0000
  C   C79       1.0  0.9049617559031801  0.7469898726836349  0.6583917496743368  1.0000
  C   C80       1.0  0.25301200544394925  0.09503746376884693  0.8416086489484229  1.0000
  C   C81       1.0  0.5588117672363921  0.6000253855340248  0.02428547112117491  1.0000
  C   C82       1.0  0.3999752082520375  0.4411858646680571  0.47571472933599773  1.0000
  C   C83       1.0  0.4411889287292893  0.39997265078457644  0.975714169728505  1.0000
  C   C84       1.0  0.6000279541735906  0.5588117484170424  0.5242842332398397  1.0000
  C   C85       1.0  0.09146937086777028  0.6178919209868569  0.059277817269474994  1.0000
  C   C86       1.0  0.382108637020849  0.9085327161449898  0.4407241158306404  1.0000
  C   C87       1.0  0.9085313146643089  0.3821085361459851  0.9407227274707779  1.0000
  C   C88       1.0  0.6178928707916284  0.09146841045119206  0.55927582366742  1.0000
  C   C89       1.0  0.17899840422991534  0.6520514895724862  0.016258351357244284  1.0000
  C   C90       1.0  0.34795084412868255  0.8210020295346253  0.48374353479517396  1.0000
  C   C91       1.0  0.8210006371226157  0.3479500602571975  0.9837422664146513  1.0000
  C   C92       1.0  0.6520498400884945  0.1789992366981538  0.5162569029732752  1.0000
  C   C93       1.0  0.28342706415582347  0.6679333781332912  0.23382002818379993  1.0000
  C   C94       1.0  0.33206600780739143  0.7165733588945359  0.2661813833697693  1.0000
  C   C95       1.0  0.716573621843068  0.3320654586378213  0.7661811387687364  1.0000
  C   C96       1.0  0.6679338554442821  0.2834264287749663  0.7338197666126902  1.0000
  C   C97       1.0  0.030346815355422097  0.8832894113876506  0.21479480649438903  1.0000
  C   C98       1.0  0.11671134275454162  0.9696540722052022  0.28520500131531895  1.0000
  C   C99       1.0  0.969653878447282  0.11670862276908885  0.7852052426239525  1.0000
  C   C100      1.0  0.883287707716704  0.030345865910170765  0.7147946055941858  1.0000
  C   C101      1.0  0.16566761628566704  0.679133023101997  0.12596181231130288  1.0000
  C   C102      1.0  0.32086949374368606  0.8343313458999335  0.37403945234206754  1.0000
  C   C103      1.0  0.8343330705613071  0.32086662493090057  0.874038839400761  1.0000
  C   C104      1.0  0.6791320188615585  0.16566816465822864  0.6259602928309391  1.0000
  C   C105      1.0  0.9775413932738175  0.9789465351074398  0.23230288592902334  1.0000
  C   C106      1.0  0.021054800208837297  0.022457829387000996  0.2676973904451927  1.0000
  C   C107      1.0  0.022458484737406102  0.0210508360715309  0.7676965436255117  1.0000
  C   C108      1.0  0.9789458969861898  0.9775434498169061  0.7323005977112587  1.0000
  C   C109      1.0  0.18474849048911324  0.7246448119185944  0.2173359552441738  1.0000
  C   C110      1.0  0.27535470078372976  0.8152505506862797  0.28266571199724666  1.0000
  C   C111      1.0  0.8152521985208309  0.27535483827616514  0.7826642881992214  1.0000
  C   C112      1.0  0.724644341883696  0.18475019004345952  0.7173350127464531  1.0000
  C   C113      1.0  0.043188470586102305  0.6325845287604752  0.20634682221857756  1.0000
  C   C114      1.0  0.36741516914618444  0.9568104708117602  0.29365486221342957  1.0000
  C   C115      1.0  0.9568122162608644  0.36741511927242965  0.7936538294934863  1.0000
  C   C116      1.0  0.6325855177007825  0.04318917722114436  0.7063457894986341  1.0000
  C   C117      1.0  0.1295662752689282  0.8250929671356179  0.23237544523209405  1.0000
  C   C118      1.0  0.17490520943145776  0.8704325574752116  0.2676265161675886  1.0000
  C   C119      1.0  0.8704344163708057  0.17490506485926727  0.7676250121549159  1.0000
  C   C120      1.0  0.8250954817414565  0.12956709488140222  0.732373319007138  1.0000
  C   C121      1.0  0.08505880573062537  0.6322472924145688  0.11477233371288516  1.0000
  C   C122      1.0  0.3677533981498371  0.9149408550243693  0.38522950739469747  1.0000
  C   C123      1.0  0.9149410562061534  0.36775330435487064  0.8852287092977632  1.0000
  C   C124      1.0  0.6322472908601072  0.08505879517039011  0.6147707360486976  1.0000
  C   C125      1.0  0.4352793924198792  0.514088566096696  0.23543123266133392  1.0000
  C   C126      1.0  0.48591180547787616  0.5647202291011271  0.26456916309002304  1.0000
  C   C127      1.0  0.5647221145445159  0.48591174923769404  0.7645692220771991  1.0000
  C   C128      1.0  0.5140888826839927  0.43527860983184063  0.7354315955938444  1.0000
  C   C129      1.0  0.3371601660222368  0.5644801198426849  0.2200769305295793  1.0000
  C   C130      1.0  0.43551921639496527  0.6628395620698201  0.2799240814280708  1.0000
  C   C131      1.0  0.6628396993924071  0.4355196699886721  0.7799238111842115  1.0000
  C   C132      1.0  0.564480649867761  0.3371610390233288  0.7200761450452403  1.0000
  C   C133      1.0  0.2534643596941279  0.7136017555696272  0.08308080885494455  1.0000
  C   C134      1.0  0.2864020355753993  0.7465343232020631  0.4169211087164583  1.0000
  C   C135      1.0  0.7465363258379512  0.2863987015632149  0.9169197358853154  1.0000
  C   C136      1.0  0.7135978306873269  0.2534662778910858  0.5830791177568528  1.0000
  C   C137      1.0  0.2580772174490846  0.6990391816799004  0.028087851752616202  1.0000
  C   C138      1.0  0.30096501860647623  0.7419222727491358  0.47191389368793324  1.0000
  C   C139      1.0  0.7419234680829875  0.30096127545293433  0.9719126929876367  1.0000
  C   C140      1.0  0.6990373119532266  0.25807790294865646  0.5280860627802112  1.0000
  C   C141      1.0  0.7313488273877127  0.6431675495441597  0.30456817350172116  1.0000
  C   C142      1.0  0.3568300513221487  0.2686686921739038  0.19542482279252482  1.0000
  C   C143      1.0  0.26865021527971317  0.35683319118558643  0.6954325512419786  1.0000
  C   C144      1.0  0.6431714592056751  0.7313267642371599  0.8045770903141828  1.0000
  C   C145      1.0  0.800977922356182  0.7959559719433288  0.31736174566118075  1.0000
  C   C146      1.0  0.20404394107704601  0.1990224470074652  0.18263897120459657  1.0000
  C   C147      1.0  0.19902030405294374  0.20404572617036368  0.6826377373064361  1.0000
  C   C148      1.0  0.7959526269453646  0.8009770879466276  0.8173646870998965  1.0000
  C   C149      1.0  0.6200567202959987  0.7535439519422483  0.37376909415804954  1.0000
  C   C150      1.0  0.2464586869857683  0.37994424060041604  0.12623044775634185  1.0000
  C   C151      1.0  0.3799439708769157  0.24645570041436582  0.626230741016684  1.0000
  C   C152      1.0  0.7535403574633718  0.6200540706676636  0.8737710061714451  1.0000
  N   N1        1.0  0.010028127847086  0.6047287455096324  0.1661162212409266  1.0000
  N   N2        1.0  0.39527095974590043  0.9899725088902541  0.3338848330692984  1.0000
  N   N3        1.0  0.9899717371007454  0.3952726646834537  0.8338838982605737  1.0000
  N   N4        1.0  0.6047297314270139  0.01002714346635975  0.6661150021054282  1.0000
  N   N5        1.0  0.1362953920433938  0.6779608280792504  0.1849722743950508  1.0000
  N   N6        1.0  0.322040161206978  0.8637037302818771  0.315029187579654  1.0000
  N   N7        1.0  0.863704474686145  0.32203815265216923  0.8150285742905438  1.0000
  N   N8        1.0  0.6779597050557487  0.13629687081126468  0.684971038893657  1.0000
  N   N9        1.0  0.7186602410109016  0.7258931281775107  0.3312273693872357  1.0000
  N   N10       1.0  0.27411072070307096  0.2813392981208765  0.1687741663546234  1.0000
  N   N11       1.0  0.28133962741479485  0.27410747507749283  0.6687724488174068  1.0000
  N   N12       1.0  0.7258866752405807  0.7186601015203286  0.8312281771421439  1.0000
  O   O1        1.0  0.8254007897450747  0.33478124958517  0.3032248334686329  1.0000
  O   O2        1.0  0.6652174500361383  0.17460063729026135  0.1967735859189403  1.0000
  O   O3        1.0  0.17459990312400464  0.6652200252950211  0.6967739712251486  1.0000
  O   O4        1.0  0.33478159996828794  0.8254009211868408  0.8032253987782808  1.0000
  O   O5        1.0  0.7048196078122543  0.43462080142504095  0.19554392715699717  1.0000
  O   O6        1.0  0.5653780166897135  0.29517932802853153  0.304456971842562  1.0000
  O   O7        1.0  0.29518107509003505  0.5653812739076686  0.804456403639648  1.0000
  O   O8        1.0  0.4346210450632171  0.7048190005343854  0.69554121593589  1.0000
  O   O9        1.0  0.7509157752548533  0.5921177421974166  0.1399556769593033  1.0000
  O   O10       1.0  0.40788298272156  0.2490802825580546  0.36004459941048583  1.0000
  O   O11       1.0  0.24908409618190316  0.4078836744812336  0.860043217736198  1.0000
  O   O12       1.0  0.5921185346764446  0.7509176119620878  0.6399549514374597  1.0000
  O   O13       1.0  0.3918025383771138  0.9494946767174426  0.6287947296405534  1.0000
  O   O14       1.0  0.05050587024450691  0.6082014271338566  0.871204813499915  1.0000
  O   O15       1.0  0.6081989707502585  0.05050564077880184  0.37120531682931096  1.0000
  O   O16       1.0  0.9494931802267389  0.3917985109815163  0.12879479340959685  1.0000
  O   O17       1.0  0.22999925083121303  0.898924168756416  0.6817012657010509  1.0000
  O   O18       1.0  0.1010780835130589  0.7700041634616429  0.8182977809620979  1.0000
  O   O19       1.0  0.7700014385599944  0.10107791306186444  0.31829784028959546  1.0000
  O   O20       1.0  0.8989209682730817  0.2299949655537931  0.18170193291921774  1.0000
  O   O21       1.0  0.988104826208584  0.3837383020971926  0.2546355924304677  1.0000
  O   O22       1.0  0.6162639074658571  0.011895202810187324  0.24536492795788686  1.0000
  O   O23       1.0  0.011895037424352502  0.6162639171958305  0.7453644200992287  1.0000
  O   O24       1.0  0.3837408839129424  0.9881053544303313  0.7546350598019487  1.0000
  O   O25       1.0  0.8139793556675912  0.6163957144804542  0.2674267049651746  1.0000
  O   O26       1.0  0.38361112898424926  0.18600903949063516  0.2325774228109978  1.0000
  O   O27       1.0  0.18601969302194019  0.38360665309658526  0.7325721727602499  1.0000
  O   O28       1.0  0.616388738593372  0.8139907525025762  0.7674229106341244  1.0000
