data_image0
_chemical_formula_structural       Hf6H20C36O32
_chemical_formula_sum              "Hf6 H20 C36 O32"
_cell_length_a       12.874523951735895
_cell_length_b       15.053672918520654
_cell_length_c       15.089071184603771
_cell_angle_alpha    90.02310559502918
_cell_angle_beta     89.90191151141282
_cell_angle_gamma    89.94669822107811

_space_group_name_H-M_alt    "P 1"
_space_group_IT_number       1

loop_
  _space_group_symop_operation_xyz
  'x, y, z'

loop_
  _atom_site_type_symbol
  _atom_site_label
  _atom_site_symmetry_multiplicity
  _atom_site_fract_x
  _atom_site_fract_y
  _atom_site_fract_z
  _atom_site_occupancy
  Hf  Hf1       1.0  0.0070508422999538  0.9887202624917534  0.8361121770279992  1.0000
  Hf  Hf2       1.0  0.007368037492533101  0.8318763118448869  0.0069567867285016  1.0000
  Hf  Hf3       1.0  0.009691496974674902  0.165359191423299  0.9888192346794824  1.0000
  Hf  Hf4       1.0  0.0036519166881206016  0.006511748459217901  0.16132350393293385  1.0000
  Hf  Hf5       1.0  0.8128636047028622  0.9986260663100952  0.9972318338296162  1.0000
  Hf  Hf6       1.0  0.2005157626681608  0.997043954610078  0.9986099224907008  1.0000
  H   H1        1.0  0.15591735724864722  0.8605707366604705  0.867566547909753  1.0000
  H   H2        1.0  0.8555828319097574  0.8700479903757241  0.1338274377826707  1.0000
  H   H3        1.0  0.1560720599718266  0.13267514620075363  0.1286285693577653  1.0000
  H   H4        1.0  0.8699589531205306  0.1349634947773595  0.8567591629474336  1.0000
  H   H5        1.0  0.9539055174621114  0.710937047624263  0.13308571093055116  1.0000
  H   H6        1.0  0.006012927175994802  0.8240768706100924  0.19949461325440151  1.0000
  H   H7        1.0  0.9518967058714055  0.13006364766854972  0.2772461308224692  1.0000
  H   H8        1.0  0.004254951242415901  0.20076572029887532  0.1696072494457326  1.0000
  H   H9        1.0  0.0533833646129196  0.2883151799858227  0.8726401059768207  1.0000
  H   H10       1.0  0.9501257077181293  0.07037291190997762  0.6767394057059875  1.0000
  H   H11       1.0  0.9544109089307683  0.8651750139243006  0.7189796500566954  1.0000
  H   H12       1.0  0.0031976619636964014  0.7966643200775749  0.8255345671164704  1.0000
  H   H13       1.0  0.9395840276622636  0.27562752266521784  0.11408278403521879  1.0000
  H   H14       1.0  0.0731277535160828  0.07698359726715151  0.6916584586374058  1.0000
  H   H15       1.0  0.9356797005416623  0.7212868264740918  0.8794855028007901  1.0000
  H   H16       1.0  0.07324665375636391  0.8793148762439317  0.2726161045357783  1.0000
  H   H17       1.0  0.6993036631297116  0.9983507717181439  0.49559852218895617  1.0000
  H   H18       1.0  0.3137496619931426  0.9980164828347284  0.49895072160590803  1.0000
  H   H19       1.0  0.6989972397470225  0.4971722331975243  0.9990547844847483  1.0000
  H   H20       1.0  0.3130163525670754  0.4971681306923088  0.997342356785566  1.0000
  C   C1        1.0  0.7578736469092533  0.986999144895819  0.7891003760847821  1.0000
  C   C2        1.0  0.25420899829071436  0.7897511268060882  0.007223991875086699  1.0000
  C   C3        1.0  0.7566300848674815  0.7900853124831072  0.9970057347146051  1.0000
  C   C4        1.0  0.25887313137402407  0.0016668555962696002  0.791929953672259  1.0000
  C   C5        1.0  0.2590416425165998  0.20240947434064074  0.9881057920009582  1.0000
  C   C6        1.0  0.7562763002690432  0.009643948723436302  0.20430709216470427  1.0000
  C   C7        1.0  0.25408510233965137  0.99365420552558  0.20602105474794288  1.0000
  C   C8        1.0  0.7542714601538666  0.202601482623578  0.0026091768207904993  1.0000
  C   C9        1.0  0.5627482228607478  0.9969131698767199  0.5782776864925124  1.0000
  C   C10       1.0  0.4519446111327738  0.9983888214217487  0.5792149642861659  1.0000
  C   C11       1.0  0.39836761801189624  0.998179875595241  0.49831998998986643  1.0000
  C   C12       1.0  0.4503163843098505  0.9982544852354425  0.41647125392772466  1.0000
  C   C13       1.0  0.5611338462034824  2.2087902195299927e-05  0.4155768074579598  1.0000
  C   C14       1.0  0.6146960658494152  0.9984266726773469  0.4964989421682943  1.0000
  C   C15       1.0  0.5612929842049682  0.5787047486712495  0.9989001565558837  1.0000
  C   C16       1.0  0.4504135428544275  0.578669780559224  0.9996925725330141  1.0000
  C   C17       1.0  0.39764168627245067  0.49713814221911423  0.9977335924887639  1.0000
  C   C18       1.0  0.4507926869240251  0.41575246998081633  0.9963544078178258  1.0000
  C   C19       1.0  0.5615550291763114  0.41576788538561976  0.998320958787879  1.0000
  C   C20       1.0  0.6143723584834435  0.4972195923720406  0.9988338678347972  1.0000
  C   C21       1.0  0.3929684053875136  0.33622354914325575  0.9930607085248937  1.0000
  C   C22       1.0  0.33662908385072404  0.27141188798560006  0.989362642573347  1.0000
  C   C23       1.0  0.6761759873129948  0.2714109339495536  0.002338325410498499  1.0000
  C   C24       1.0  0.6196876674770522  0.33628190012257164  0.9999452217961602  1.0000
  C   C25       1.0  0.39120893031431353  0.6576480068622814  0.0026392621920692007  1.0000
  C   C26       1.0  0.3318784518627496  0.7206163350890264  0.006059455708516699  1.0000
  C   C27       1.0  0.6789074921232797  0.7212628403822379  0.9965646855828325  1.0000
  C   C28       1.0  0.6202444842851519  0.6578078511473111  0.9980166451178007  1.0000
  C   C29       1.0  0.390580642514955  0.9964010952441099  0.33807090251954713  1.0000
  C   C30       1.0  0.3314701650328615  0.9938680734421013  0.27518452605639243  1.0000
  C   C31       1.0  0.6196051735613041  0.0036364180114532006  0.33637058198647907  1.0000
  C   C32       1.0  0.6784684341274811  0.007944053515409197  0.27324407638534604  1.0000
  C   C33       1.0  0.3363489637524212  0.002545164056336101  0.7227837184796471  1.0000
  C   C34       1.0  0.3939162179710679  0.0001505723902611  0.6586882724752242  1.0000
  C   C35       1.0  0.680467921765157  0.9894160166104626  0.7201697164884919  1.0000
  C   C36       1.0  0.6221902019128437  0.9936225956778059  0.656787007692543  1.0000
  O   O1        1.0  0.8520672973203604  0.9835524562687253  0.761041064666955  1.0000
  O   O2        1.0  0.7281792190716629  0.9895285424648391  0.8691449907666635  1.0000
  O   O3        1.0  0.1604465829904882  0.7627307340658191  0.008414937738478998  1.0000
  O   O4        1.0  0.28542652604377144  0.8702354628066049  0.0055801910879722996  1.0000
  O   O5        1.0  0.850859034787618  0.7619628907450462  0.9962308940884481  1.0000
  O   O6        1.0  0.7267168411717293  0.870571742656253  0.9994125439622507  1.0000
  O   O7        1.0  0.16480108543714783  0.006816236934952302  0.7646521288749921  1.0000
  O   O8        1.0  0.2887745842919571  0.994004535439089  0.8716971746242235  1.0000
  O   O9        1.0  0.0112408920201688  0.8702494641207111  0.7609845572272392  1.0000
  O   O10       1.0  0.004490779252066101  0.08699317021435601  0.7184654075906849  1.0000
  O   O11       1.0  0.0019463464959699004  0.752504856577744  0.8804459733560464  1.0000
  O   O12       1.0  0.0033384642162488  0.7588401926104635  0.12522084730136376  1.0000
  O   O13       1.0  0.9244293641476133  0.9261395650098406  0.9320606338830402  1.0000
  O   O14       1.0  0.11502463994315092  0.8993147213568733  0.9055001470103718  1.0000
  O   O15       1.0  0.1657593820854757  0.2304689708134902  0.9836496261508287  1.0000
  O   O16       1.0  0.28907033597229065  0.1217543795944422  0.9927869262174267  1.0000
  O   O17       1.0  0.8500469974839362  0.013722659044738402  0.23193652174523288  1.0000
  O   O18       1.0  0.7259368928372114  0.005570858503915602  0.1241360798611169  1.0000
  O   O19       1.0  0.15993740521391692  0.990099838540104  0.2328237518829468  1.0000
  O   O20       1.0  0.2854925940308775  0.9984440307858835  0.1261499595100162  1.0000
  O   O21       1.0  0.8469311042315795  0.2296596859132194  0.0123421242315231  1.0000
  O   O22       1.0  0.7247784093069854  0.12225557545765749  0.9914939841429914  1.0000
  O   O23       1.0  0.006409363991537001  0.2449416285484673  0.1156368517313737  1.0000
  O   O24       1.0  0.9943747750974482  0.2520964150379541  0.8895001911078992  1.0000
  O   O25       1.0  0.008411399153260403  0.1248569325809612  0.234781708528466  1.0000
  O   O26       1.0  0.0062287689326865  0.8794597700528473  0.24253443307487998  1.0000
  O   O27       1.0  0.1146358939698615  0.09517949947936441  0.09006542131877637  1.0000
  O   O28       1.0  0.9245653330134048  0.0680119275916269  0.061158889611967  1.0000
  O   O29       1.0  0.09112967665011242  0.06395083397846692  0.9261599667331311  1.0000
  O   O30       1.0  0.8966769904777082  0.9078722358289896  0.09537840838615347  1.0000
  O   O31       1.0  0.9034087275665075  0.09186851233734221  0.8953466418821846  1.0000
  O   O32       1.0  0.08748248301465372  0.9309384096725849  0.0683112494754212  1.0000
