data_image0
_chemical_formula_structural       Mg6H66C66N12O24
_chemical_formula_sum              "Mg6 H66 C66 N12 O24"
_cell_length_a       6.914339378395213
_cell_length_b       32.02913830577741
_cell_length_c       32.02972858257521
_cell_angle_alpha    119.5036981237687
_cell_angle_beta     94.13237398992908
_cell_angle_gamma    94.10172508548828

_space_group_name_H-M_alt    "P 1"
_space_group_IT_number       1

loop_
  _space_group_symop_operation_xyz
  'x, y, z'

loop_
  _atom_site_type_symbol
  _atom_site_label
  _atom_site_symmetry_multiplicity
  _atom_site_fract_x
  _atom_site_fract_y
  _atom_site_fract_z
  _atom_site_occupancy
  Mg  Mg1       1.0  0.04572435584645261  0.6992934860602844  0.33226639418315784  1.0000
  Mg  Mg2       1.0  0.3222174009032627  0.3011492883832503  0.6673611109242901  1.0000
  Mg  Mg3       1.0  0.34665677625737595  0.6330329116874864  0.3006757593527211  1.0000
  Mg  Mg4       1.0  0.020962795554801555  0.36635291289431393  0.6988257093813247  1.0000
  Mg  Mg5       1.0  0.7137443827476845  0.6677574925816502  0.3669961068543445  1.0000
  Mg  Mg6       1.0  0.6548472984469029  0.3325522757365534  0.6336125659051108  1.0000
  H   H1        1.0  0.2064523406421088  0.5801787039117698  0.01939649942919885  1.0000
  H   H2        1.0  0.4889155314373141  0.5214214437409481  0.03153438877775722  1.0000
  H   H3        1.0  0.427851866316395  0.5041913693047065  0.9337535739170878  1.0000
  H   H4        1.0  0.1001361231959521  0.4012777989004519  0.8939050434628373  1.0000
  H   H5        1.0  0.07908766732804655  0.37587972589765434  0.8101321864451523  1.0000
  H   H6        1.0  0.7890095911332937  0.42813470124983166  0.8351950539328856  1.0000
  H   H7        1.0  0.6154641230703177  0.4493877635243422  0.906514753203709  1.0000
  H   H8        1.0  0.739516857375726  0.5486521768325687  0.9965979590827488  1.0000
  H   H9        1.0  0.6683613366895996  0.5977437832816507  0.04902760516254283  1.0000
  H   H10       1.0  0.4541685134856692  0.617852260015532  0.9959420566413687  1.0000
  H   H11       1.0  0.5399201191321197  0.5721261133769106  0.9441845809143178  1.0000
  H   H12       1.0  0.8856632556490707  0.6128176217259808  0.9795925533704807  1.0000
  H   H13       1.0  0.7914193976580818  0.6604075828326542  0.02814309230839733  1.0000
  H   H14       1.0  0.7003500129286805  0.630054338645124  0.9209182234025237  1.0000
  H   H15       1.0  0.8705082842057763  0.6790503107892151  0.9634242530499721  1.0000
  H   H16       1.0  0.42494597188612465  0.6707409506922204  0.9670472921453881  1.0000
  H   H17       1.0  0.562099170574548  0.7094545095502908  0.9523449147055205  1.0000
  H   H18       1.0  0.5959635708127422  0.7187924962275075  0.011961240284023029  1.0000
  H   H19       1.0  0.9776516863166266  0.5864630360106208  0.06755187026616484  1.0000
  H   H20       1.0  0.27221206689218735  0.6297388739131548  0.1854565713463287  1.0000
  H   H21       1.0  0.558714614762394  0.5824964427915305  0.16868307161994522  1.0000
  H   H22       1.0  0.7140372559052393  0.5659155664062823  0.09655320306736564  1.0000
  H   H23       1.0  0.6263551781322007  0.4392177415112427  0.41988511022797337  1.0000
  H   H24       1.0  0.9675724884091039  0.510072437575289  0.47853118628728464  1.0000
  H   H25       1.0  0.9243436095999797  0.4296430480259446  0.4958583686791372  1.0000
  H   H26       1.0  0.6988830500725101  0.49269582361134207  0.598696525080122  1.0000
  H   H27       1.0  0.7035408928242858  0.4343015874403591  0.6240464830509469  1.0000
  H   H28       1.0  0.3613260911708096  0.4071319989498648  0.5717792374051954  1.0000
  H   H29       1.0  0.16653998712012447  0.45730412560929773  0.5506664777471144  1.0000
  H   H30       1.0  0.19114836760286383  0.447847391395655  0.4514446484770503  1.0000
  H   H31       1.0  0.07161855681781051  0.4512372735620502  0.40232342124956944  1.0000
  H   H32       1.0  0.8367906393328965  0.3780828496905713  0.3821212930765157  1.0000
  H   H33       1.0  0.9680117303029262  0.371982885980394  0.4278235865438874  1.0000
  H   H34       1.0  0.2732720398821158  0.36667443807767347  0.3871527493239313  1.0000
  H   H35       1.0  0.1314221697498041  0.3675564498148277  0.33953598130184304  1.0000
  H   H36       1.0  0.07105373945991293  0.2907759701278821  0.37000174613724124  1.0000
  H   H37       1.0  0.19192405624363565  0.2842009133775321  0.32093069275649816  1.0000
  H   H38       1.0  0.7547863495174167  0.2962567999772361  0.329402837194877  1.0000
  H   H39       1.0  0.8530532625790598  0.24278608558081063  0.29063563157426137  1.0000
  H   H40       1.0  0.8775138555986429  0.29304964324312976  0.2813008117133721  1.0000
  H   H41       1.0  0.39199589430509724  0.4810751211380265  0.4132858612088342  1.0000
  H   H42       1.0  0.6433829101189374  0.5557511447018798  0.37001116275850887  1.0000
  H   H43       1.0  0.9767531927394227  0.5859853283098886  0.4172601256525681  1.0000
  H   H44       1.0  0.1491496188058932  0.5304455506517982  0.4337446661554126  1.0000
  H   H45       1.0  0.1864361031322659  0.9807653063133088  0.5610281020523686  1.0000
  H   H46       1.0  0.45609194335213493  0.9684570665473731  0.4899700574265254  1.0000
  H   H47       1.0  0.4939401799284724  0.06627607466673172  0.5704766909496116  1.0000
  H   H48       1.0  0.20632941623555473  0.10617084994204622  0.5073826399833552  1.0000
  H   H49       1.0  0.26949367259841484  0.1898846510548253  0.5656605800578804  1.0000
  H   H50       1.0  0.9541700797134708  0.1646853118567364  0.5929417316961011  1.0000
  H   H51       1.0  0.7091426905598295  0.09340308760345546  0.5429349771584883  1.0000
  H   H52       1.0  0.7421604601418536  0.0033602031192785  0.552038105672871  1.0000
  H   H53       1.0  0.618670518052106  0.9509743715958339  0.5487536346009991  1.0000
  H   H54       1.0  0.4580008215907582  0.0041239792159899  0.6220154744904037  1.0000
  H   H55       1.0  0.5953298874109834  0.055847070135534714  0.627985755026373  1.0000
  H   H56       1.0  0.9058229047558725  0.0204484177495132  0.6332517437980701  1.0000
  H   H57       1.0  0.7632307862674776  0.9719379331648668  0.6323473410305027  1.0000
  H   H58       1.0  0.779474955952885  0.0792013735001902  0.7091867930459446  1.0000
  H   H59       1.0  0.9071502524371552  0.0367201684481842  0.7157081243213244  1.0000
  H   H60       1.0  0.4579759456152174  0.03317195805122709  0.703808360754451  1.0000
  H   H61       1.0  0.6099799822007411  0.04786295306726631  0.7572222332737156  1.0000
  H   H62       1.0  0.5840815345274778  0.9882468929234491  0.7069626585561367  1.0000
  H   H63       1.0  0.9095148313998819  0.9323814003567958  0.5191775451790831  1.0000
  H   H64       1.0  0.08647753861853164  0.8144423506916215  0.4444174738936369  1.0000
  H   H65       1.0  0.3895389104309146  0.8313426983946356  0.41408237682252047  1.0000
  H   H66       1.0  0.6169914969128171  0.90337867670533  0.4697282544572091  1.0000
  C   C1        1.0  0.24808442448346565  0.5691802929823523  0.07836278165130034  1.0000
  C   C2        1.0  0.44411823952277973  0.5386804553640587  0.010587044117848146  1.0000
  C   C3        1.0  0.2522786662992118  0.46087939891780394  0.9502976423230795  1.0000
  C   C4        1.0  0.33144995231462093  0.41501953845094874  0.8633804793685658  1.0000
  C   C5        1.0  0.23595743278811207  0.38718437979488857  0.8162025185891013  1.0000
  C   C6        1.0  0.3338007165702378  0.37333113844277926  0.7752982726088079  1.0000
  C   C7        1.0  0.5396687266559823  0.3889850634982465  0.7825634530536336  1.0000
  C   C8        1.0  0.6324143675740858  0.4170601361380406  0.8303903092918861  1.0000
  C   C9        1.0  0.5346470751374922  0.43005617985329536  0.8704326586527744  1.0000
  C   C10       1.0  0.6582312706254143  0.3772469362738847  0.7428325277332706  1.0000
  C   C11       1.0  0.6199631935274255  0.5709919164381105  0.010806211835088508  1.0000
  C   C12       1.0  0.5803182116816004  0.5977706356762837  0.9831985909867955  1.0000
  C   C13       1.0  0.7573514440284297  0.6328341984390917  0.9895065044759621  1.0000
  C   C14       1.0  0.7309756962182731  0.6578345531893744  0.9595251602896938  1.0000
  C   C15       1.0  0.5697068649268288  0.6909212113189938  0.9734577150291134  1.0000
  C   C16       1.0  0.0030123639407195735  0.5978279719431047  0.13644342705507745  1.0000
  C   C17       1.0  0.11569582500695932  0.6194347504237854  0.18155058073214989  1.0000
  C   C18       1.0  0.028456145151985055  0.6296106968290547  0.2236275961253754  1.0000
  C   C19       1.0  0.8218652593219459  0.616049236228804  0.21836648209655607  1.0000
  C   C20       1.0  0.7142553040105495  0.5934226619724611  0.1722651411964549  1.0000
  C   C21       1.0  0.8014205480412642  0.5844727370147778  0.13179232451309267  1.0000
  C   C22       1.0  0.7111951003838967  0.6243826666604022  0.25864848104636456  1.0000
  C   C23       1.0  0.6797158469592189  0.5090668721322515  0.43060288097390054  1.0000
  C   C24       1.0  0.9056633239436991  0.4718541249937331  0.46128588555504285  1.0000
  C   C25       1.0  0.7912422497987633  0.4894327870798493  0.5390757366371518  1.0000
  C   C26       1.0  0.9168196725975121  0.4484900644855117  0.5849816090769266  1.0000
  C   C27       1.0  0.8492189913658591  0.4291215768280665  0.6127851758237953  1.0000
  C   C28       1.0  0.9609324720368232  0.4020628833491884  0.6266142480797543  1.0000
  C   C29       1.0  0.15112503031286198  0.39365076926153353  0.6109307936184791  1.0000
  C   C30       1.0  0.21585258453448833  0.4134296488472131  0.582894564624077  1.0000
  C   C31       1.0  0.10502752664199733  0.44051627334984295  0.5699608946526526  1.0000
  C   C32       1.0  0.2813758293019646  0.36564365213265404  0.6226580015466114  1.0000
  C   C33       1.0  0.049498359067676724  0.4397523600383906  0.42903970829264193  1.0000
  C   C34       1.0  0.9829363986047567  0.3853577927593577  0.4021944303307096  1.0000
  C   C35       1.0  0.1249814630595836  0.35653494877519176  0.36713465072324425  1.0000
  C   C36       1.0  0.0736932475956706  0.3015518439490634  0.3421900195151936  1.0000
  C   C37       1.0  0.8792441646755265  0.282431502533008  0.30917360205481975  1.0000
  C   C38       1.0  0.406315594473881  0.5385929487733847  0.40194682711975827  1.0000
  C   C39       1.0  0.49723810886055025  0.5621575145842146  0.3803910711251179  1.0000
  C   C40       1.0  0.3994990574439896  0.5940793078727536  0.3703006116924429  1.0000
  C   C41       1.0  0.20637379274774054  0.6023236199556977  0.38385219908614243  1.0000
  C   C42       1.0  0.12153270674042453  0.5787530952221472  0.4063823723713967  1.0000
  C   C43       1.0  0.21798723257712987  0.5472454282326638  0.41529673107270076  1.0000
  C   C44       1.0  0.08711175749489544  0.6342660489147107  0.37555055241275437  1.0000
  C   C45       1.0  0.16903313169303408  0.9216594092182717  0.49107741002458033  1.0000
  C   C46       1.0  0.4326188608055617  0.9894582428155019  0.5282064905298753  1.0000
  C   C47       1.0  0.30157095633854414  0.049775997480850306  0.5106597795202961  1.0000
  C   C48       1.0  0.4683971749835719  0.1365891979456393  0.5515912716903203  1.0000
  C   C49       1.0  0.4202804317071339  0.1837780739810739  0.5709018918710174  1.0000
  C   C50       1.0  0.559083407910549  0.2246491290802552  0.5978964075378033  1.0000
  C   C51       1.0  0.7577072974251846  0.2173699888423428  0.6063149434583794  1.0000
  C   C52       1.0  0.8024466858848667  0.16952407779990608  0.5866188617361845  1.0000
  C   C53       1.0  0.6644990654452768  0.1295053275549733  0.5596162276295689  1.0000
  C   C54       1.0  0.9159194022965096  0.2571036677601555  0.6343078931143183  1.0000
  C   C55       1.0  0.6085236963957924  0.9891953453756842  0.5602285609061681  1.0000
  C   C56       1.0  0.5968088786738832  0.0168382557701179  0.6146365396090732  1.0000
  C   C57       1.0  0.7677068737715017  0.010563081295828199  0.6433940926062721  1.0000
  C   C58       1.0  0.7714476805966725  0.040603771726146896  0.6983885742388198  1.0000
  C   C59       1.0  0.5962906005118922  0.026736353173504295  0.7175738726232981  1.0000
  C   C60       1.0  0.866265892669752  0.86349170931684  0.46160478671776434  1.0000
  C   C61       1.0  0.9338599547563008  0.8183809773697706  0.43802158423105214  1.0000
  C   C62       1.0  0.8045119736627981  0.7763453651889164  0.4060369844301944  1.0000
  C   C63       1.0  0.6031646000964129  0.7816192248499477  0.3977501283217891  1.0000
  C   C64       1.0  0.5415534409813176  0.827712111727294  0.42133799077799944  1.0000
  C   C65       1.0  0.6692437283332779  0.8681446147737049  0.45290851059523624  1.0000
  C   C66       1.0  0.4523235906653794  0.7413491422888114  0.3657458771627589  1.0000
  N   N1        1.0  0.29111129975555616  0.5662834602405623  0.035474126914024774  1.0000
  N   N2        1.0  0.3756145868250655  0.5011616118667774  0.9610265533804851  1.0000
  N   N3        1.0  0.2213472262397715  0.4248078370440354  0.9012742122155972  1.0000
  N   N4        1.0  0.08044116597329791  0.5905761035953249  0.0940274118172438  1.0000
  N   N5        1.0  0.7253309169830615  0.46907942681463766  0.43355672259712463  1.0000
  N   N6        1.0  0.8742136289135229  0.45982241035782334  0.4987747597029826  1.0000
  N   N7        1.0  0.7967462242010653  0.4765685102705178  0.5751935189538956  1.0000
  N   N8        1.0  0.4908509421281195  0.5033671830994635  0.4091354300791751  1.0000
  N   N9        1.0  0.25473260125254177  0.9646475906471467  0.5310050532717697  1.0000
  N   N10       1.0  0.41385957777645627  0.0390277045443383  0.540249940386623  1.0000
  N   N11       1.0  0.3201985455894061  0.09876317039844203  0.5235177186189548  1.0000
  N   N12       1.0  0.9859793465762792  0.9059151599778733  0.4968405656175251  1.0000
  O   O1        1.0  0.5316867859033536  0.6074844684798323  0.2509074240887871  1.0000
  O   O2        1.0  0.7996541512298663  0.6501388006792156  0.302277119830201  1.0000
  O   O3        1.0  0.14024569173999166  0.6522654527940687  0.26663640714627934  1.0000
  O   O4        1.0  0.839458068613524  0.3932392179799393  0.7507532896005247  1.0000
  O   O5        1.0  0.574165800938651  0.3494666294530758  0.6989365618818939  1.0000
  O   O6        1.0  0.22851678653609747  0.3467069446888544  0.7316393121101046  1.0000
  O   O7        1.0  0.3518832341372757  0.5548461208325008  0.10026703890776632  1.0000
  O   O8        1.0  0.1649869520633231  0.455962918390135  0.9800446710911077  1.0000
  O   O9        1.0  0.9244349421612625  0.643422565178767  0.39244556895359045  1.0000
  O   O10       1.0  0.1497266962758132  0.6521802239025262  0.3498344446901456  1.0000
  O   O11       1.0  0.4884678102525087  0.6144903196886916  0.3476977938323956  1.0000
  O   O12       1.0  0.44653933748875113  0.3574966244704996  0.6066205570070907  1.0000
  O   O13       1.0  0.2250544254155074  0.34960877462479806  0.6504884205536003  1.0000
  O   O14       1.0  0.8821607516761034  0.3849941386392076  0.6531855522000358  1.0000
  O   O15       1.0  0.7979570402238352  0.5452696488776212  0.4449389898093444  1.0000
  O   O16       1.0  0.7084881075218304  0.5240484546521174  0.5439491072750045  1.0000
  O   O17       1.0  0.2804562350928066  0.749071661437327  0.3565860360901922  1.0000
  O   O18       1.0  0.49739682528371526  0.6977330940552093  0.3477971559885162  1.0000
  O   O19       1.0  0.8734100841091531  0.7333388483214094  0.38559600843325376  1.0000
  O   O20       1.0  0.08929493792789599  0.2491926672568709  0.6423692483185877  1.0000
  O   O21       1.0  0.8755396089220538  0.30098917150309756  0.6503840055156049  1.0000
  O   O22       1.0  0.4973432305145947  0.26829594632113185  0.6149234756757026  1.0000
  O   O23       1.0  0.25088470109656674  0.8997404560318644  0.45482761311601655  1.0000
  O   O24       1.0  0.18429994848682435  0.020050694111183997  0.4760208120802789  1.0000
