data_image0
_chemical_formula_structural       Zn2H16C40Br10N2O8
_chemical_formula_sum              "Zn2 H16 C40 Br10 N2 O8"
_cell_length_a       13.154056552940148
_cell_length_b       16.600790696518185
_cell_length_c       17.612230987042217
_cell_angle_alpha    97.52240243987063
_cell_angle_beta     92.14559843334244
_cell_angle_gamma    95.22038870221765

_space_group_name_H-M_alt    "P 1"
_space_group_IT_number       1

loop_
  _space_group_symop_operation_xyz
  'x, y, z'

loop_
  _atom_site_type_symbol
  _atom_site_label
  _atom_site_symmetry_multiplicity
  _atom_site_fract_x
  _atom_site_fract_y
  _atom_site_fract_z
  _atom_site_occupancy
  Zn  Zn1       1.0  0.5065436148416326  0.4138415377045489  0.4998706865408094  1.0000
  Zn  Zn2       1.0  0.5092572957105902  0.5906847140969801  0.5051342987282083  1.0000
  H   H1        1.0  0.3909725446000608  0.7049990529970315  0.4467052614643378  1.0000
  H   H2        1.0  0.3810422918762911  0.8542098734270878  0.44526612797219645  1.0000
  H   H3        1.0  0.34990496438666  0.11432157964736687  0.398871008887859  1.0000
  H   H4        1.0  0.6097341547737899  0.1311448183292399  0.5605694517850706  1.0000
  H   H5        1.0  0.5711623030783388  0.012647551520060996  0.5652860301583045  1.0000
  H   H6        1.0  0.4130742952598894  0.986749139484736  0.42849255632128785  1.0000
  H   H7        1.0  0.4379911580954783  0.601994671256172  0.2617179122133989  1.0000
  H   H8        1.0  0.4243933374339833  0.5849643344921561  0.11948469027434779  1.0000
  H   H9        1.0  0.5011310375535984  0.652916330464059  0.9021760122684551  1.0000
  H   H10       1.0  0.44511589606569407  0.3905194932179866  0.8689207081620507  1.0000
  H   H11       1.0  0.4915275242260009  0.40191982568735074  0.9917368448729742  1.0000
  H   H12       1.0  0.48990592000125593  0.588824022730904  0.010854061276475598  1.0000
  H   H13       1.0  0.8335449785227523  0.3856080279572891  0.5038826238705312  1.0000
  H   H14       1.0  0.8171725058989027  0.6363436201845117  0.47324892775306165  1.0000
  H   H15       1.0  0.1785449036231341  0.6037281664774735  0.48416685401890175  1.0000
  H   H16       1.0  0.19569682204524247  0.3559531598923512  0.5241024575809232  1.0000
  C   C1        1.0  0.5022659072405987  0.5044783277196315  0.3545420072242392  1.0000
  C   C2        1.0  0.3117065805647031  0.4929126721757909  0.5033366988643947  1.0000
  C   C3        1.0  0.5021651507725196  0.5188178768296652  0.6494675231351363  1.0000
  C   C4        1.0  0.7013319996167056  0.4982679648119797  0.49111008214362767  1.0000
  C   C5        1.0  0.4480894792537598  0.7503710256890627  0.4777547043607127  1.0000
  C   C6        1.0  0.443672424002564  0.8331665550376285  0.47718036934695346  1.0000
  C   C7        1.0  0.5187129641266851  0.8896545661561956  0.518614147290698  1.0000
  C   C8        1.0  0.5961013866801609  0.856992194838284  0.559573650454773  1.0000
  C   C9        1.0  0.5954803947475755  0.7718076589252972  0.5570983300075696  1.0000
  C   C10       1.0  0.5191446469714053  0.9775816501043976  0.5208829624495194  1.0000
  C   C11       1.0  0.46613348422267364  0.01884708219910889  0.4741305066695956  1.0000
  C   C12       1.0  0.410339539385987  0.14814283493303293  0.4372536811324394  1.0000
  C   C13       1.0  0.47665092106568363  0.1079126907690622  0.4801168024696521  1.0000
  C   C14       1.0  0.5530067224230919  0.1569961730482916  0.527082537968809  1.0000
  C   C15       1.0  0.5584493419258507  0.2413020085729229  0.5304523016844767  1.0000
  C   C16       1.0  0.4218059523910541  0.23314562344086198  0.4440348376038229  1.0000
  C   C17       1.0  0.5055971881992108  0.4906220867617037  0.26835733618239727  1.0000
  C   C18       1.0  0.465587478271516  0.5492257664797504  0.22822683598348442  1.0000
  C   C19       1.0  0.4595568502233364  0.5399909174523783  0.14896790045877134  1.0000
  C   C20       1.0  0.49553479809431883  0.4722529857954995  0.10503892675578898  1.0000
  C   C21       1.0  0.5376989453530572  0.4137929550653751  0.14541856897427144  1.0000
  C   C22       1.0  0.5431041498934022  0.4225537839784933  0.22602522477842504  1.0000
  C   C23       1.0  0.4892875250973817  0.4636105317862089  0.021490072429720897  1.0000
  C   C24       1.0  0.48491530754954937  0.5266638233369176  0.980430957023422  1.0000
  C   C25       1.0  0.49190891001815384  0.5946719375007561  0.8649562975083567  1.0000
  C   C26       1.0  0.47966489703610904  0.521781549120412  0.8972388733754284  1.0000
  C   C27       1.0  0.4618934715210515  0.4483280728843654  0.8469010208917209  1.0000
  C   C28       1.0  0.4634586684780473  0.44875322609166796  0.7681672535366528  1.0000
  C   C29       1.0  0.4847080500406096  0.5209900986542947  0.7340086429284083  1.0000
  C   C30       1.0  0.4934657008321467  0.5941390165986462  0.7859104552444476  1.0000
  C   C31       1.0  0.8726100343193084  0.4448810727008448  0.49772826264336345  1.0000
  C   C32       1.0  0.8640754699391807  0.5868207993893008  0.4800385024839  1.0000
  C   C33       1.0  0.9688149129094228  0.5979734445913606  0.4802540228599525  1.0000
  C   C34       1.0  0.031880268570837714  0.5343284210003459  0.4905717312958443  1.0000
  C   C35       1.0  0.13969543312968116  0.5448722820525446  0.49187475249641455  1.0000
  C   C36       1.0  0.14854757984645775  0.40444147013698023  0.5141872434623592  1.0000
  C   C37       1.0  0.04367963954973671  0.3926719333708489  0.5122845863080698  1.0000
  C   C38       1.0  0.9805214787277238  0.45573381616188857  0.500130989639885  1.0000
  C   C39       1.0  0.8154675100984862  0.5091294800888874  0.48874844361379377  1.0000
  C   C40       1.0  0.19714642617896772  0.48137684836306954  0.5030839794712633  1.0000
  Br  Br1       1.0  0.6987881432831601  0.7277955427985601  0.6104483449995397  1.0000
  Br  Br2       1.0  0.7022451396392954  0.9266111159076683  0.616494411004737  1.0000
  Br  Br3       1.0  0.6638584030094563  0.30065623246866824  0.5958402139560732  1.0000
  Br  Br4       1.0  0.3300930583464493  0.28183904835627516  0.3834333134328317  1.0000
  Br  Br5       1.0  0.6080683038191453  0.3453816066492834  0.27660324343803205  1.0000
  Br  Br6       1.0  0.5908852651880565  0.3229452665480323  0.08809823743122537  1.0000
  Br  Br7       1.0  0.42421128319629287  0.3447500021082631  0.7089957044148674  1.0000
  Br  Br8       1.0  0.5087545439690475  0.700884230635907  0.755955345591836  1.0000
  Br  Br9       1.0  0.9823615102106517  0.2874214901143332  0.5273398488439724  1.0000
  Br  Br10      1.0  0.0299745366947022  0.7039072555135845  0.4670009293763612  1.0000
  N   N1        1.0  0.5227319465021623  0.7199947800219134  0.5170396530625749  1.0000
  N   N2        1.0  0.49383831136199785  0.2809036137426658  0.49017271114459493  1.0000
  O   O1        1.0  0.4843186224294983  0.4423247581448847  0.3885078717021741  1.0000
  O   O2        1.0  0.5142637349830751  0.5785984585306565  0.3859428536318744  1.0000
  O   O3        1.0  0.35270554705179086  0.5608166113952322  0.4877871458704916  1.0000
  O   O4        1.0  0.3583960700904214  0.4326281088927501  0.5191722280693509  1.0000
  O   O5        1.0  0.4832769869604904  0.5809231956919305  0.6181773781785294  1.0000
  O   O6        1.0  0.5372106937030878  0.4553802411000446  0.6161653012770714  1.0000
  O   O7        1.0  0.6581890591695088  0.42573468823221106  0.4808116936252984  1.0000
  O   O8        1.0  0.6570981954183779  0.5633261113630539  0.5045980061489954  1.0000
