data_image0
_chemical_formula_structural       Al4H8C44Cl20O20F12
_chemical_formula_sum              "Al4 H8 C44 Cl20 O20 F12"
_cell_length_a       7.174588157011424
_cell_length_b       16.52123401053845
_cell_length_c       16.622177573665613
_cell_angle_alpha    100.77137158023437
_cell_angle_beta     90.00012296837102
_cell_angle_gamma    89.99981942539499

_space_group_name_H-M_alt    "P 1"
_space_group_IT_number       1

loop_
  _space_group_symop_operation_xyz
  'x, y, z'

loop_
  _atom_site_type_symbol
  _atom_site_label
  _atom_site_symmetry_multiplicity
  _atom_site_fract_x
  _atom_site_fract_y
  _atom_site_fract_z
  _atom_site_occupancy
  Al  Al1       1.0  0.1612323396561308  0.5014384486986428  0.4945284284430045  1.0000
  Al  Al2       1.0  0.6612332019050342  0.49856061228480536  0.5054716331150645  1.0000
  Al  Al3       1.0  0.6049283298963674  0.9949380071997211  0.9980799105023408  1.0000
  Al  Al4       1.0  0.10493005117096031  0.005062596743158599  0.0019182756260179  1.0000
  H   H1        1.0  0.18682798785653182  0.8344267297549595  0.3132038686900529  1.0000
  H   H2        1.0  0.6868321298844579  0.1655725615743364  0.6867943748103613  1.0000
  H   H3        1.0  0.9918433093942484  0.6232434114093409  0.7691220192474617  1.0000
  H   H4        1.0  0.491844855150589  0.3767558441601223  0.2308782805919591  1.0000
  H   H5        1.0  0.4195185634909181  0.6055577950306343  0.49310685458456055  1.0000
  H   H6        1.0  0.9195215770610118  0.39444516411021613  0.5069062550672427  1.0000
  H   H7        1.0  0.34272866252627665  0.8932326251350843  0.005927818975997901  1.0000
  H   H8        1.0  0.8427277494356318  0.10676760219591587  0.9940668643755898  1.0000
  C   C1        1.0  0.41646248721964696  0.3853978559759028  0.3906533368433003  1.0000
  C   C2        1.0  0.9164588351956271  0.6146013788468495  0.6093462964376712  1.0000
  C   C3        1.0  0.39924237658244266  0.4205391097542305  0.6037575641085839  1.0000
  C   C4        1.0  0.8992295816870312  0.5794615861559862  0.39624328306101836  1.0000
  C   C5        1.0  0.8809621347122204  0.8642560704272597  0.16378258038986357  1.0000
  C   C6        1.0  0.3809585965983473  0.1357462356088135  0.836217031068557  1.0000
  C   C7        1.0  0.8738549583225962  0.6312153608041199  0.3310593543209279  1.0000
  C   C8        1.0  0.3738628671527238  0.3687877883200132  0.6689414775627823  1.0000
  C   C9        1.0  0.6741260163908435  0.671299855024671  0.22385793968992831  1.0000
  C   C10       1.0  0.17412497735838886  0.32870259361268245  0.7761409107620879  1.0000
  C   C11       1.0  0.7151572638953709  0.6186523336400924  0.27794792959736014  1.0000
  C   C12       1.0  0.2151625520734228  0.38135021173835776  0.7220485014931839  1.0000
  C   C13       1.0  0.9912398438241893  0.6970870789564572  0.32604866262072824  1.0000
  C   C14       1.0  0.49124685802333096  0.30291410804068875  0.6739522513931248  1.0000
  C   C15       1.0  0.9528442756886549  0.7534000580633061  0.2724633483379649  1.0000
  C   C16       1.0  0.45284359283768083  0.2466026163340587  0.7275387643504629  1.0000
  C   C17       1.0  0.7925869136769634  0.7398645061785347  0.21948237441281293  1.0000
  C   C18       1.0  0.29258917776862603  0.2601381385169645  0.7805183983408382  1.0000
  C   C19       1.0  0.7663815890733119  0.7968082365255073  0.16550537605563426  1.0000
  C   C20       1.0  0.26638313159601523  0.20319602815014548  0.8344941552890646  1.0000
  C   C21       1.0  0.031617310838520006  0.8756442657958986  0.22011696532467795  1.0000
  C   C22       1.0  0.5316096571104297  0.12435642925265708  0.7798811681262876  1.0000
  C   C23       1.0  0.06848803741991108  0.8224357184230228  0.2719850056252469  1.0000
  C   C24       1.0  0.5684895052605156  0.17756466864821624  0.7280149907699638  1.0000
  C   C25       1.0  0.7214995242671164  0.8141679443980933  0.7471851234506559  1.0000
  C   C26       1.0  0.22151230944465541  0.18582983084743182  0.25281497993993435  1.0000
  C   C27       1.0  0.7635576803429132  0.7588174183118994  0.6619345726754703  1.0000
  C   C28       1.0  0.26356072321545554  0.2411820065136752  0.33806495074569654  1.0000
  C   C29       1.0  0.8841351498670419  0.7362623559224772  0.8402359461912852  1.0000
  C   C30       1.0  0.38413716555560035  0.26373461181098184  0.1597642733123621  1.0000
  C   C31       1.0  0.07165174185199422  0.8297615416066791  0.7586653040945421  1.0000
  C   C32       1.0  0.5716620530347356  0.1702377451099508  0.2413353054986018  1.0000
  C   C33       1.0  0.8890186728491614  0.8209194601720141  0.8089320854601922  1.0000
  C   C34       1.0  0.3890298134704011  0.17907908890295943  0.1910669149754014  1.0000
  C   C35       1.0  0.9094436817210863  0.693718214772275  0.6788491709322599  1.0000
  C   C36       1.0  0.40944896088626587  0.30628174860845553  0.32115107044118935  1.0000
  C   C37       1.0  0.8737499611149531  0.6633764645294633  0.7633672488023606  1.0000
  C   C38       1.0  0.3737532179032428  0.3366227089438425  0.2366317413967067  1.0000
  C   C39       1.0  0.09786524177646072  0.7430383166503631  0.6910230086255424  1.0000
  C   C40       1.0  0.5978738619579361  0.2569615429129329  0.3089776205382933  1.0000
  C   C41       1.0  0.3622540358965979  0.08238796972347731  0.8994771190262513  1.0000
  C   C42       1.0  0.8622680330616177  0.9176143595493047  0.1005224789966874  1.0000
  C   C43       1.0  0.35971810235671603  0.10743643985301081  0.1158632239033466  1.0000
  C   C44       1.0  0.8597165665929013  0.892560558224467  0.8841369780553592  1.0000
  Cl  Cl1       1.0  0.5576267084273995  0.7230079406104083  0.6137406415717236  1.0000
  Cl  Cl2       1.0  0.0576366958748977  0.2769934419482638  0.38625812370564466  1.0000
  Cl  Cl3       1.0  0.6765876648150027  0.5998683676094174  0.7680569051699351  1.0000
  Cl  Cl4       1.0  0.176590441036943  0.40013029771544245  0.23194439147555101  1.0000
  Cl  Cl5       1.0  0.2745735567395755  0.8508237454359958  0.8158414496393717  1.0000
  Cl  Cl6       1.0  0.7745851363209368  0.14917623780456776  0.18416114367678924  1.0000
  Cl  Cl7       1.0  0.044671360567598094  0.9206387995054612  0.7141779443380261  1.0000
  Cl  Cl8       1.0  0.5446811488072355  0.07936014416252142  0.2858238699234192  1.0000
  Cl  Cl9       1.0  0.177894611929311  0.7654713864022186  0.5962516632754103  1.0000
  Cl  Cl10      1.0  0.6779010657667826  0.23452909355563634  0.4037496365210984  1.0000
  Cl  Cl11      1.0  0.2624074121347633  0.6779975163349192  0.7269390538182849  1.0000
  Cl  Cl12      1.0  0.7624112078486789  0.3220027441830169  0.27306169430437427  1.0000
  Cl  Cl13      1.0  0.07452791563346041  0.721011027528256  0.9052564484757896  1.0000
  Cl  Cl14      1.0  0.574528369140701  0.2789890087726691  0.0947417150725087  1.0000
  Cl  Cl15      1.0  0.47586647958456757  0.6522255490914831  0.1653317415934836  1.0000
  Cl  Cl16      1.0  0.9758672375217188  0.34777644347610703  0.8346636520243892  1.0000
  Cl  Cl17      1.0  0.5705861971276533  0.535786362392642  0.27757578771972663  1.0000
  Cl  Cl18      1.0  0.07058392068405081  0.464213974273072  0.7224174753060026  1.0000
  Cl  Cl19      1.0  0.18683695491770183  0.7164877861321345  0.3870729020602753  1.0000
  Cl  Cl20      1.0  0.6868468575685186  0.28351207729159716  0.6129284034256629  1.0000
  O   O1        1.0  0.5626732417332788  0.4432300494893155  0.5886043503800098  1.0000
  O   O2        1.0  0.06266321463789382  0.5567691339752443  0.4113956403593662  1.0000
  O   O3        1.0  0.26005621477936103  0.419305367624716  0.4071495469536046  1.0000
  O   O4        1.0  0.7600513333885529  0.5806957633943953  0.5928493637641664  1.0000
  O   O5        1.0  0.24913745727879194  0.4341019867627622  0.5677935618772736  1.0000
  O   O6        1.0  0.7491277221671382  0.5658973415681955  0.432205338782957  1.0000
  O   O7        1.0  0.07274769750101483  0.5910487347121106  0.5779851178991962  1.0000
  O   O8        1.0  0.5727515886794663  0.40895153264252576  0.4220142691620552  1.0000
  O   O9        1.0  0.4122291709671089  0.5492122810506075  0.5019355771327982  1.0000
  O   O10       1.0  0.9122331293183308  0.4507870734497815  0.4980646655046783  1.0000
  O   O11       1.0  0.19388420592255073  0.08863924643761581  0.09312680710997512  1.0000
  O   O12       1.0  0.6938617377929645  0.9113548973166276  0.9068763332451298  1.0000
  O   O13       1.0  0.5183160972656965  0.05889633282549065  0.9230320763952166  1.0000
  O   O14       1.0  0.018307253058182503  0.9411035111784756  0.07696788321082691  1.0000
  O   O15       1.0  0.5083231721742933  0.07832251890157951  0.0825817210176183  1.0000
  O   O16       1.0  0.0083032115193404  0.9216754068458072  0.9174176167984385  1.0000
  O   O17       1.0  0.7005122911036282  0.9329839103692095  0.0756241399153836  1.0000
  O   O18       1.0  0.20051525116212332  0.06702115599958353  0.924375957234979  1.0000
  O   O19       1.0  0.35206240886396506  0.9495656153723361  0.997176007434291  1.0000
  O   O20       1.0  0.8520626704963447  0.0504349436248646  0.0028205198102285002  1.0000
  F   F1        1.0  0.6279122305811952  0.7832856467805982  0.10978519180545021  1.0000
  F   F2        1.0  0.1279139458084728  0.21671712143683663  0.8902117889935967  1.0000
  F   F3        1.0  0.7330896723479939  0.7358162446336467  0.8916464964429522  1.0000
  F   F4        1.0  0.23309143552674533  0.26418174505990777  0.1083548400620202  1.0000
  F   F5        1.0  0.14346461737059707  0.941893633289027  0.22437751367555592  1.0000
  F   F6        1.0  0.6434560267838378  0.05810078746414149  0.7756170191330441  1.0000
  F   F7        1.0  0.5815223716091821  0.774757182125711  0.779325858241485  1.0000
  F   F8        1.0  0.08153053539125212  0.22524125806308604  0.2206735329152423  1.0000
  F   F9        1.0  0.6563944477686902  0.8887474614775498  0.7367162929619013  1.0000
  F   F10       1.0  0.15640503374006437  0.11125111451370631  0.2632843767821456  1.0000
  F   F11       1.0  0.8324728290687915  0.8088607771484818  0.6104288471159336  1.0000
  F   F12       1.0  0.33247927008105194  0.1911389053031485  0.3895725630082438  1.0000
