data_image0
_chemical_formula_structural       CdH38C44S2N12
_chemical_formula_sum              "Cd1 H38 C44 S2 N12"
_cell_length_a       5.7172185572735374
_cell_length_b       10.324546786134185
_cell_length_c       17.56983879758978
_cell_angle_alpha    90.11012063121379
_cell_angle_beta     87.68486140638662
_cell_angle_gamma    87.72274568324782

_space_group_name_H-M_alt    "P 1"
_space_group_IT_number       1

loop_
  _space_group_symop_operation_xyz
  'x, y, z'

loop_
  _atom_site_type_symbol
  _atom_site_label
  _atom_site_symmetry_multiplicity
  _atom_site_fract_x
  _atom_site_fract_y
  _atom_site_fract_z
  _atom_site_occupancy
  Cd  Cd1       1.0  0.4999756452585303  7.550957334999499e-06  3.1488147982020105e-06  1.0000
  H   H1        1.0  0.6561480595922405  0.12158598680281327  0.44504228683049263  1.0000
  H   H2        1.0  0.3438428374050631  0.87843138271149  0.5549627003337536  1.0000
  H   H3        1.0  0.6013288573287382  0.2111626973673991  0.3618017537509318  1.0000
  H   H4        1.0  0.39868991923776065  0.7888556693096543  0.6381999667709977  1.0000
  H   H5        1.0  0.791525995749595  0.4685476004785798  0.4876829067266117  1.0000
  H   H6        1.0  0.20844784698160612  0.5314638223506662  0.5123195314990812  1.0000
  H   H7        1.0  0.60578502951347  0.34035298528149127  0.5139657810840534  1.0000
  H   H8        1.0  0.3942147806893886  0.6596399820437854  0.4860312875336066  1.0000
  H   H9        1.0  0.5732357848814332  0.42149087278291836  0.4252233100373389  1.0000
  H   H10       1.0  0.4267590022431094  0.5784991404667679  0.5747727166636808  1.0000
  H   H11       1.0  0.9546338557363612  0.1927585503636209  0.534759506036501  1.0000
  H   H12       1.0  0.045397842967283004  0.80725214754343  0.46524378810705275  1.0000
  H   H13       1.0  0.14796108186737203  0.3179376520188342  0.5092082001661354  1.0000
  H   H14       1.0  0.8520670688589645  0.6820729495057735  0.4907917319193446  1.0000
  H   H15       1.0  0.17877982507508958  0.16541174016459337  0.4626607234750538  1.0000
  H   H16       1.0  0.8212417624483664  0.834594046849588  0.5373416187826835  1.0000
  H   H17       1.0  0.8787167448026666  0.40511343128064675  0.325889860131781  1.0000
  H   H18       1.0  0.1212863783772278  0.5948825540970117  0.6741111213813797  1.0000
  H   H19       1.0  0.12141280173979402  0.42440492508839606  0.382782367133359  1.0000
  H   H20       1.0  0.8785930126840923  0.5755996552825167  0.6172128179313958  1.0000
  H   H21       1.0  0.19739344023791008  0.0614391149874933  0.2715008178231671  1.0000
  H   H22       1.0  0.8025760604580087  0.938560546693324  0.7284972189706239  1.0000
  H   H23       1.0  0.43598602354075666  0.22649151022128672  0.22828165553374907  1.0000
  H   H24       1.0  0.5640249018065829  0.7735161784562264  0.7717208304585201  1.0000
  H   H25       1.0  0.277922507174793  0.501288129495201  0.2843136290118339  1.0000
  H   H26       1.0  0.7220996553023581  0.49871088702578  0.7156893246285138  1.0000
  H   H27       1.0  0.44513781050684287  0.6766295691536541  0.22758308308920058  1.0000
  H   H28       1.0  0.5548904942243666  0.32337907991732345  0.7724162921043247  1.0000
  H   H29       1.0  0.7594863553903864  0.7770862967373089  0.15097357673858622  1.0000
  H   H30       1.0  0.240535931420311  0.2229084923933797  0.8490151760951223  1.0000
  H   H31       1.0  0.08387177356055282  0.3989069841172395  0.10436476687485913  1.0000
  H   H32       1.0  0.9161199013711753  0.6010792521787635  0.8956358880000012  1.0000
  H   H33       1.0  0.7632423516511722  0.297416203071151  0.17746618409229603  1.0000
  H   H34       1.0  0.2367342141918486  0.7025824858642122  0.8225306168583231  1.0000
  H   H35       1.0  0.08439262719527818  0.8536093245734904  0.11926101983514312  1.0000
  H   H36       1.0  0.9156274623297306  0.14637106828705979  0.8807341347750751  1.0000
  H   H37       1.0  0.5729326288678039  0.6550210785776329  0.9713604614903701  1.0000
  H   H38       1.0  0.427070082485372  0.3449786294342728  0.028634236793848813  1.0000
  C   C1        1.0  0.9815671089281109  0.8592663644565589  0.3023479881803084  1.0000
  C   C2        1.0  0.018419318259169898  0.1407390195732887  0.6976434935362195  1.0000
  C   C3        1.0  0.6303285000596971  0.9063569972084268  0.3807021779927596  1.0000
  C   C4        1.0  0.36966728989296643  0.09364393592695558  0.6193039981524182  1.0000
  C   C5        1.0  0.8379971953842045  0.9509108064797402  0.3445330675237629  1.0000
  C   C6        1.0  0.16199307753183936  0.049092973856936284  0.6554714613766777  1.0000
  C   C7        1.0  0.8953388975719958  0.0805591995650161  0.3497005351497081  1.0000
  C   C8        1.0  0.1046532634079682  0.9194426064042387  0.6503022728828826  1.0000
  C   C9        1.0  0.7425080920209056  0.1725982182295596  0.39751914387923654  1.0000
  C   C10       1.0  0.2574941151156835  0.8274094958908831  0.6024857479866272  1.0000
  C   C11       1.0  0.8766182804810612  0.28668646364749856  0.4280831792646539  1.0000
  C   C12       1.0  0.12339114580750281  0.7133183252738603  0.5719199198660831  1.0000
  C   C13       1.0  0.7010689450331072  0.38491826933468337  0.46592493006085095  1.0000
  C   C14       1.0  0.2989285310630692  0.6150825577609069  0.5340766681024931  1.0000
  C   C15       1.0  0.0502434667239484  0.237533017355382  0.48691718783683774  1.0000
  C   C16       1.0  0.9497778698273932  0.762475663286743  0.5130845672563569  1.0000
  C   C17       1.0  0.006306297551141401  0.35127053914595757  0.3607645818148201  1.0000
  C   C18       1.0  0.9936951231090703  0.6487288121729904  0.639239818318707  1.0000
  C   C19       1.0  0.14608474526469453  0.2573683699132658  0.30965826250729833  1.0000
  C   C20       1.0  0.8539234009935156  0.7426305695399832  0.6903437609225025  1.0000
  C   C21       1.0  0.0912184855351654  0.12853139666047747  0.3079666331716382  1.0000
  C   C22       1.0  0.9087684584319929  0.8714693375818144  0.6920328448313173  1.0000
  C   C23       1.0  0.33586910356381583  0.3009550453694985  0.26161582336320793  1.0000
  C   C24       1.0  0.6641252124240112  0.6990419206464011  0.7383869889680456  1.0000
  C   C25       1.0  0.3894336190487521  0.4279705072188733  0.254028433404315  1.0000
  C   C26       1.0  0.6105774523175358  0.5720352149840123  0.7459729266950108  1.0000
  C   C27       1.0  0.5796627463193501  0.4798313802885231  0.20831902989762346  1.0000
  C   C28       1.0  0.4203506260737626  0.5201675354863722  0.7916812086074289  1.0000
  C   C29       1.0  0.5852108221855161  0.615683414438287  0.20054867804694257  1.0000
  C   C30       1.0  0.4148058312409404  0.3843184633049858  0.7994531973496635  1.0000
  C   C31       1.0  0.7624377310848017  0.6722445281420235  0.15791799028036022  1.0000
  C   C32       1.0  0.23757411257820849  0.3277492129400557  0.8420692174484757  1.0000
  C   C33       1.0  0.9432559759782747  0.5938788097489223  0.1242285221883463  1.0000
  C   C34       1.0  0.0567681316004212  0.4061172211253207  0.8757710096357061  1.0000
  C   C35       1.0  0.9427802371833706  0.45881144383707084  0.13105149094044322  1.0000
  C   C36       1.0  0.0572296282982165  0.5411863362340626  0.868942546556106  1.0000
  C   C37       1.0  0.7615419051214759  0.40264990508358517  0.17238329729772772  1.0000
  C   C38       1.0  0.23845399890644361  0.5973490054931644  0.8276194769505595  1.0000
  C   C39       1.0  0.1805927024596912  0.7805926158215186  0.08516518600985283  1.0000
  C   C40       1.0  0.8194087448349733  0.2194012707642869  0.914829574575407  1.0000
  C   C41       1.0  0.4260296972779827  0.6768470553426198  0.0107698266573806  1.0000
  C   C42       1.0  0.573987216242685  0.32315083336737865  0.989227520949385  1.0000
  C   C43       1.0  0.015426198465903011  0.9209945983282138  0.9089520780631801  1.0000
  C   C44       1.0  0.9845075292397069  0.0789955369379598  0.0910585137490472  1.0000
  S   S1        1.0  0.2641207736761261  0.9569945045990664  0.8665526126919405  1.0000
  S   S2        1.0  0.7357994796843669  0.042989836448505486  0.13346106824376855  1.0000
  N   N1        1.0  0.10365162108307402  0.7846362357872463  0.2679177356127056  1.0000
  N   N2        1.0  0.8963217642540824  0.21539799166873047  0.7320657542979989  1.0000
  N   N3        1.0  0.45570985835731653  0.8729235350180248  0.410178092084351  1.0000
  N   N4        1.0  0.5443109179242853  0.12705028364334228  0.5898256399223315  1.0000
  N   N5        1.0  0.12892429077675163  0.653926854866114  0.08400021223835102  1.0000
  N   N6        1.0  0.8710983588089574  0.3460652369306557  0.915997093773747  1.0000
  N   N7        1.0  0.2861627783937521  0.58640095566696  0.0368151186122816  1.0000
  N   N8        1.0  0.7138491040626816  0.41359396494645034  0.9631806180768621  1.0000
  N   N9        1.0  0.36713744090048545  0.7982491082652956  0.0390514417089705  1.0000
  N   N10       1.0  0.6328763376057863  0.20174385200170514  0.9609431431133049  1.0000
  N   N11       1.0  0.8335154077137261  0.8962063351063277  0.9392562791608157  1.0000
  N   N12       1.0  0.1664002195595131  0.10377019176306851  0.06075582112985241  1.0000
