data_image0
_chemical_formula_structural       Ag2H18C26N4O4
_chemical_formula_sum              "Ag2 H18 C26 N4 O4"
_cell_length_a       3.836850007671783
_cell_length_b       11.992330927149577
_cell_length_c       12.737483881998026
_cell_angle_alpha    75.4731939056135
_cell_angle_beta     87.59166444335175
_cell_angle_gamma    85.47252674135167

_space_group_name_H-M_alt    "P 1"
_space_group_IT_number       1

loop_
  _space_group_symop_operation_xyz
  'x, y, z'

loop_
  _atom_site_type_symbol
  _atom_site_label
  _atom_site_symmetry_multiplicity
  _atom_site_fract_x
  _atom_site_fract_y
  _atom_site_fract_z
  _atom_site_occupancy
  Ag  Ag1       1.0  0.18157014635716703  0.9255746710009664  0.597180654966273  1.0000
  Ag  Ag2       1.0  0.8183816726912244  0.0744115433233432  0.40282576776331774  1.0000
  H   H1        1.0  0.5898615676962109  0.00037551808720340116  0.2233311616803419  1.0000
  H   H2        1.0  0.4101414495494354  0.999630312531153  0.7766650777679516  1.0000
  H   H3        1.0  0.1793877754653509  0.7854439299525707  0.04559505581588746  1.0000
  H   H4        1.0  0.8206618215149962  0.2145709652949391  0.9544123394938069  1.0000
  H   H5        1.0  0.0771147188569898  0.6121840313862492  0.19754961728403944  1.0000
  H   H6        1.0  0.9229453490409301  0.3878291188601821  0.8024548268614566  1.0000
  H   H7        1.0  0.7337431949227099  0.6355327765000426  0.36338150504968064  1.0000
  H   H8        1.0  0.26627746648313183  0.3644642467176525  0.6366234573524993  1.0000
  H   H9        1.0  0.9608462751087928  0.8688234631916529  0.8436156285994657  1.0000
  H   H10       1.0  0.039137359792768216  0.13117215029926396  0.1563809607306155  1.0000
  H   H11       1.0  0.7117200598616763  0.7123559608180299  0.9810630679314372  1.0000
  H   H12       1.0  0.28829809103353904  0.28763516933891964  0.018932289249441674  1.0000
  H   H13       1.0  0.5661904445253326  0.5405402920737785  0.7263349504916121  1.0000
  H   H14       1.0  0.4337988694209045  0.45945438071677097  0.273665667471839  1.0000
  H   H15       1.0  0.8422826125202507  0.7037969802193516  0.5980161125720186  1.0000
  H   H16       1.0  0.157677089748212  0.2962021960269183  0.40198170944437805  1.0000
  H   H17       1.0  0.377333392298425  0.447328378982121  0.9101369435163633  1.0000
  H   H18       1.0  0.6226763831956249  0.5526687696201975  0.08986270769791814  1.0000
  C   C1        1.0  0.6433328085032671  0.8188851400827206  0.3043931585784917  1.0000
  C   C2        1.0  0.3566346969179435  0.18111568109120674  0.6956072768038482  1.0000
  C   C3        1.0  0.6957952548056953  0.9148065988762542  0.2182614087514167  1.0000
  C   C4        1.0  0.3041932620061446  0.08519408844238538  0.781740213208778  1.0000
  C   C5        1.0  0.8813237257016268  0.9027695384660605  0.1240550065960163  1.0000
  C   C6        1.0  0.11866055148220063  0.09724151413151821  0.8759451271614297  1.0000
  C   C7        1.0  0.02239363712921963  0.7928619338091139  0.11703779104602313  1.0000
  C   C8        1.0  0.9776377920377257  0.20715052004457854  0.8829665911734706  1.0000
  C   C9        1.0  0.9663245719576639  0.6973697336917086  0.20229557919758884  1.0000
  C   C10       1.0  0.033754101153483915  0.30264242385900525  0.7977110796638273  1.0000
  C   C11       1.0  0.7761331054465261  0.7095101729741344  0.2953995162067145  1.0000
  C   C12       1.0  0.2239051534480013  0.2904893793228495  0.7046013824371968  1.0000
  C   C13       1.0  0.4503774721127556  0.8310853494920848  0.40685779769267333  1.0000
  C   C14       1.0  0.5495846506289439  0.16891384168646792  0.5931376171173355  1.0000
  C   C15       1.0  0.8737153532325266  0.7942420795710348  0.8201253580756571  1.0000
  C   C16       1.0  0.12627612770929636  0.20575264712313415  0.1798697074154276  1.0000
  C   C17       1.0  0.7341216658054962  0.7053255820168046  0.897485198675085  1.0000
  C   C18       1.0  0.2658540882780542  0.29466924019740764  0.10250937004086318  1.0000
  C   C19       1.0  0.626284005383461  0.6085651949870369  0.867378794621601  1.0000
  C   C20       1.0  0.37370595036667714  0.3914251705773708  0.13262200484874137  1.0000
  C   C21       1.0  0.6569777459644544  0.6103170927800363  0.7565803397591253  1.0000
  C   C22       1.0  0.3430031863945402  0.38968023256617823  0.24341826964798233  1.0000
  C   C23       1.0  0.8054959469085435  0.7018309418859588  0.6836700438618308  1.0000
  C   C24       1.0  0.19448320678112196  0.2981620613018095  0.3163311542585419  1.0000
  C   C25       1.0  0.4925927456873327  0.5097885450661791  0.9454210332785635  1.0000
  C   C26       1.0  0.5074369819971524  0.4901989866452965  0.05458198198191866  1.0000
  N   N1        1.0  0.9227590232804845  0.006129540197896701  0.043435786520952  1.0000
  N   N2        1.0  0.0772608900645366  0.9938743317131865  0.9565723452627709  1.0000
  N   N3        1.0  0.9155264956462121  0.7925641305154231  0.7146821135623824  1.0000
  N   N4        1.0  0.0844656475814105  0.20742881093416804  0.2853180569570384  1.0000
  O   O1        1.0  0.4177317682474282  0.9348364312920767  0.42241564518607067  1.0000
  O   O2        1.0  0.58222416038452  0.06516798832732458  0.5775771321166729  1.0000
  O   O3        1.0  0.33308432474864713  0.7444376383391147  0.4702342803256698  1.0000
  O   O4        1.0  0.6668819623578771  0.25556421185672923  0.5297525941115708  1.0000
