data_image0
_chemical_formula_structural       Ag4H18C26S4N6O14F12
_chemical_formula_sum              "Ag4 H18 C26 S4 N6 O14 F12"
_cell_length_a       10.282155549855375
_cell_length_b       10.279841473198237
_cell_length_c       11.112318676595617
_cell_angle_alpha    96.20707285960712
_cell_angle_beta     103.23550066933223
_cell_angle_gamma    116.66626203312686

_space_group_name_H-M_alt    "P 1"
_space_group_IT_number       1

loop_
  _space_group_symop_operation_xyz
  'x, y, z'

loop_
  _atom_site_type_symbol
  _atom_site_label
  _atom_site_symmetry_multiplicity
  _atom_site_fract_x
  _atom_site_fract_y
  _atom_site_fract_z
  _atom_site_occupancy
  Ag  Ag1       1.0  0.2727725287760947  0.18504401901871154  0.4390850143779944  1.0000
  Ag  Ag2       1.0  0.7272263724470278  0.8149572620337652  0.5609155648307934  1.0000
  Ag  Ag3       1.0  0.1986869838453986  0.8055360228555559  0.5295440549465271  1.0000
  Ag  Ag4       1.0  0.8013123569512501  0.19446413749844277  0.47045560469513964  1.0000
  H   H1        1.0  0.5772385032698538  0.5819750408163176  0.2062073690944502  1.0000
  H   H2        1.0  0.4227618366073997  0.4180251195040442  0.7937925025971284  1.0000
  H   H3        1.0  0.35614628949406324  0.5864943757090232  0.06034934522645592  1.0000
  H   H4        1.0  0.6438540515063167  0.4135057859739818  0.9396496269379001  1.0000
  H   H5        1.0  0.08979606616396303  0.4124346623028502  0.06334802915840503  1.0000
  H   H6        1.0  0.9102042737132906  0.5875654980175113  0.9366518425331736  1.0000
  H   H7        1.0  0.060315539831826484  0.24956963804930152  0.21916488985903024  1.0000
  H   H8        1.0  0.9396838009648221  0.7504305223046969  0.7808347697826366  1.0000
  H   H9        1.0  0.8551723968450062  0.6359381988812559  0.5115642421010096  1.0000
  H   H10       1.0  0.14482794190912077  0.36406196007646957  0.48843652911778446  1.0000
  H   H11       1.0  0.6029352925247977  0.28747064864957395  0.1627238106083056  1.0000
  H   H12       1.0  0.3970640482718509  0.7125295117044318  0.837275849033361  1.0000
  H   H13       1.0  0.8520607257150346  0.36438691863065037  0.11778560382288826  1.0000
  H   H14       1.0  0.1479396130390996  0.635613240327068  0.882215167395913  1.0000
  H   H15       1.0  0.0924435195620106  0.5748669273902749  0.27561645459557144  1.0000
  H   H16       1.0  0.907556258561904  0.4251321095399662  0.7243840845334121  1.0000
  H   H17       1.0  0.6233362139408242  0.2952645119383136  0.6118947825177585  1.0000
  H   H18       1.0  0.3766635664293431  0.7047345277172069  0.38810395755679394  1.0000
  C   C1        1.0  0.4345008252515399  0.4111104305194076  0.28594686754710363  1.0000
  C   C2        1.0  0.5654995146257137  0.5888897298009613  0.7140530041444749  1.0000
  C   C3        1.0  0.4607215936338208  0.507534323056362  0.20376562817136806  1.0000
  C   C4        1.0  0.5392787462434399  0.4924658372639996  0.7962342435202034  1.0000
  C   C5        1.0  0.3371213523050828  0.5107465265761635  0.12368939162295332  1.0000
  C   C6        1.0  0.6628789875721778  0.4892536337441983  0.8763104800686252  1.0000
  C   C7        1.0  0.19026421116113576  0.4168547959571215  0.12708384621317492  1.0000
  C   C8        1.0  0.8097351307586392  0.5831453657595206  0.8729149139012692  1.0000
  C   C9        1.0  0.17281974227208963  0.3248311830127833  0.21237228975510195  1.0000
  C   C10       1.0  0.8271805976051639  0.6751689773075854  0.7876275819364768  1.0000
  C   C11       1.0  0.5649809814840197  0.40779362581928796  0.3726724510636857  1.0000
  C   C12       1.0  0.4350167984786779  0.5922054111782273  0.6273276639654739  1.0000
  C   C13       1.0  0.8497095704597656  0.5724873816322571  0.4235065000606826  1.0000
  C   C14       1.0  0.1502907694174881  0.42751277868810433  0.5764933716308962  1.0000
  C   C15       1.0  0.7096652108537995  0.4559388145368858  0.3410124896991747  1.0000
  C   C16       1.0  0.290334567270115  0.5440602223933553  0.6589880494298086  1.0000
  C   C17       1.0  0.7095326802880563  0.38025666497591015  0.228219270555556  1.0000
  C   C18       1.0  0.2904660987552461  0.619742371987968  0.7717810565235157  1.0000
  C   C19       1.0  0.8479261670089073  0.42263700485428063  0.20352597183860877  1.0000
  C   C20       1.0  0.15207361111501427  0.5773620320759604  0.7964745672903748  1.0000
  C   C21       1.0  0.9819184445872082  0.5393546368686019  0.29105539871722647  1.0000
  C   C22       1.0  0.018081332413579825  0.46064439869899604  0.7089460399389723  1.0000
  C   C23       1.0  0.18114560552324827  0.15058439605664384  0.8534645578861912  1.0000
  C   C24       1.0  0.8188547332308858  0.8494157629010818  0.14653621333260256  1.0000
  C   C25       1.0  0.2960198146245433  0.9201012683151577  0.14178391273829768  1.0000
  C   C26       1.0  0.7039805241295837  0.0798988906425677  0.8582168584804963  1.0000
  S   S1        1.0  0.11262447448726222  0.058981813591515206  0.6806845650841213  1.0000
  S   S2        1.0  0.8873764248970843  0.9410194673936872  0.31931643822448313  1.0000
  S   S3        1.0  0.42597356752102666  0.9486069281019311  0.3019399893879537  1.0000
  S   S4        1.0  0.5740257721524883  0.0513932308894312  0.6980605697809283  1.0000
  N   N1        1.0  0.2915891255659346  0.3215011912414809  0.29001916166662783  1.0000
  N   N2        1.0  0.7084102152307139  0.6784989691125247  0.709980497975039  1.0000
  N   N3        1.0  0.5425659397365408  0.3562818331036581  0.47199247869065186  1.0000
  N   N4        1.0  0.4574338395105003  0.6437172051892263  0.5280071609111092  1.0000
  N   N5        1.0  0.982917839806106  0.6135717674175966  0.3991730472697271  1.0000
  N   N6        1.0  0.017080938114070045  0.3864272681836384  0.6008281793365668  1.0000
  O   O1        1.0  0.2384366588100164  0.159663816093051  0.6386410500140727  1.0000
  O   O2        1.0  0.7615636799441107  0.8403363428646744  0.3613597212047282  1.0000
  O   O3        1.0  0.09521154525199206  0.9092690779091231  0.6782553491667616  1.0000
  O   O4        1.0  0.9047892308294151  0.09072995762483771  0.3217463015393491  1.0000
  O   O5        1.0  0.9692796091618092  0.06185168917238569  0.6335202818293837  1.0000
  O   O6        1.0  0.030719171004619805  0.938147349154136  0.3664791457224725  1.0000
  O   O7        1.0  0.3508878303906187  0.9739295639309732  0.39154679563945666  1.0000
  O   O8        1.0  0.6491115104060298  0.0260705964230326  0.6084528640022102  1.0000
  O   O9        1.0  0.4296429388939771  0.8071607765387087  0.29199628887568724  1.0000
  O   O10       1.0  0.570357961613496  0.19284050580913717  0.708003814905702  1.0000
  O   O11       1.0  0.5688177491461133  0.07856268910674662  0.30619321017955775  1.0000
  O   O12       1.0  0.43118258960802075  0.9214374698509786  0.6938075610392433  1.0000
  O   O13       1.0  0.6657222089768098  0.35402659031942113  0.5499534699185633  1.0000
  O   O14       1.0  0.3342781297773172  0.6459735686383042  0.4500473013002307  1.0000
  F   F1        1.0  0.1940232819941627  0.28955583798860834  0.8674385175691912  1.0000
  F   F2        1.0  0.8059776185133033  0.7104454443592375  0.13256158621219788  1.0000
  F   F3        1.0  0.0818524245064083  0.0704033904976527  0.9129292786333  1.0000
  F   F4        1.0  0.918147475797326  0.929597890521187  0.08707151262539982  1.0000
  F   F5        1.0  0.32077030673682566  0.16715927053668625  0.9120428380800831  1.0000
  F   F6        1.0  0.6792300331404348  0.8328408897836823  0.08795703361149518  1.0000
  F   F7        1.0  0.15665790556380443  0.7964187142234139  0.11799047494832855  1.0000
  F   F8        1.0  0.8433409967824518  0.20358256819170614  0.882009204733244  1.0000
  F   F9        1.0  0.2751533590119308  0.04004283468633221  0.13536340108370132  1.0000
  F   F10       1.0  0.7248475414955422  0.9599584476615135  0.8646367026976879  1.0000
  F   F11       1.0  0.35478514560877267  0.8988847217541575  0.048404384867076516  1.0000
  F   F12       1.0  0.6452156327188731  0.10111431650508962  0.9515954667845963  1.0000
