data_image0
_chemical_formula_structural       Cu3H84C48N18O12
_chemical_formula_sum              "Cu3 H84 C48 N18 O12"
_cell_length_a       6.861266152804455
_cell_length_b       17.13546719786653
_cell_length_c       17.132945523484928
_cell_angle_alpha    120.00487367484462
_cell_angle_beta     90.00672085202031
_cell_angle_gamma    89.99712706828582

_space_group_name_H-M_alt    "P 1"
_space_group_IT_number       1

loop_
  _space_group_symop_operation_xyz
  'x, y, z'

loop_
  _atom_site_type_symbol
  _atom_site_label
  _atom_site_symmetry_multiplicity
  _atom_site_fract_x
  _atom_site_fract_y
  _atom_site_fract_z
  _atom_site_occupancy
  Cu  Cu1       1.0  0.4999914766795328  0.5000026864867737  5.0464962554797454e-06  1.0000
  Cu  Cu2       1.0  0.499993549240358  0.49999761744216914  0.4999954513130973  1.0000
  Cu  Cu3       1.0  0.5000162006635945  4.925958052078151e-06  0.5000017417764795  1.0000
  H   H1        1.0  0.17168869033902476  0.4756889891102175  0.9362729869466405  1.0000
  H   H2        1.0  0.17166501209221252  0.4606074548785061  0.5243175368830748  1.0000
  H   H3        1.0  0.17167165744815088  0.06367288367641084  0.5393772260765674  1.0000
  H   H4        1.0  0.8283071542792585  0.5243155603447676  0.06373194888778498  1.0000
  H   H5        1.0  0.8283322908085538  0.5393833528774864  0.4756871345755727  1.0000
  H   H6        1.0  0.8283431339058895  0.936315703448493  0.46061915954639665  1.0000
  H   H7        1.0  0.6185888993545775  0.34644632653181895  0.9523714017181107  1.0000
  H   H8        1.0  0.6186528579099502  0.605940656134962  0.6535803921723655  1.0000
  H   H9        1.0  0.618550717154548  0.047609674465917344  0.39403288089697247  1.0000
  H   H10       1.0  0.38139382819709766  0.653556381801316  0.04763304037724936  1.0000
  H   H11       1.0  0.38136193213860986  0.39405190736042073  0.3464085133687718  1.0000
  H   H12       1.0  0.3814494993309978  0.9523933043899081  0.6059677885566614  1.0000
  H   H13       1.0  0.16782061127181438  0.6942111614882265  0.9199849387815318  1.0000
  H   H14       1.0  0.16775020901878435  0.22578609078097864  0.3057491718519216  1.0000
  H   H15       1.0  0.1678429789927804  0.08004833306600298  0.7742597675679548  1.0000
  H   H16       1.0  0.8321781472531953  0.3057902467516556  0.08001146414103022  1.0000
  H   H17       1.0  0.832258751268917  0.7742255336082239  0.6942486873411794  1.0000
  H   H18       1.0  0.8321528654880552  0.9199568901886438  0.22574449426842583  1.0000
  H   H19       1.0  0.0348255369767472  0.5942121537786705  0.8500978299288136  1.0000
  H   H20       1.0  0.0347796873134314  0.2559512625587034  0.4057619093791586  1.0000
  H   H21       1.0  0.03481078229670229  0.14986841260294884  0.7440815913894951  1.0000
  H   H22       1.0  0.9651805087872775  0.4057886708399821  0.14989798948212743  1.0000
  H   H23       1.0  0.9652190707294181  0.7440646276115216  0.5942375200522675  1.0000
  H   H24       1.0  0.9651894343030918  0.8501372377215689  0.2559210758630497  1.0000
  H   H25       1.0  0.09227664994575951  0.6245674536849676  0.9641496579498038  1.0000
  H   H26       1.0  0.09227411245251461  0.3396069012316972  0.3753977940671405  1.0000
  H   H27       1.0  0.09233050168747069  0.03582781095202136  0.660413315463444  1.0000
  H   H28       1.0  0.90771190617442  0.3754349652250326  0.035845733712690654  1.0000
  H   H29       1.0  0.9077537952099846  0.6604114801762436  0.6246061493096774  1.0000
  H   H30       1.0  0.9076638851302476  0.9641784229979251  0.33958993533829557  1.0000
  H   H31       1.0  0.19802676977706574  0.4528059196976246  0.7841894631255643  1.0000
  H   H32       1.0  0.19803446028475952  0.3314451519086887  0.547194333588159  1.0000
  H   H33       1.0  0.19794226043671162  0.21575174161787206  0.6685714014126845  1.0000
  H   H34       1.0  0.8019836490907721  0.5471921195775239  0.21581031008778945  1.0000
  H   H35       1.0  0.8019803308396973  0.6685502159103649  0.45280344193900385  1.0000
  H   H36       1.0  0.8020506685355997  0.7842458942796001  0.3314252722552736  1.0000
  H   H37       1.0  0.4563861371867333  0.44881952304945133  0.7951988590078543  1.0000
  H   H38       1.0  0.45639018824896027  0.34640906949911004  0.5511751540400098  1.0000
  H   H39       1.0  0.4562940262410678  0.20479154156805623  0.6536000817644164  1.0000
  H   H40       1.0  0.5436199101569983  0.5511832517783122  0.20480901978221056  1.0000
  H   H41       1.0  0.5436260604009461  0.6535883861506094  0.448824035624149  1.0000
  H   H42       1.0  0.5436989025933556  0.7952116175816857  0.34639807210631085  1.0000
  H   H43       1.0  0.16876429550481487  0.31957837614754686  0.8203065917767489  1.0000
  H   H44       1.0  0.1687900145390557  0.5008049396559856  0.680437210069428  1.0000
  H   H45       1.0  0.1685907572123426  0.1795496296859014  0.49915501023080106  1.0000
  H   H46       1.0  0.8312271768802759  0.6804230747688821  0.1796979408426011  1.0000
  H   H47       1.0  0.83123789420155  0.4991919988125775  0.31956483228938026  1.0000
  H   H48       1.0  0.8313948849102886  0.8204474889758587  0.5008445156433793  1.0000
  H   H49       1.0  0.4271178764768279  0.324233956667257  0.8148164349428129  1.0000
  H   H50       1.0  0.42714318858661937  0.49062793056755544  0.6757913601532407  1.0000
  H   H51       1.0  0.42693046217371494  0.18514863185372826  0.5093593889077823  1.0000
  H   H52       1.0  0.5728794263770922  0.6757683910780445  0.185193038318367  1.0000
  H   H53       1.0  0.5728818044845951  0.5093678643381454  0.32420482094037334  1.0000
  H   H54       1.0  0.5730566374511668  0.8148539199070585  0.49064287490426034  1.0000
  H   H55       1.0  0.3314327438644539  0.2559063478736334  0.9071304711509073  1.0000
  H   H56       1.0  0.33152336942750793  0.651269467569044  0.7441285812288071  1.0000
  H   H57       1.0  0.33132481154882504  0.09277590714752652  0.3486804995022439  1.0000
  H   H58       1.0  0.6685485267566093  0.7440994352513075  0.09287906780032518  1.0000
  H   H59       1.0  0.6684928790164477  0.3487265740538632  0.25586852033788426  1.0000
  H   H60       1.0  0.6686724900685591  0.9072276553421262  0.6513207535757315  1.0000
  H   H61       1.0  0.19048759930482365  0.35356504902583924  0.9793343795912507  1.0000
  H   H62       1.0  0.1905546917614984  0.6258206054124643  0.6464689292683798  1.0000
  H   H63       1.0  0.19046681149705344  0.02056850457360329  0.3741485425453916  1.0000
  H   H64       1.0  0.809500958486318  0.6464429121040071  0.020675315949738038  1.0000
  H   H65       1.0  0.8094498974164211  0.37417191059363125  0.3535293635919316  1.0000
  H   H66       1.0  0.8095334045536262  0.9794325667706476  0.6258481974137665  1.0000
  H   H67       1.0  0.6309657638161354  0.5845801578022147  0.8837631647090732  1.0000
  H   H68       1.0  0.6309438099252348  0.29916829232001874  0.41539323852166626  1.0000
  H   H69       1.0  0.6309620642012349  0.11628439046187819  0.7008538508015363  1.0000
  H   H70       1.0  0.3690300813523565  0.41541684700150944  0.11624231291672515  1.0000
  H   H71       1.0  0.36906369338722567  0.7008336995872568  0.5846037483258115  1.0000
  H   H72       1.0  0.3690294076802659  0.8837154898428069  0.2991464153243155  1.0000
  H   H73       1.0  0.5017508904439153  0.6892382827144274  0.9327631720399623  1.0000
  H   H74       1.0  0.5016808761545875  0.24350507116375303  0.31071933263907425  1.0000
  H   H75       1.0  0.5017883876087339  0.06731616238492673  0.7565401592612134  1.0000
  H   H76       1.0  0.49825515602986314  0.3107631018164768  0.06723792486154419  1.0000
  H   H77       1.0  0.49832517002199234  0.7564913073296112  0.6892774316655945  1.0000
  H   H78       1.0  0.498210371557306  0.932686142667038  0.24346118415289192  1.0000
  H   H79       1.0  0.17619697614901497  0.5077032115533912  0.20969450160221473  1.0000
  H   H80       1.0  0.1762421532232779  0.7020331578783046  0.492304335182311  1.0000
  H   H81       1.0  0.176197524645481  0.7902637032657723  0.2979780401498147  1.0000
  H   H82       1.0  0.8238032387336318  0.4923011623616775  0.7902954322731618  1.0000
  H   H83       1.0  0.8237697221869239  0.29795078383045154  0.507682686978562  1.0000
  H   H84       1.0  0.8237924906255928  0.20974333732622344  0.7020314087282884  1.0000
  C   C1        1.0  0.1461167386138911  0.6239100460283068  0.9031185547386328  1.0000
  C   C2        1.0  0.1460975093887029  0.2792394153771554  0.37606160858594245  1.0000
  C   C3        1.0  0.1461240968692508  0.09687425164366911  0.7207916981285152  1.0000
  C   C4        1.0  0.8538820202545027  0.3760921024387259  0.0968806102794417  1.0000
  C   C5        1.0  0.8539129087450732  0.7207735328856089  0.6239395964397189  1.0000
  C   C6        1.0  0.8538717475658472  0.9031303879687657  0.2792119800083837  1.0000
  C   C7        1.0  0.32070891573096816  0.4794856953710891  0.8320475847315123  1.0000
  C   C8        1.0  0.3207078887159867  0.3525984118149027  0.5205066823573077  1.0000
  C   C9        1.0  0.3206514072497342  0.16792611941527014  0.6474134038932959  1.0000
  C   C10       1.0  0.6792927586008732  0.5205161826319938  0.16795535345428894  1.0000
  C   C11       1.0  0.6793054449053317  0.6474012218103412  0.47949266363360715  1.0000
  C   C12       1.0  0.6793458944136077  0.8320756019902902  0.3525873557837612  1.0000
  C   C13       1.0  0.300752322143076  0.35104300408812616  0.8600956710188967  1.0000
  C   C14       1.0  0.3007869281056089  0.5090998734196576  0.6489719759763445  1.0000
  C   C15       1.0  0.3006391402693964  0.13983055902041036  0.49088140289653376  1.0000
  C   C16       1.0  0.6992391499213824  0.6489592107854136  0.13990692990488177  1.0000
  C   C17       1.0  0.6992336930298322  0.49089540425872985  0.3510270573986318  1.0000
  C   C18       1.0  0.6993508742011088  0.8601674801959904  0.5091183697908193  1.0000
  C   C19       1.0  0.319925535933642  0.3294538905082618  0.9357020337150317  1.0000
  C   C20       1.0  0.3199858693870041  0.6062869377096476  0.6705700301999541  1.0000
  C   C21       1.0  0.3198627699621781  0.0642241286331641  0.39368128121108736  1.0000
  C   C22       1.0  0.6800615637139983  0.6705501654367796  0.06430106049695167  1.0000
  C   C23       1.0  0.6800274641660379  0.3937081833628185  0.32942682459113115  1.0000
  C   C24       1.0  0.6801345315409718  0.9357767623877963  0.6063179740679769  1.0000
  C   C25       1.0  0.49917104133531615  0.6197546536403351  0.9214390551991797  1.0000
  C   C26       1.0  0.49913794028296377  0.3016739437046709  0.38021254091387385  1.0000
  C   C27       1.0  0.4991881080653897  0.07860974794461133  0.6983605008344398  1.0000
  C   C28       1.0  0.5008233458264543  0.38024504635784956  0.07856372639686525  1.0000
  C   C29       1.0  0.5008666482072996  0.6983267907523398  0.6197845361570201  1.0000
  C   C30       1.0  0.5008077361867436  0.9213925570989688  0.30164084250452544  1.0000
  C   C31       1.0  0.1800399476188161  0.6249716235609739  0.1458532858719223  1.0000
  C   C32       1.0  0.18010214575465971  0.5208979652811722  0.37500178868588546  1.0000
  C   C33       1.0  0.18009446031962995  0.8541169795956806  0.47911462780817254  1.0000
  C   C34       1.0  0.8199354920287192  0.37504381575486423  0.8541524314459963  1.0000
  C   C35       1.0  0.8199272176739497  0.47908184828491346  0.6249730181448285  1.0000
  C   C36       1.0  0.8198576620796416  0.14587380430026536  0.5208947362768512  1.0000
  C   C37       1.0  0.17508529825145297  0.6466977013743574  0.24311364850266404  1.0000
  C   C38       1.0  0.1751346125446602  0.5964315231234708  0.35329157405911354  1.0000
  C   C39       1.0  0.17514038042865823  0.7568727462778426  0.4035754994064361  1.0000
  C   C40       1.0  0.8249003436181752  0.353311967976204  0.7568896681769886  1.0000
  C   C41       1.0  0.8248976673768879  0.40355751483902946  0.6466985235270712  1.0000
  C   C42       1.0  0.8248598365149603  0.24312879482121735  0.5964277757408141  1.0000
  C   C43       1.0  0.17506635053225492  0.5774346648472531  0.26392425001947817  1.0000
  C   C44       1.0  0.175073148153075  0.6865010748208676  0.4225575968296126  1.0000
  C   C45       1.0  0.175051728016058  0.736042049785219  0.31349153585036044  1.0000
  C   C46       1.0  0.8249484399739304  0.4225613103439657  0.7360694154160825  1.0000
  C   C47       1.0  0.824940185240429  0.31348594168808575  0.5774345222622728  1.0000
  C   C48       1.0  0.8249251700743939  0.26395805348992946  0.6865143443893658  1.0000
  N   N1        1.0  0.3295738012594428  0.57527444437266  0.868814891857518  1.0000
  N   N2        1.0  0.32955358205510527  0.29355564243642374  0.4247034238067258  1.0000
  N   N3        1.0  0.329568568655354  0.1311917754162337  0.706467667226427  1.0000
  N   N4        1.0  0.6704220432675781  0.4247265130715904  0.13118779947753714  1.0000
  N   N5        1.0  0.6704510067557763  0.7064443280634763  0.5752955849597398  1.0000
  N   N6        1.0  0.6704287330994704  0.8688111132737576  0.2935342598495934  1.0000
  N   N7        1.0  0.2987448162129169  0.4500005384601096  0.8999543232991414  1.0000
  N   N8        1.0  0.2987464327672811  0.4499879450038904  0.5500012373338592  1.0000
  N   N9        1.0  0.2987130270476613  0.09999993024604953  0.5500110268350298  1.0000
  N   N10       1.0  0.7012510282909048  0.5500037642524944  0.1000496918367729  1.0000
  N   N11       1.0  0.7012639861465148  0.5500082531871655  0.4499980424785831  1.0000
  N   N12       1.0  0.7012857320728542  0.899999366437399  0.4499886557791937  1.0000
  N   N13       1.0  0.4926709537040068  0.3769879823197258  0.9901855700665365  1.0000
  N   N14       1.0  0.4927252669863762  0.6132142686450877  0.6230348196155333  1.0000
  N   N15       1.0  0.4926511045555486  0.00978157452139783  0.3867569546845075  1.0000
  N   N16       1.0  0.5073161460353361  0.6230148161834421  0.009817614444017325  1.0000
  N   N17       1.0  0.5072793214356041  0.3867819532591384  0.3769597662555313  1.0000
  N   N18       1.0  0.5073476544045478  0.9902193165037615  0.61324230063213  1.0000
  O   O1        1.0  0.19816166178434  0.690844704259824  0.1316903522864266  1.0000
  O   O2        1.0  0.19820240076723655  0.44085825916977944  0.30910653965973  1.0000
  O   O3        1.0  0.19833328433044534  0.8682841224427522  0.5591691835618702  1.0000
  O   O4        1.0  0.8018181504640793  0.3091591049218536  0.8683118210391995  1.0000
  O   O5        1.0  0.8018240470832366  0.5591240028441717  0.6908646504051532  1.0000
  O   O6        1.0  0.801687339026614  0.13170430335160435  0.4408425412821586  1.0000
  O   O7        1.0  0.1692266874764741  0.5420005990002039  0.08554898552132773  1.0000
  O   O8        1.0  0.16927332648477036  0.543569019685485  0.45797555105286847  1.0000
  O   O9        1.0  0.1691958999250645  0.9144027537274085  0.4564490933109153  1.0000
  O   O10       1.0  0.830769156271849  0.4580025601579294  0.9144491684245395  1.0000
  O   O11       1.0  0.8307560369438391  0.4564107938805932  0.5419992557778457  1.0000
  O   O12       1.0  0.8306993837821111  0.0855921344679516  0.5435771788809305  1.0000
