data_image0
_chemical_formula_structural       Cd2H12C14N4O8
_chemical_formula_sum              "Cd2 H12 C14 N4 O8"
_cell_length_a       7.0146385608166435
_cell_length_b       7.868493180103686
_cell_length_c       7.8685230932607855
_cell_angle_alpha    73.44332457352841
_cell_angle_beta     75.09621783347879
_cell_angle_gamma    75.09534460878695

_space_group_name_H-M_alt    "P 1"
_space_group_IT_number       1

loop_
  _space_group_symop_operation_xyz
  'x, y, z'

loop_
  _atom_site_type_symbol
  _atom_site_label
  _atom_site_symmetry_multiplicity
  _atom_site_fract_x
  _atom_site_fract_y
  _atom_site_fract_z
  _atom_site_occupancy
  Cd  Cd1       1.0  0.636281642558238  0.37710303410150187  0.04193649232739463  1.0000
  Cd  Cd2       1.0  0.1362809524762056  0.0419412813858173  0.3771021808852239  1.0000
  H   H1        1.0  0.7048532703065719  0.13042140625959323  0.4510711264920672  1.0000
  H   H2        1.0  0.2048576419825778  0.4510653731543711  0.13042323687190557  1.0000
  H   H3        1.0  0.7441469935857582  0.0636106869995032  0.6635371805107226  1.0000
  H   H4        1.0  0.24414847288387168  0.6635321859003511  0.06361557436505197  1.0000
  H   H5        1.0  0.6638771457989848  0.3688757536638858  0.6426759297280995  1.0000
  H   H6        1.0  0.16387159596808243  0.6426885929783094  0.3688766418324434  1.0000
  H   H7        1.0  0.7117186016965109  0.889375912308793  0.2855953297199462  1.0000
  H   H8        1.0  0.21171219627085244  0.28559764474529453  0.8893733977289031  1.0000
  H   H9        1.0  0.748274231217394  0.7664909620918009  0.8496492403777438  1.0000
  H   H10       1.0  0.24827950999335255  0.8496475623488848  0.7664984882156031  1.0000
  H   H11       1.0  0.46627435153200747  0.9461103606168635  0.003728340447281775  1.0000
  H   H12       1.0  0.9662764665601884  0.0037276193003634986  0.9461092643693121  1.0000
  C   C1        1.0  0.6705588966685597  0.5522702750192892  0.29165695483103343  1.0000
  C   C2        1.0  0.17055213784357195  0.2916619512198437  0.5522681582326212  1.0000
  C   C3        1.0  0.6881857794915474  0.6212740089488874  0.44459937967362617  1.0000
  C   C4        1.0  0.18817786483121782  0.4446071879482787  0.6212735185512342  1.0000
  C   C5        1.0  0.6851002428333999  0.5064181285024532  0.6163309930027765  1.0000
  C   C6        1.0  0.18509593385778086  0.6163380144737045  0.5064240106874038  1.0000
  C   C7        1.0  0.711340356432018  0.7980046053088399  0.4182774691795927  1.0000
  C   C8        1.0  0.2113338297339524  0.418279973493533  0.7980085355049055  1.0000
  C   C9        1.0  0.7303472467568778  0.7310902749410815  0.7313419748167289  1.0000
  C   C10       1.0  0.23034662992638746  0.7313428621494679  0.7310945239609125  1.0000
  C   C11       1.0  0.7342223747149034  0.8560205783806649  0.5632182375635182  1.0000
  C   C12       1.0  0.23421550732353325  0.5632171636856994  0.8560246604568178  1.0000
  C   C13       1.0  0.5125590388982887  0.06479576358651683  0.016624350207934013  1.0000
  C   C14       1.0  0.012561306110079301  0.0166211207142837  0.06479698980146509  1.0000
  N   N1        1.0  0.7745381479373917  0.027268908144137106  0.5418015119734393  1.0000
  N   N2        1.0  0.27453821092844793  0.5417962706840029  0.027272848553089073  1.0000
  N   N3        1.0  0.7062720794160953  0.561074697591657  0.7559226855177811  1.0000
  N   N4        1.0  0.20627024098524063  0.7559274925824012  0.5610808636189474  1.0000
  O   O1        1.0  0.7095157500787294  0.6456504547557103  0.13192780067296186  1.0000
  O   O2        1.0  0.2095118215760792  0.13193401089278467  0.645645207043941  1.0000
  O   O3        1.0  0.6160907849777644  0.3990959965199039  0.3304471047624702  1.0000
  O   O4        1.0  0.116082285812503  0.33045849508651054  0.3990953453795498  1.0000
  O   O5        1.0  0.6398050557124719  0.13840110540792236  0.8897850436837018  1.0000
  O   O6        1.0  0.1398103384086653  0.8897786873946815  0.1384014913529085  1.0000
  O   O7        1.0  0.43488642201108973  0.12293929080482259  0.16020733857848762  1.0000
  O   O8        1.0  0.9348873384601147  0.1602041215620673  0.12294101258639492  1.0000
