data_image0
_chemical_formula_structural       Zn3H24C36N6O12
_chemical_formula_sum              "Zn3 H24 C36 N6 O12"
_cell_length_a       5.710705663184471
_cell_length_b       15.974991563100396
_cell_length_c       15.976614926136282
_cell_angle_alpha    120.06263854424246
_cell_angle_beta     89.99938762000282
_cell_angle_gamma    90.00094519929513

_space_group_name_H-M_alt    "P 1"
_space_group_IT_number       1

loop_
  _space_group_symop_operation_xyz
  'x, y, z'

loop_
  _atom_site_type_symbol
  _atom_site_label
  _atom_site_symmetry_multiplicity
  _atom_site_fract_x
  _atom_site_fract_y
  _atom_site_fract_z
  _atom_site_occupancy
  Zn  Zn1       1.0  0.8512462953092665  2.273900761900181e-06  0.5000009604980349  1.0000
  Zn  Zn2       1.0  0.1827092604565266  0.5000019177291435  4.5653965017002865e-06  1.0000
  Zn  Zn3       1.0  0.517753150442509  0.5000053611924856  0.4999996468247332  1.0000
  H   H1        1.0  0.17872555580336777  0.8778283106887202  0.2532581821955588  1.0000
  H   H2        1.0  0.4100729763526941  0.0010791657026630304  0.39664126728506943  1.0000
  H   H3        1.0  0.9124474709287257  0.7967155056869119  0.3573261217439451  1.0000
  H   H4        1.0  0.7066453835769196  0.6675025806261062  0.21026020267547796  1.0000
  H   H5        1.0  0.511408098282196  0.3752605657033001  0.12242812148065949  1.0000
  H   H6        1.0  0.7413074409696351  0.39568547660738324  0.9991838982043147  1.0000
  H   H7        1.0  0.24516054194414488  0.5605757072146745  0.20308561844195339  1.0000
  H   H8        1.0  0.040787619897599804  0.5423317565722884  0.3321866325526556  1.0000
  H   H9        1.0  0.8462367820651195  0.7472570802401536  0.6244233075732878  1.0000
  H   H10       1.0  0.07658093257916929  0.6037301143928815  0.6042476836986025  1.0000
  H   H11       1.0  0.5801053052258353  0.6423097291210526  0.43924778831423333  1.0000
  H   H12       1.0  0.3753528013040396  0.7895044970199481  0.4571729063282675  1.0000
  H   H13       1.0  0.1787104277588725  0.12216809447610204  0.7467303705980584  1.0000
  H   H14       1.0  0.41004838384238707  0.99892376640031  0.6033516358264563  1.0000
  H   H15       1.0  0.9124533925096188  0.20328424564816328  0.6426705594274438  1.0000
  H   H16       1.0  0.7066531073595924  0.332498408831377  0.7897332294663997  1.0000
  H   H17       1.0  0.5114220105993253  0.6247388010910484  0.8775699725700861  1.0000
  H   H18       1.0  0.7413117299037921  0.6043146747916455  0.0008142583748094027  1.0000
  H   H19       1.0  0.245145185644148  0.43942886324349933  0.7969200745201377  1.0000
  H   H20       1.0  0.0407997919437193  0.457672590992665  0.6678222892165094  1.0000
  H   H21       1.0  0.8462461200855458  0.25274253747193154  0.3755895516405587  1.0000
  H   H22       1.0  0.0765633101679484  0.3962758108650207  0.39576981612809436  1.0000
  H   H23       1.0  0.58014039588857  0.3576901952313492  0.5607424837138737  1.0000
  H   H24       1.0  0.3754198612281314  0.21048859858434804  0.5428096562968959  1.0000
  C   C1        1.0  0.2875901352416506  0.6863543099113231  0.13780025636616222  1.0000
  C   C2        1.0  0.4250833642742791  0.7632279125494466  0.22180032400359542  1.0000
  C   C3        1.0  0.34155227319192244  0.8581032606809417  0.27453817188533225  1.0000
  C   C4        1.0  0.46775078299125283  0.926235731734572  0.3540476460746546  1.0000
  C   C5        1.0  0.7489640323142694  0.8113182109554203  0.3318179026322738  1.0000
  C   C6        1.0  0.6341423437714225  0.7400161259350568  0.2509843305141927  1.0000
  C   C7        1.0  0.6216718820421718  0.451161383084994  0.31365855007800997  1.0000
  C   C8        1.0  0.7584706660534408  0.4583115314647515  0.23676831593883202  1.0000
  C   C9        1.0  0.674215291877978  0.4163021435570968  0.14204561491301593  1.0000
  C   C10       1.0  0.7996984591814995  0.4277769489733672  0.07390237942900062  1.0000
  C   C11       1.0  0.0816528539302084  0.5203814941696477  0.18851982889150778  1.0000
  C   C12       1.0  0.9676103593958771  0.5107133128204354  0.2598153498430306  1.0000
  C   C13       1.0  0.9561920848849113  0.8623629289955873  0.5484245148537498  1.0000
  C   C14       1.0  0.093249527171416  0.7783549162473309  0.5413279327976425  1.0000
  C   C15       1.0  0.0090863989927499  0.7257793982789807  0.583429148258432  1.0000
  C   C16       1.0  0.1347153614970864  0.646169816231378  0.5719857207885892  1.0000
  C   C17       1.0  0.4165651113049834  0.6679960575308715  0.47935890500748707  1.0000
  C   C18       1.0  0.30239888990769265  0.748925980039715  0.4889535374053222  1.0000
  C   C19       1.0  0.2876192852384136  0.3136436760441725  0.8621971407320004  1.0000
  C   C20       1.0  0.4250973282315798  0.2367736262660074  0.7781990392895466  1.0000
  C   C21       1.0  0.3415457406458557  0.14190147485368232  0.7254576875608477  1.0000
  C   C22       1.0  0.46774686141589666  0.07376416298040311  0.6459447474822255  1.0000
  C   C23       1.0  0.7489772380551969  0.18868164026678616  0.6681755704800522  1.0000
  C   C24       1.0  0.6341320380569043  0.2599824804348216  0.7490187347911358  1.0000
  C   C25       1.0  0.6216913930916093  0.548843422543392  0.6863320065888984  1.0000
  C   C26       1.0  0.7585295445698464  0.5416862997093689  0.7632447532411888  1.0000
  C   C27       1.0  0.6742085543149372  0.583703893101763  0.8579689635407346  1.0000
  C   C28       1.0  0.7997101310424101  0.5722144836107007  0.9260996975124128  1.0000
  C   C29       1.0  0.08167226724035  0.47961606887054836  0.8114834970663763  1.0000
  C   C30       1.0  0.9676516459822866  0.4892772462994587  0.7401869661043676  1.0000
  C   C31       1.0  0.9562478721972312  0.13762514011750682  0.4515789955994549  1.0000
  C   C32       1.0  0.09329514151006893  0.22164920830373086  0.45866887576316623  1.0000
  C   C33       1.0  0.0091165520037322  0.2742242837694135  0.41657280442098704  1.0000
  C   C34       1.0  0.13471048278989883  0.35383034830268667  0.4280177055577283  1.0000
  C   C35       1.0  0.41660017100547003  0.33200591920662254  0.52063372435056  1.0000
  C   C36       1.0  0.3024688619180864  0.2510759582141163  0.5110412157874791  1.0000
  N   N1        1.0  0.6674378920270314  0.9027240547109728  0.3826782042961127  1.0000
  N   N2        1.0  0.9994487597128128  0.4799296013351367  0.09723355675234299  1.0000
  N   N3        1.0  0.33438429381750007  0.6172741148490247  0.519856265138216  1.0000
  N   N4        1.0  0.6674394673159582  0.09727413699001622  0.617314121716383  1.0000
  N   N5        1.0  0.9994200964301997  0.5200752806494222  0.9027583152830088  1.0000
  N   N6        1.0  0.3344090077032504  0.3827266607530149  0.4801522977426273  1.0000
  O   O1        1.0  0.3998395368174172  0.6053624035054596  0.08613583666926418  1.0000
  O   O2        1.0  0.0806390463035029  0.7019982237964444  0.12509607806793346  1.0000
  O   O3        1.0  0.7344455243550173  0.4803867423618726  0.39447735292048236  1.0000
  O   O4        1.0  0.4145954495374298  0.4229521582342387  0.2982225709853664  1.0000
  O   O5        1.0  0.06855740520018831  0.9137536989337464  0.5189116347280346  1.0000
  O   O6        1.0  0.7493033507115994  0.8753029087529712  0.5768993598926285  1.0000
  O   O7        1.0  0.39986753336899744  0.39463450457333255  0.9138655575335264  1.0000
  O   O8        1.0  0.0806705624384207  0.29800817492436954  0.8749009162062364  1.0000
  O   O9        1.0  0.7344975783830633  0.5196087467276912  0.6055104044016844  1.0000
  O   O10       1.0  0.41460534895747264  0.5770644388744018  0.7017955281427888  1.0000
  O   O11       1.0  0.06862383635034061  0.086240958607732  0.4811033186373805  1.0000
  O   O12       1.0  0.7493698778291387  0.1246831642174158  0.4230991193411525  1.0000
