data_image0
_chemical_formula_structural       Dy2H10C12O16
_chemical_formula_sum              "Dy2 H10 C12 O16"
_cell_length_a       6.226454272847163
_cell_length_b       8.639766175707035
_cell_length_c       8.777797459269411
_cell_angle_alpha    111.23883731769244
_cell_angle_beta     109.85196784029644
_cell_angle_gamma    91.45095672727625

_space_group_name_H-M_alt    "P 1"
_space_group_IT_number       1

loop_
  _space_group_symop_operation_xyz
  'x, y, z'

loop_
  _atom_site_type_symbol
  _atom_site_label
  _atom_site_symmetry_multiplicity
  _atom_site_fract_x
  _atom_site_fract_y
  _atom_site_fract_z
  _atom_site_occupancy
  Dy  Dy1       1.0  0.6804974595013817  0.6494256806315022  0.818689494538333  1.0000
  Dy  Dy2       1.0  0.31949427218924603  0.35057413507490054  0.18130781918011962  1.0000
  H   H1        1.0  0.19029395542076347  0.7181011291202141  0.7176354777893295  1.0000
  H   H2        1.0  0.8097045363434532  0.28189113484693  0.2823642263588937  1.0000
  H   H3        1.0  0.22798855432881032  0.6441147208931781  0.532852167602087  1.0000
  H   H4        1.0  0.7720097022451072  0.3558838130439809  0.46714512287584853  1.0000
  H   H5        1.0  0.5119251591517795  0.6689413095772708  0.10856112003173732  1.0000
  H   H6        1.0  0.4880733326124371  0.3310509543898733  0.8914385841164787  1.0000
  H   H7        1.0  0.3178280289230813  0.7268309037579997  0.9725353882687813  1.0000
  H   H8        1.0  0.6821650449345285  0.2731601104876233  0.02746257731590871  1.0000
  H   H9        1.0  0.7413592960122628  0.031120624863099508  0.6670873035522149  1.0000
  H   H10       1.0  0.25863976124078664  0.9688741011546186  0.33290542525919165  1.0000
  C   C1        1.0  0.6850417767053258  0.7116044448980433  0.4412764363299076  1.0000
  C   C2        1.0  0.3149627995382859  0.28839913502597625  0.5587264195492807  1.0000
  C   C3        1.0  0.85039188125635  0.8591090643982826  0.47117365804260913  1.0000
  C   C4        1.0  0.14961528206303143  0.1408982671163486  0.5288277170957727  1.0000
  C   C5        1.0  0.8572785895848939  0.0181215635938941  0.5953921708722945  1.0000
  C   C6        1.0  0.1427177379212665  0.9818832684776808  0.40460572713902826  1.0000
  C   C7        1.0  0.9950326834771346  0.8404817054966218  0.37472952019669503  1.0000
  C   C8        1.0  0.004955600505177008  0.15951805096638344  0.6252578313049995  1.0000
  C   C9        1.0  0.00284737239749692  0.6714483071215299  0.24318325533441515  1.0000
  C   C10       1.0  0.9971506661156654  0.3285565298062708  0.756816194222985  1.0000
  C   C11       1.0  0.8935964941562632  0.039301462607952004  0.010090146837882289  1.0000
  C   C12       1.0  0.10642553530303192  0.9607109226643332  0.9899222650572314  1.0000
  O   O1        1.0  0.5535819906808259  0.6204426065093716  0.28251345069843853  1.0000
  O   O2        1.0  0.44642407422664837  0.37956727300635157  0.717491972618852  1.0000
  O   O3        1.0  0.6824236987877796  0.6838390876958585  0.5721548772501706  1.0000
  O   O4        1.0  0.3175714763287729  0.3161607789987785  0.4278512554976004  1.0000
  O   O5        1.0  0.30526837736988455  0.6869056877394542  0.6634487530865059  1.0000
  O   O6        1.0  0.6947269986778792  0.31308784294390796  0.3365506478320556  1.0000
  O   O7        1.0  0.4695047323547713  0.6879154864941912  0.9976962523911936  1.0000
  O   O8        1.0  0.5304872259613874  0.31207804273188344  0.002301188622659812  1.0000
  O   O9        1.0  0.11115015018234686  0.5701239645348223  0.3047988922270619  1.0000
  O   O10       1.0  0.8888483496900008  0.42989726638443676  0.695207559139547  1.0000
  O   O11       1.0  0.9115503291329292  0.6435444314233937  0.08211975278403845  1.0000
  O   O12       1.0  0.088444199129448  0.3564528163726592  0.9178716347392637  1.0000
  O   O13       1.0  0.7025386498138176  0.9431831191816757  0.9404389091518297  1.0000
  O   O14       1.0  0.2974647483458668  0.056815445834452305  0.0595653223391892  1.0000
  O   O15       1.0  0.06847423766831187  0.8008490615732244  0.9038758307542735  1.0000
  O   O16       1.0  0.9315413213420243  0.1991431684045466  0.096127956980304  1.0000
