data_image0
_chemical_formula_structural       Cd6H52C40S16N24
_chemical_formula_sum              "Cd6 H52 C40 S16 N24"
_cell_length_a       9.660155513073983
_cell_length_b       12.10612619904195
_cell_length_c       14.510133604496662
_cell_angle_alpha    90.00018611882506
_cell_angle_beta     98.83427465929337
_cell_angle_gamma    90.0002066351873

_space_group_name_H-M_alt    "P 1"
_space_group_IT_number       1

loop_
  _space_group_symop_operation_xyz
  'x, y, z'

loop_
  _atom_site_type_symbol
  _atom_site_label
  _atom_site_symmetry_multiplicity
  _atom_site_fract_x
  _atom_site_fract_y
  _atom_site_fract_z
  _atom_site_occupancy
  Cd  Cd1       1.0  0.3691343165998333  0.6329850537591498  0.868438806523237  1.0000
  Cd  Cd2       1.0  0.1308665240655742  0.13298202638729612  0.6315619454355359  1.0000
  Cd  Cd3       1.0  0.6308647178397351  0.36701782544238887  0.1315609386718251  1.0000
  Cd  Cd4       1.0  0.8691346036637955  0.8670167226786988  0.3684387054688969  1.0000
  Cd  Cd5       1.0  0.5000005676899734  0.499999787544347  0.4999989474991225  1.0000
  Cd  Cd6       1.0  0.9999999638716942  6.150614594999996e-07  5.203808796705947e-07  1.0000
  H   H1        1.0  0.1659000485089024  0.6604654961612512  0.6672167809681753  1.0000
  H   H2        1.0  0.3340988472605205  0.1604654914297754  0.8327817764529898  1.0000
  H   H3        1.0  0.8340979383199426  0.3395357309824334  0.3327828558546174  1.0000
  H   H4        1.0  0.665901238598778  0.8395332576304714  0.16721669915121143  1.0000
  H   H5        1.0  0.110755317619315  0.7596864045092391  0.7434629208685097  1.0000
  H   H6        1.0  0.3892451515696393  0.25968460927311543  0.7565346887687313  1.0000
  H   H7        1.0  0.8892437168159119  0.2403148226361722  0.2565368243238808  1.0000
  H   H8        1.0  0.6107538866832769  0.7403141397854114  0.24346367846587927  1.0000
  H   H9        1.0  0.8722376227278517  0.7294820115873861  0.680889479964293  1.0000
  H   H10       1.0  0.6277616000027564  0.2294821848563018  0.819109821678282  1.0000
  H   H11       1.0  0.1277603660130993  0.2705192155549555  0.3191094678816172  1.0000
  H   H12       1.0  0.37223638873167897  0.7705165642018416  0.1808891261636063  1.0000
  H   H13       1.0  0.9321369882941751  0.6447843162166792  0.5947390026095932  1.0000
  H   H14       1.0  0.5678607412401746  0.14478382683014246  0.9052599159623045  1.0000
  H   H15       1.0  0.0678609985324954  0.3552160848989417  0.4052606342118565  1.0000
  H   H16       1.0  0.43213934844550306  0.8552157482554891  0.09473718168947443  1.0000
  H   H17       1.0  0.1375617082941005  0.4272301242431665  0.8217290306542395  1.0000
  H   H18       1.0  0.36243754137819206  0.9272274344300159  0.6782709725675033  1.0000
  H   H19       1.0  0.8624383737475084  0.572771102903957  0.1782708229077414  1.0000
  H   H20       1.0  0.6375635920874815  0.07277131463195731  0.3217276114062884  1.0000
  H   H21       1.0  0.2025518660517207  0.46840504011706235  0.7198180747655698  1.0000
  H   H22       1.0  0.29744760406560283  0.9684033865040221  0.780180684046684  1.0000
  H   H23       1.0  0.7974471702956124  0.5315961870270058  0.280180981449938  1.0000
  H   H24       1.0  0.7025535313100024  0.03159453652854441  0.21981721094888945  1.0000
  H   H25       1.0  0.9792447832662676  0.45235377714052316  0.628097463579401  1.0000
  H   H26       1.0  0.5207535186712918  0.9523525098180768  0.8719016551847077  1.0000
  H   H27       1.0  0.0207532054746835  0.5476474500018186  0.3719014842665089  1.0000
  H   H28       1.0  0.4792465671880066  0.04764623924216949  0.1280968204194863  1.0000
  H   H29       1.0  0.9215609927738841  0.38867785964517043  0.7260819431652266  1.0000
  H   H30       1.0  0.57843697225902  0.8886772024334347  0.7739176580566751  1.0000
  H   H31       1.0  0.0784369902285746  0.611322541473129  0.2739190716099885  1.0000
  H   H32       1.0  0.4215631116881724  0.11132154662815451  0.22608150652440887  1.0000
  H   H33       1.0  0.030394590340705498  0.6983729779723405  0.8841984231972123  1.0000
  H   H34       1.0  0.46960659814786254  0.19836921338261962  0.6158011628792437  1.0000
  H   H35       1.0  0.9696054897866233  0.3016274231480622  0.11580211934030872  1.0000
  H   H36       1.0  0.5303945314936058  0.801629535682032  0.38419879904831333  1.0000
  H   H37       1.0  0.06068262573942461  0.5600745221177165  0.9228231877411235  1.0000
  H   H38       1.0  0.4393167875666536  0.0600713456072484  0.5771758414233474  1.0000
  H   H39       1.0  0.9393174562978361  0.4399250529732797  0.07717666581817183  1.0000
  H   H40       1.0  0.5606832982948121  0.9399282294810617  0.4228226341821967  1.0000
  H   H41       1.0  0.8381974268510604  0.5045440967717029  0.8422756744152053  1.0000
  H   H42       1.0  0.661801656268196  0.0045396085505232005  0.6577243840020872  1.0000
  H   H43       1.0  0.1618005580722013  0.4954596084575158  0.1577246513884845  1.0000
  H   H44       1.0  0.3381984276768222  0.9954583144830026  0.3422747805776538  1.0000
  H   H45       1.0  0.8017444954105599  0.6470321868550214  0.8184017695258348  1.0000
  H   H46       1.0  0.6982563887631557  0.1470295488711244  0.6815974814418837  1.0000
  H   H47       1.0  0.1982555847211174  0.35296986632150856  0.18159877301436475  1.0000
  H   H48       1.0  0.3017447447003434  0.8529683741627778  0.3184011025305722  1.0000
  H   H49       1.0  0.7830528539722721  0.5415613206293771  0.6790163166853205  1.0000
  H   H50       1.0  0.7169443286919801  0.04156175824891052  0.8209836450587317  1.0000
  H   H51       1.0  0.2169451309422925  0.4584390804875867  0.32098400911301184  1.0000
  H   H52       1.0  0.28305470765100443  0.9584378168390234  0.1790154111540971  1.0000
  C   C1        1.0  0.2753393192891807  0.8930897256423123  0.9370192008685123  1.0000
  C   C2        1.0  0.2246618536246743  0.3930833969990317  0.5629781524514429  1.0000
  C   C3        1.0  0.7246597208888802  0.10691397958326831  0.06297847739724463  1.0000
  C   C4        1.0  0.7753403293507902  0.606912047951056  0.4370198509096995  1.0000
  C   C5        1.0  0.4804829762588412  0.7065682226924682  0.6645606413806321  1.0000
  C   C6        1.0  0.0195234895616849  0.2065681476819066  0.8354408910831739  1.0000
  C   C7        1.0  0.5195150067371089  0.2934297003416333  0.33544037339056143  1.0000
  C   C8        1.0  0.9804776324357152  0.7934322534442443  0.16456182675457853  1.0000
  C   C9        1.0  0.662253614880548  0.5725989375240204  0.9930705462298733  1.0000
  C   C10       1.0  0.83775002817233  0.07259602030881498  0.5069260325293072  1.0000
  C   C11       1.0  0.3377496214419651  0.42739815947989973  0.006925498572904602  1.0000
  C   C12       1.0  0.1622542519475587  0.9274068588959641  0.4930714986062057  1.0000
  C   C13       1.0  0.5223809936947958  0.4438130394344383  0.7433900729350569  1.0000
  C   C14       1.0  0.9776151700122213  0.9438126391891546  0.75660811241422  1.0000
  C   C15       1.0  0.4776170007824662  0.5561881877038813  0.25660680798021224  1.0000
  C   C16       1.0  0.022384912027213502  0.056187761929905385  0.2433917411464179  1.0000
  C   C17       1.0  0.0933319523567775  0.6754075101144752  0.7168846182301252  1.0000
  C   C18       1.0  0.4066670220214945  0.17540752081590227  0.7831139876524846  1.0000
  C   C19       1.0  0.9066670839883815  0.3245928910015223  0.2831144379840397  1.0000
  C   C20       1.0  0.5933341076243224  0.8245928803048841  0.21688597427774434  1.0000
  C   C21       1.0  0.9403550082268028  0.659904918120766  0.6697732764174874  1.0000
  C   C22       1.0  0.5596469931948534  0.1599049384231321  0.830225435697372  1.0000
  C   C23       1.0  0.059644028116181906  0.34009465696716745  0.3302257797953346  1.0000
  C   C24       1.0  0.4403551878750349  0.8400929846124968  0.1697732566446746  1.0000
  C   C25       1.0  0.11889230241789762  0.4824986913561985  0.7613289588860754  1.0000
  C   C26       1.0  0.3811072418452639  0.9824971169585057  0.7386698456362454  1.0000
  C   C27       1.0  0.8811067339294354  0.5175025357878625  0.2386700973294253  1.0000
  C   C28       1.0  0.6188938916225837  0.0175024581315313  0.2613287383388894  1.0000
  C   C29       1.0  0.9745191196804515  0.46110898732785444  0.702724534213914  1.0000
  C   C30       1.0  0.5254802721033941  0.9611090946153668  0.7972760992715565  1.0000
  C   C31       1.0  0.025479912838328303  0.538890587762765  0.29727589995267323  1.0000
  C   C32       1.0  0.47451876232748447  0.0388904804739099  0.20272364591814807  1.0000
  C   C33       1.0  0.0267830630068602  0.6119356999470326  0.8616195041366199  1.0000
  C   C34       1.0  0.4732166231356487  0.11193203382889999  0.6383796932284014  1.0000
  C   C35       1.0  0.9732170190347489  0.38806552720009097  0.1383803494253613  1.0000
  C   C36       1.0  0.5267824132051687  0.8880667152309698  0.3616193629830775  1.0000
  C   C37       1.0  0.8775199662675065  0.5804792064447711  0.8140921877651623  1.0000
  C   C38       1.0  0.6224795182591977  0.08047719289813672  0.6859074279595917  1.0000
  C   C39       1.0  0.12247907007982663  0.41952202069929  0.18590686845034557  1.0000
  C   C40       1.0  0.37752056378023013  0.9195232082209231  0.3140924256010535  1.0000
  S   S1        1.0  0.2653697065218595  0.022077872134239795  0.9689788894592015  1.0000
  S   S2        1.0  0.2346274174025709  0.5220717615375322  0.5310177327961583  1.0000
  S   S3        1.0  0.7346293279133604  0.9779233550111642  0.03102085573318188  1.0000
  S   S4        1.0  0.7653716265779665  0.47792368340471114  0.4689785675024468  1.0000
  S   S5        1.0  0.5718984444498288  0.7055116964741613  0.5783830954788698  1.0000
  S   S6        1.0  0.9281058902078244  0.20551230916367305  0.9216166702694721  1.0000
  S   S7        1.0  0.42810163949736346  0.29448705258742786  0.4216160691022068  1.0000
  S   S8        1.0  0.07189418992384589  0.7944897440128571  0.07838387227072732  1.0000
  S   S9        1.0  0.6201463410407656  0.6986928226324026  0.9600597374443254  1.0000
  S   S10       1.0  0.8798579577433827  0.19869345965055635  0.5399400061884023  1.0000
  S   S11       1.0  0.3798568933783315  0.3013075784851154  0.039936996340692595  1.0000
  S   S12       1.0  0.12014526902947152  0.8013077675003899  0.4600594835054751  1.0000
  S   S13       1.0  0.6120741739927809  0.3944743600802454  0.6653037068457124  1.0000
  S   S14       1.0  0.8879217282439101  0.8944773099995731  0.8346950074657543  1.0000
  S   S15       1.0  0.38792172144099624  0.6055243889731159  0.334694335280112  1.0000
  S   S16       1.0  0.11207835188559302  0.1055239171488935  0.16530553507310228  1.0000
  N   N1        1.0  0.2826887853159477  0.8004704664976998  0.9129656067636847  1.0000
  N   N2        1.0  0.21731713454291682  0.3004642104991362  0.5870333659661  1.0000
  N   N3        1.0  0.7173102586863181  0.19953323872519485  0.0870306935483143  1.0000
  N   N4        1.0  0.7826881874274819  0.6995312344587957  0.4129663404575867  1.0000
  N   N5        1.0  0.416156541576953  0.7122207627478973  0.7274813443830581  1.0000
  N   N6        1.0  0.0838499539766531  0.21221897566936576  0.7725202064108532  1.0000
  N   N7        1.0  0.5838435500230048  0.28777963836446224  0.27251506429318084  1.0000
  N   N8        1.0  0.916152221363433  0.7877814254544759  0.2274805528658491  1.0000
  N   N9        1.0  0.6929954971176785  0.4806568478704421  0.01561835179031587  1.0000
  N   N10       1.0  0.8070107097918965  0.9806593223731002  0.484381622162303  1.0000
  N   N11       1.0  0.3070087829956947  0.5193435532501384  0.9843791793411755  1.0000
  N   N12       1.0  0.1929925188952311  0.0193427308045742  0.5156171785560346  1.0000
  N   N13       1.0  0.4577703940889252  0.4758992923231276  0.8007376950722007  1.0000
  N   N14       1.0  0.042227022153845405  0.9758974135344973  0.6992601823297238  1.0000
  N   N15       1.0  0.5422265470499924  0.5241035868736289  0.19926114440679044  1.0000
  N   N16       1.0  0.9577730598812411  0.024101335528435214  0.3007396712282358  1.0000
  N   N17       1.0  0.12821557838692846  0.5976132171050993  0.7957819360543326  1.0000
  N   N18       1.0  0.3717840324081578  0.09761034145721229  0.7042172148598667  1.0000
  N   N19       1.0  0.871784505568954  0.4023888360687523  0.20421722853210872  1.0000
  N   N20       1.0  0.6282170972354778  0.9023892336355105  0.29578274706902624  1.0000
  N   N21       1.0  0.8834938971354164  0.5598580524503874  0.7125696214139411  1.0000
  N   N22       1.0  0.6165054789103054  0.0598580697141244  0.7874299274335215  1.0000
  N   N23       1.0  0.1165051353855304  0.44014234866829594  0.2874308127539892  1.0000
  N   N24       1.0  0.383493559342611  0.9401406793444025  0.212568439801089  1.0000
