data_image0
_chemical_formula_structural       Cu2B4H64C28S8O8F16
_chemical_formula_sum              "Cu2 B4 H64 C28 S8 O8 F16"
_cell_length_a       7.682538343841395
_cell_length_b       10.905916229
_cell_length_c       15.094
_cell_angle_alpha    90.0
_cell_angle_beta     96.14103019083225
_cell_angle_gamma    90.0

_space_group_name_H-M_alt    "P 1"
_space_group_IT_number       1

loop_
  _space_group_symop_operation_xyz
  'x, y, z'

loop_
  _atom_site_type_symbol
  _atom_site_label
  _atom_site_symmetry_multiplicity
  _atom_site_fract_x
  _atom_site_fract_y
  _atom_site_fract_z
  _atom_site_occupancy
  Cu  Cu1       1.0  1.3091656469999995e-06  0.500000172887809  0.999998083737587  1.0000
  Cu  Cu2       1.0  0.5000017800725303  5.5016010307e-06  0.5000003619285209  1.0000
  B   B1        1.0  0.7615534386008986  0.2502137319507156  0.10118796676873387  1.0000
  B   B2        1.0  0.7384558291136185  0.750215738705542  0.39881797046809436  1.0000
  B   B3        1.0  0.2384488123785076  0.7497829460908819  0.8988146733507134  1.0000
  B   B4        1.0  0.26154511270014064  0.2497919425381241  0.6011839358541379  1.0000
  H   H1        1.0  0.9997600553349526  0.4778993246015304  0.3611899299030696  1.0000
  H   H2        1.0  0.500238739054403  0.9779013313563567  0.138808149411318  1.0000
  H   H3        1.0  0.0002304131536448  0.5220964365065655  0.638805443526536  1.0000
  H   H4        1.0  0.4997582752624296  0.0221008482862786  0.8611908930043625  1.0000
  H   H5        1.0  0.2132447553672847  0.4368197866156578  0.3374025954491272  1.0000
  H   H6        1.0  0.28675440637395155  0.9368153748359376  0.16259232379552196  1.0000
  H   H7        1.0  0.786744403955673  0.5631805591599672  0.6625900566385423  1.0000
  H   H8        1.0  0.7132465354398079  0.0631840540061788  0.837404944922362  1.0000
  H   H9        1.0  0.0284102036775735  0.4027217803416719  0.2589187007467899  1.0000
  H   H10       1.0  0.4715889580636627  0.902723787096491  0.24107555598295244  1.0000
  H   H11       1.0  0.97157633731409  0.5972748976999327  0.7410757963209845  1.0000
  H   H12       1.0  0.5284106745844568  0.09727747561263561  0.7589216414526232  1.0000
  H   H13       1.0  0.16281569469449408  0.6648528970651029  0.30888364602181173  1.0000
  H   H14       1.0  0.33717823038416117  0.1648518072437852  0.1911143006681328  1.0000
  H   H15       1.0  0.8371760829597505  0.33514194710948436  0.6911137862348156  1.0000
  H   H16       1.0  0.6628200930983112  0.8351494554653415  0.8088841505149488  1.0000
  H   H17       1.0  0.9657649510127795  0.6316039712173378  0.24151662869086718  1.0000
  H   H18       1.0  0.5342299158796422  0.1316037983295217  0.2584799117467753  1.0000
  H   H19       1.0  0.034224208310177986  0.3684009592258164  0.7584780109415163  1.0000
  H   H20       1.0  0.46576971676847717  0.8683974643796049  0.7415166231738937  1.0000
  H   H21       1.0  0.4662279247444729  0.6183918763346696  0.2672126995823092  1.0000
  H   H22       1.0  0.03376730949982229  0.11839262038036223  0.2327899559942921  1.0000
  H   H23       1.0  0.5337703987379996  0.3816075525074539  0.7327884016603932  1.0000
  H   H24       1.0  0.9662349414795839  0.8816031407277337  0.7672100340655277  1.0000
  H   H25       1.0  0.4201531490093231  0.4616696015518258  0.23606545814277513  1.0000
  H   H26       1.0  0.0798473218975602  0.9616688575061334  0.2639341699885307  1.0000
  H   H27       1.0  0.5798491019700904  0.5383298272902977  0.7639345319170443  1.0000
  H   H28       1.0  0.9201614749100813  0.0383314882694918  0.7360681640275571  1.0000
  H   H29       1.0  0.501609435485463  0.506600260261358  0.0818230231439543  1.0000
  H   H30       1.0  0.9983959047321205  0.0065945857725112  0.41818005018631504  1.0000
  H   H31       1.0  0.49839936132217827  0.49339825164724976  0.9181793108721266  1.0000
  H   H32       1.0  0.0016089645785797  0.9934039261360966  0.5818214074679345  1.0000
  H   H33       1.0  0.6772196060354929  0.5213894807737205  0.16544200203929188  1.0000
  H   H34       1.0  0.8227818066851569  0.0213865570853926  0.33456151995896016  1.0000
  H   H35       1.0  0.3227826449439205  0.4786126988689148  0.8345613005950625  1.0000
  H   H36       1.0  0.1772256809568376  0.9786128717567308  0.6654394177449987  1.0000
  H   H37       1.0  0.4589319446009269  0.7396856743268502  0.0833292898374438  1.0000
  H   H38       1.0  0.04107245380289019  0.23968183370501353  0.4166751897451276  1.0000
  H   H39       1.0  0.5410703063784792  0.260311920648256  0.9166713627372829  1.0000
  H   H40       1.0  0.9589324155078103  0.7603175951371028  0.5833249428793081  1.0000
  H   H41       1.0  0.6470053720981284  0.74914292650395  0.1655843428546504  1.0000
  H   H42       1.0  0.8530025864507493  0.24913908588211342  0.33441821052533527  1.0000
  H   H43       1.0  0.3529981880469322  0.250857419271675  0.8344157184874772  1.0000
  H   H44       1.0  0.1470035920255981  0.7508585090929927  0.6655813308665088  1.0000
  H   H45       1.0  0.6411848216372957  0.9063465913772504  0.011465248661252793  1.0000
  H   H46       1.0  0.8588074269238319  0.4063510031569706  0.4885337992714013  1.0000
  H   H47       1.0  0.35882004767341147  0.0936510035978557  0.9885362089929969  1.0000
  H   H48       1.0  0.14118565989605966  0.5936557611531939  0.511465691812262  1.0000
  H   H49       1.0  0.8252587480868456  0.869484947517286  0.9535846860737818  1.0000
  H   H50       1.0  0.6747374279712233  0.36948569156297856  0.5464145757057962  1.0000
  H   H51       1.0  0.1747461212238619  0.1305190659923596  0.0464154465506539  1.0000
  H   H52       1.0  0.3252674413394843  0.6305201558136774  0.4535888694931741  1.0000
  H   H53       1.0  0.9208985351686181  0.9969020274600879  0.0879156366325233  1.0000
  H   H54       1.0  0.5790937133925098  0.4969027715057805  0.4120840738150378  1.0000
  H   H55       1.0  0.07909847914821458  0.0030992352490387003  0.9120887059024125  1.0000
  H   H56       1.0  0.4209006825930217  0.503101242003865  0.5879154885509266  1.0000
  H   H57       1.0  0.8417961285234625  0.8854432582493317  0.1590319640012439  1.0000
  H   H58       1.0  0.6581974292033053  0.3854412514945054  0.3409678177286253  1.0000
  H   H59       1.0  0.15819957662771594  0.114558004459802  0.8409716447364772  1.0000
  H   H60       1.0  0.3418008942791673  0.6145590942811197  0.6590319584842703  1.0000
  H   H61       1.0  0.01765148040112049  0.8473382525557298  0.0959703745769644  1.0000
  H   H62       1.0  0.4823385171805937  0.3473389966014224  0.4040300083256838  1.0000
  H   H63       1.0  0.9823429155844181  0.1526611762863936  0.9040344879082551  1.0000
  H   H64       1.0  0.5176637337988126  0.652660432240701  0.5959726317937637  1.0000
  C   C1        1.0  0.0852725043333891  0.4701439010108857  0.3077249925229495  1.0000
  C   C2        1.0  0.4147266574078543  0.9701449908322033  0.19226992672169976  1.0000
  C   C3        1.0  0.9147179641552157  0.5298527770307189  0.6922690558768423  1.0000
  C   C4        1.0  0.5852755935715592  0.0298544380099131  0.8077294008232128  1.0000
  C   C5        1.0  0.0960089717938644  0.5952576439875372  0.2645981702299451  1.0000
  C   C6        1.0  0.4039875716160849  0.0952565541662196  0.2353979314798949  1.0000
  C   C7        1.0  0.9039788783634461  0.4047436187215895  0.7353977231499441  1.0000
  C   C8        1.0  0.5960120610320343  0.9047428746758968  0.764598603440774  1.0000
  C   C9        1.0  0.4281914260739866  0.555867097519041  0.21120102472082178  1.0000
  C   C10       1.0  0.07180773566724949  0.0558669246312249  0.288799194643083  1.0000
  C   C11       1.0  0.5718095157397796  0.44413233132308255  0.7887995565715968  1.0000
  C   C12       1.0  0.9281945153121638  0.9441343380779018  0.7112027829614574  1.0000
  C   C13       1.0  0.5523291309315963  0.5631878946280154  0.13907781844427086  1.0000
  C   C14       1.0  0.9476735909546932  0.0631840540061788  0.3609244498064753  1.0000
  C   C15       1.0  0.4476731200478169  0.4368133680811184  0.8609221716155486  1.0000
  C   C16       1.0  0.0523325875216543  0.9368153748359376  0.639078404159896  1.0000
  C   C17       1.0  0.5814148640823618  0.6949640764565999  0.1105283320005555  1.0000
  C   C18       1.0  0.918591785300876  0.1949593189012546  0.3894734875822152  1.0000
  C   C19       1.0  0.4185873868970517  0.3050362693190252  0.8894716580592643  1.0000
  C   C20       1.0  0.0814143931754785  0.8050410268743704  0.6105273788394355  1.0000
  C   C21       1.0  0.7676423680191033  0.8584679914471068  0.01654533886787848  1.0000
  C   C22       1.0  0.7323511897076711  0.3584705693598096  0.4834524553172699  1.0000
  C   C23       1.0  0.232357264629016  0.14153327126202703  0.9834564961720458  1.0000
  C   C24       1.0  0.2676497521060952  0.6415343610833446  0.5165461384304278  1.0000
  C   C25       1.0  0.8947060580948756  0.8987589666181393  0.09498492012939859  1.0000
  C   C26       1.0  0.6052861904662521  0.39875971066383203  0.40501479031816245  1.0000
  C   C27       1.0  0.10528964705630978  0.1012377114234653  0.9050173635785013  1.0000
  C   C28       1.0  0.3947095146849264  0.6012433859123121  0.5949848433301169  1.0000
  S   S1        1.0  0.20961051153479096  0.5979176680873834  0.16548681460738374  1.0000
  S   S2        1.0  0.2903886502064452  0.09791841213307612  0.3345120797267072  1.0000
  S   S3        1.0  0.7903825752851006  0.4020799268877298  0.8345113514464655  1.0000
  S   S4        1.0  0.7096188374355421  0.9020856013765767  0.6654875329474448  1.0000
  S   S5        1.0  0.7134311277958574  0.6965109432806003  0.018599572380864498  1.0000
  S   S6        1.0  0.7865650482622115  0.1965116873262929  0.4814016769434346  1.0000
  S   S7        1.0  0.2865658865209752  0.3034894024950248  0.9813994700348161  1.0000
  S   S8        1.0  0.21343851188284896  0.8034923261833526  0.5185977218837862  1.0000
  O   O1        1.0  0.1512269603986596  0.4812048698893392  0.11210252914732168  1.0000
  O   O2        1.0  0.3487748196738707  0.9812050427771553  0.38789650775137824  1.0000
  O   O3        1.0  0.8487752905807537  0.5187908912187568  0.8878948108528704  1.0000
  O   O4        1.0  0.6512313588024838  0.018800804599507604  0.6121036961553656  1.0000
  O   O5        1.0  0.8858482433359924  0.6345555801719698  0.05775424719022479  1.0000
  O   O6        1.0  0.6141505510533634  0.13455815808467264  0.44224118206453505  1.0000
  O   O7        1.0  0.11415269847777407  0.3654438486701467  0.9422410339829452  1.0000
  O   O8        1.0  0.3858490815947562  0.865450440092502  0.5577560153710408  1.0000
  F   F1        1.0  0.6501185680036272  0.15442902408525333  0.0651238005085872  1.0000
  F   F2        1.0  0.8498841538826695  0.6544319477735812  0.4348837678614145  1.0000
  F   F3        1.0  0.3498771371475584  0.8455722386238805  0.9348798082291268  1.0000
  F   F4        1.0  0.150116787931097  0.34557756733709516  0.5651168134310038  1.0000
  F   F5        1.0  0.7124112877578455  0.2860942569596574  0.1853898099921309  1.0000
  F   F6        1.0  0.7875966707910322  0.7860925959804561  0.31461605596238934  1.0000
  F   F7        1.0  0.2875844173933331  0.713912507350507  0.8146091611412415  1.0000
  F   F8        1.0  0.21240427102273424  0.2139178360637288  0.6853878379045639  1.0000
  F   F9        1.0  0.93794125354448  0.20872065695380124  0.1119925230782428  1.0000
  F   F10       1.0  0.5620693233356844  0.708723580642129  0.3880161355005142  1.0000
  F   F11       1.0  0.0620570699379925  0.7912659348192365  0.8880118907389942  1.0000
  F   F12       1.0  0.43793685514066266  0.29128318366803546  0.6119887060105781  1.0000
  F   F13       1.0  0.7463644987793643  0.35121487452973105  0.04152035050966419  1.0000
  F   F14       1.0  0.7536434597695134  0.8512232998190968  0.4584815403554146  1.0000
  F   F15       1.0  0.253650843856505  0.6487790527113547  0.9584816774030571  1.0000
  F   F16       1.0  0.2463548637129591  0.1487843814245764  0.5415208859171017  1.0000
