data_image0
_chemical_formula_structural       Cu4H28C20S4N4O20
_chemical_formula_sum              "Cu4 H28 C20 S4 N4 O20"
_cell_length_a       5.65882819701856
_cell_length_b       7.667246274022946
_cell_length_c       18.0820172620362
_cell_angle_alpha    90.00011386615422
_cell_angle_beta     89.99983146383902
_cell_angle_gamma    89.99974211162748

_space_group_name_H-M_alt    "P 1"
_space_group_IT_number       1

loop_
  _space_group_symop_operation_xyz
  'x, y, z'

loop_
  _atom_site_type_symbol
  _atom_site_label
  _atom_site_symmetry_multiplicity
  _atom_site_fract_x
  _atom_site_fract_y
  _atom_site_fract_z
  _atom_site_occupancy
  Cu  Cu1       1.0  0.874108596601438  0.651739864405215  0.5936748367697717  1.0000
  Cu  Cu2       1.0  0.6259000907341347  0.3482506900902606  0.09366422702426999  1.0000
  Cu  Cu3       1.0  0.3741044425367123  0.8482579857865102  0.4063348382673198  1.0000
  Cu  Cu4       1.0  0.12589697510690462  0.15173706286933  0.9063231158501707  1.0000
  H   H1        1.0  0.6601038463146695  0.8394571245202088  0.686469397895962  1.0000
  H   H2        1.0  0.839914429843944  0.16054171027022326  0.1864568131377666  1.0000
  H   H3        1.0  0.16009301778504445  0.660544043582817  0.31354099514004463  1.0000
  H   H4        1.0  0.33988997520317815  0.33946620128280347  0.8135314708575263  1.0000
  H   H5        1.0  0.9186264105229328  0.22780260482211645  0.550661749181195  1.0000
  H   H6        1.0  0.5813668424448721  0.7721994771320766  0.050656491976127385  1.0000
  H   H7        1.0  0.41864522425966305  0.27219330753322873  0.4493419591176817  1.0000
  H   H8        1.0  0.0813557233368343  0.7278006476975987  0.9493423480032633  1.0000
  H   H9        1.0  0.0568497809823896  0.021829126881186805  0.5329532442579746  1.0000
  H   H10       1.0  0.4431486483234012  0.9781732214657025  0.0329506389902932  1.0000
  H   H11       1.0  0.5568568580902992  0.4781732017345277  0.46704963684177153  1.0000
  H   H12       1.0  0.9431283102434023  0.5218270083686463  0.9670495812305756  1.0000
  H   H13       1.0  0.963088147210215  0.9435580486478585  0.7542161889517656  1.0000
  H   H14       1.0  0.5369276213893386  0.056452856455649694  0.25420928439348234  1.0000
  H   H15       1.0  0.4630804623824788  0.5564525490757786  0.2457895462550113  1.0000
  H   H16       1.0  0.036899736656018006  0.4435625807281624  0.7457847635111747  1.0000
  H   H17       1.0  0.6070088939392094  0.0981713593125519  0.6228191423712417  1.0000
  H   H18       1.0  0.8930065435043774  0.9018245550094264  0.12280600669309649  1.0000
  H   H19       1.0  0.10700826527496332  0.4018268903157177  0.3771914425651062  1.0000
  H   H20       1.0  0.3929757992936589  0.5981732325398994  0.8771865096824172  1.0000
  H   H21       1.0  0.45096461928558546  0.5212387978415691  0.6365871948825086  1.0000
  H   H22       1.0  0.049043280406294805  0.47876405843621933  0.13658393878554156  1.0000
  H   H23       1.0  0.9509604552564214  0.9787666230538435  0.3634130193094975  1.0000
  H   H24       1.0  0.5490364484882947  0.0212461215606083  0.8634128649480957  1.0000
  H   H25       1.0  0.6214381661280157  0.407106389940381  0.6838013950382233  1.0000
  H   H26       1.0  0.878553631898207  0.5928950403271357  0.1837935524312755  1.0000
  H   H27       1.0  0.1214559963328554  0.0928892033139519  0.3162036484111396  1.0000
  H   H28       1.0  0.3785640777274183  0.9071040993182534  0.81620118721208  1.0000
  C   C1        1.0  0.611497221332563  0.9153263084516894  0.5321382151934627  1.0000
  C   C2        1.0  0.8884909326253095  0.08467829120866813  0.032128850188563284  1.0000
  C   C3        1.0  0.11152228008248244  0.5846867589492317  0.46786779101538656  1.0000
  C   C4        1.0  0.38847846508536327  0.41531250406329434  0.9678610554583499  1.0000
  C   C5        1.0  0.20180946020242635  0.7777903930120045  0.6949105327165339  1.0000
  C   C6        1.0  0.29819603501469066  0.222206227880072  0.19490411308905914  1.0000
  C   C7        1.0  0.7018110357403488  0.7222158537978416  0.3050915326345631  1.0000
  C   C8        1.0  0.7981865053857078  0.27778747521050207  0.8050891803729525  1.0000
  C   C9        1.0  0.956219271076293  0.09828543311945741  0.5733107042447543  1.0000
  C   C10       1.0  0.5437843373002594  0.9017141513262601  0.07330392105168217  1.0000
  C   C11       1.0  0.4562251706935926  0.40171557164507726  0.4266957402619766  1.0000
  C   C12       1.0  0.04376365434082171  0.5982808810985104  0.9266927357561696  1.0000
  C   C13       1.0  0.010958553247043304  0.919657813346774  0.6962213577795067  1.0000
  C   C14       1.0  0.4890539962390151  0.08034272670412428  0.1962141239257917  1.0000
  C   C15       1.0  0.5109557086544996  0.5803516746251631  0.3037841729003432  1.0000
  C   C16       1.0  0.9890312438459363  0.4196581692348503  0.803780128498154  1.0000
  C   C17       1.0  0.7309271971278265  0.005009874528283799  0.5976813751473457  1.0000
  C   C18       1.0  0.7690832135271393  0.9949924378499303  0.09767283419011359  1.0000
  C   C19       1.0  0.23092925870059133  0.49499318131111636  0.40232634909285275  1.0000
  C   C20       1.0  0.26905983262669514  0.505008368986296  0.9023236489559778  1.0000
  S   S1        1.0  0.1246737811645318  0.1245493806868154  0.6577623427900007  1.0000
  S   S2        1.0  0.37533918858328974  0.8754496666236163  0.1577597071967816  1.0000
  S   S3        1.0  0.6246757813484224  0.37546054860276  0.34223993299894306  1.0000
  S   S4        1.0  0.8753142851867538  0.6245481794988307  0.842240012258209  1.0000
  N   N1        1.0  0.8019336576301727  0.8695471396047908  0.6523243818442948  1.0000
  N   N2        1.0  0.6980761558944836  0.13045152785204545  0.1523157534683861  1.0000
  N   N3        1.0  0.3019314756180762  0.6304561668265194  0.3476831366856317  1.0000
  N   N4        1.0  0.19805821286369255  0.36954902838143494  0.8476765111028541  1.0000
  O   O1        1.0  0.49944524832707776  0.0075206633630316  0.4856358915493074  1.0000
  O   O2        1.0  0.0005570698790152002  0.9924708612238148  0.9856227296516661  1.0000
  O   O3        1.0  0.9994534880350657  0.4924710683776112  0.5143760499897069  1.0000
  O   O4        1.0  0.5005472301295272  0.5075164889646543  0.014367324041728602  1.0000
  O   O5        1.0  0.60560106846647  0.46189258760713153  0.6342361569152073  1.0000
  O   O6        1.0  0.8944054084249448  0.5381033827042287  0.13422936410977826  1.0000
  O   O7        1.0  0.10559925318049318  0.0381069709255399  0.3657688987509005  1.0000
  O   O8        1.0  0.3944043748553413  0.9618957044120648  0.8657648102834584  1.0000
  O   O9        1.0  0.6323748748593163  0.7502669974834859  0.5256615403965839  1.0000
  O   O10       1.0  0.8676045142068958  0.24972322368810748  0.0256451347453606  1.0000
  O   O11       1.0  0.1323953197828658  0.749727741247973  0.47435219221270597  1.0000
  O   O12       1.0  0.3676212589456328  0.2502637280047963  0.9743370444894737  1.0000
  O   O13       1.0  0.16695482528352562  0.6421627780972371  0.6540356274224235  1.0000
  O   O14       1.0  0.3330528837813915  0.3578310339472353  0.15402818391503098  1.0000
  O   O15       1.0  0.6669480566524301  0.8578396715204731  0.3459675708683321  1.0000
  O   O16       1.0  0.8330437363471929  0.1421612493417257  0.8459628705353095  1.0000
  O   O17       1.0  0.38521818265741103  0.7994472405343273  0.732921716386528  1.0000
  O   O18       1.0  0.1147957329095206  0.20054956665634188  0.23291763285918418  1.0000
  O   O19       1.0  0.8852114702049292  0.7005557898098828  0.2670791015198759  1.0000
  O   O20       1.0  0.6147741162516028  0.29944865716173297  0.767079673227606  1.0000
