data_image0
_chemical_formula_structural       Cu2H38C24N4Cl2O6
_chemical_formula_sum              "Cu2 H38 C24 N4 Cl2 O6"
_cell_length_a       7.150026580085983
_cell_length_b       9.781183591144792
_cell_length_c       9.267640019405393
_cell_angle_alpha    90.00030220075931
_cell_angle_beta     93.89409573718832
_cell_angle_gamma    89.99884348480751

_space_group_name_H-M_alt    "P 1"
_space_group_IT_number       1

loop_
  _space_group_symop_operation_xyz
  'x, y, z'

loop_
  _atom_site_type_symbol
  _atom_site_label
  _atom_site_symmetry_multiplicity
  _atom_site_fract_x
  _atom_site_fract_y
  _atom_site_fract_z
  _atom_site_occupancy
  Cu  Cu1       1.0  0.826582885327113  0.8705578377158857  0.5049818322213042  1.0000
  Cu  Cu2       1.0  0.1733949981431522  0.3705558609561095  0.4950415010217242  1.0000
  H   H1        1.0  0.8438387874066251  0.15252178742445474  0.415951979959864  1.0000
  H   H2        1.0  0.15617675378242524  0.6525127837252642  0.5840344814085583  1.0000
  H   H3        1.0  0.5038060023059573  0.779255088020726  0.47561579859337394  1.0000
  H   H4        1.0  0.4961747168568707  0.2792447188227669  0.5243941233154459  1.0000
  H   H5        1.0  0.5410890288429897  0.9590868470629489  0.021975819011323918  1.0000
  H   H6        1.0  0.4588952796008174  0.4590862003597211  0.978021010945163  1.0000
  H   H7        1.0  0.5583955844257389  0.11530584795433188  0.12014643871665948  1.0000
  H   H8        1.0  0.441577105844871  0.6153072596984401  0.879853956104867  1.0000
  H   H9        1.0  0.24933965456038015  0.0957382230030461  0.19795520454220386  1.0000
  H   H10       1.0  0.7506344212832374  0.5957548743470511  0.8020250410556001  1.0000
  H   H11       1.0  0.1312212881506696  0.8686317475723727  0.2829420368955908  1.0000
  H   H12       1.0  0.8687881992486054  0.3686245443973348  0.7170619869538157  1.0000
  H   H13       1.0  0.3746641019940711  0.7030751736840986  0.0967630136928364  1.0000
  H   H14       1.0  0.625363667783816  0.2030821291985703  0.9032548729142533  1.0000
  H   H15       1.0  0.3173536444284081  0.6642868925885352  0.2710280279255386  1.0000
  H   H16       1.0  0.682670995238567  0.164278573790078  0.7290052122711117  1.0000
  H   H17       1.0  0.9619854023383071  0.0721053753505458  0.9588628365410655  1.0000
  H   H18       1.0  0.0380228978532386  0.5721183914022417  0.0411161974205854  1.0000
  H   H19       1.0  0.934260680583364  0.03513429644667811  0.14373231689567234  1.0000
  H   H20       1.0  0.0657184505702446  0.53513625269931  0.856255017951767  1.0000
  H   H21       1.0  0.8600499457815401  0.9159134027864508  0.004478883585335273  1.0000
  H   H22       1.0  0.13996017806816505  0.415916310692282  0.9955136435416704  1.0000
  H   H23       1.0  0.15378822919948487  0.9137329177915917  0.81867392462766  1.0000
  H   H24       1.0  0.8462068125797798  0.41372002499343824  0.1813338430494369  1.0000
  H   H25       1.0  0.14299497332326178  0.7549741983993103  0.9039631914367375  1.0000
  H   H26       1.0  0.8570235038415318  0.25497013461204426  0.09602321812297279  1.0000
  H   H27       1.0  0.3604112056836756  0.8420522473629433  0.9024112249253378  1.0000
  H   H28       1.0  0.6395964091751694  0.34206221393760944  0.0975777192671146  1.0000
  H   H29       1.0  0.8574666448935915  0.7241889503850133  0.2086715754910742  1.0000
  H   H30       1.0  0.1425350978212023  0.22419228120276102  0.7913324453958024  1.0000
  H   H31       1.0  0.6946418415776492  0.7411420896253845  0.05652801737069522  1.0000
  H   H32       1.0  0.3053445053596776  0.2411419921303377  0.943486559779046  1.0000
  H   H33       1.0  0.6814365174808047  0.5967991912937621  0.1693040511535528  1.0000
  H   H34       1.0  0.31855533203437153  0.0967969240683075  0.8307167838526083  1.0000
  H   H35       1.0  0.5778946820980834  0.5314615350701644  0.3799078009060253  1.0000
  H   H36       1.0  0.42207050214649666  0.03143874066039841  0.62009713491787  1.0000
  H   H37       1.0  0.6121635926063859  0.5861547476709318  0.5621236412577132  1.0000
  H   H38       1.0  0.3878700506636647  0.08614742088219883  0.4378794906185632  1.0000
  C   C1        1.0  0.866211326858128  0.5757104302513412  0.4610378977733873  1.0000
  C   C2        1.0  0.13379005450181586  0.07571185193290121  0.5389476880855851  1.0000
  C   C3        1.0  0.5744712026085849  0.7836001109411228  0.2601896121833675  1.0000
  C   C4        1.0  0.4255341813335464  0.2835847389206592  0.7398248962803676  1.0000
  C   C5        1.0  0.6089107879202658  0.9356970030183972  0.2467487136200575  1.0000
  C   C6        1.0  0.3911039484843855  0.4356913178256363  0.7532528725236318  1.0000
  C   C7        1.0  0.5093956832163755  0.009546793613346002  0.12385078295027797  1.0000
  C   C8        1.0  0.49059962764433607  0.5095499897308785  0.8761512356099886  1.0000
  C   C9        1.0  0.3018681811883042  0.0036279321998832995  0.14786451645951357  1.0000
  C   C10       1.0  0.6981258742055233  0.5036349049975186  0.8521384975861821  1.0000
  C   C11       1.0  0.2293631320192659  0.8663137097823324  0.19790072970665307  1.0000
  C   C12       1.0  0.770635172092284  0.36631635270494206  0.8021027992699246  1.0000
  C   C13       1.0  0.367764470181868  0.7480364865340121  0.2047254589318896  1.0000
  C   C14       1.0  0.6322484694686351  0.24803733737528694  0.7952895976401279  1.0000
  C   C15       1.0  0.1602497176489663  0.9256767765060873  0.051278066986341686  1.0000
  C   C16       1.0  0.8397585723649285  0.4256822709659718  0.9487227399102165  1.0000
  C   C17       1.0  0.9680400507152669  0.9901992189375266  0.04032776360407548  1.0000
  C   C18       1.0  0.0319671593642994  0.4902014713617221  0.9596664691650858  1.0000
  C   C19       1.0  0.20956590533994296  0.855888391958388  0.9134536738430299  1.0000
  C   C20       1.0  0.7904466267905406  0.35588836590545014  0.08654446416632305  1.0000
  C   C21       1.0  0.7114101947971037  0.7065701107206621  0.16919428035279074  1.0000
  C   C22       1.0  0.28858766642050426  0.20656998720865977  0.8308224889713145  1.0000
  C   C23       1.0  0.6557400933601158  0.604070198091101  0.45225302720477595  1.0000
  C   C24       1.0  0.3442668530680706  0.10406403475881382  0.5477416245426525  1.0000
  N   N1        1.0  0.6130247029298487  0.7480308850467381  0.4174047608491377  1.0000
  N   N2        1.0  0.38696351680830077  0.24801840191405947  0.582604548400802  1.0000
  N   N3        1.0  0.7161338585196758  0.9913489740665827  0.347958242894343  1.0000
  N   N4        1.0  0.28389105393410563  0.4913448947792959  0.6520407052862325  1.0000
  Cl  Cl1       1.0  0.7004080035525605  0.8672313000695481  0.7286235887079185  1.0000
  Cl  Cl2       1.0  0.2995498884495333  0.3672502765691591  0.27137408330494844  1.0000
  O   O1        1.0  0.9177941044349467  0.4520432248638003  0.4549462604655616  1.0000
  O   O2        1.0  0.08220012510717821  0.9520405248818951  0.5449988613792556  1.0000
  O   O3        1.0  0.9757596678699938  0.6779486835053915  0.4818312829201473  1.0000
  O   O4        1.0  0.024218889740737392  0.1779478307348299  0.518173351498703  1.0000
  O   O5        1.0  0.7372941646473734  0.13146312946389568  0.34078171676259916  1.0000
  O   O6        1.0  0.2627336403185724  0.631464062892455  0.6591883644247003  1.0000
