data_image0
_chemical_formula_structural       K2Cu2H48C24Cl4O12
_chemical_formula_sum              "K2 Cu2 H48 C24 Cl4 O12"
_cell_length_a       7.829455101029521
_cell_length_b       8.650381138240725
_cell_length_c       13.746614507638196
_cell_angle_alpha    102.96851071053787
_cell_angle_beta     90.00019160192046
_cell_angle_gamma    89.99972187014934

_space_group_name_H-M_alt    "P 1"
_space_group_IT_number       1

loop_
  _space_group_symop_operation_xyz
  'x, y, z'

loop_
  _atom_site_type_symbol
  _atom_site_label
  _atom_site_symmetry_multiplicity
  _atom_site_fract_x
  _atom_site_fract_y
  _atom_site_fract_z
  _atom_site_occupancy
  K   K1        1.0  0.5000030260726119  2.0522630279999284e-06  0.5000018589927748  1.0000
  K   K2        1.0  1.2420488601999992e-06  0.4999990514363335  2.058392915725076e-06  1.0000
  Cu  Cu1       1.0  1.4359886009000003e-06  1.865383836699923e-06  0.5000020741325173  1.0000
  Cu  Cu2       1.0  0.5000031496424597  0.5000005890177307  0.9999998369456902  1.0000
  H   H1        1.0  0.4093657962442805  0.16968076732455736  0.20495815967073128  1.0000
  H   H2        1.0  0.9093659461701549  0.33031869487299315  0.2950412303578531  1.0000
  H   H3        1.0  0.5906312449260511  0.8303190562670154  0.7950406101845928  1.0000
  H   H4        1.0  0.09063748114272839  0.66968112964571  0.7049582670862193  1.0000
  H   H5        1.0  0.5753608907036565  0.21456907908373785  0.2966399008434237  1.0000
  H   H6        1.0  0.07536012394172789  0.28543171612922447  0.2033583000114589  1.0000
  H   H7        1.0  0.424638704923403  0.7854295572870956  0.7033579744813068  1.0000
  H   H8        1.0  0.9246420261483337  0.7145657358405306  0.7966408635356929  1.0000
  H   H9        1.0  0.30060582523690027  0.3761622964097954  0.33542216074708614  1.0000
  H   H10       1.0  0.8006037552773575  0.12383997177089871  0.16457668528736494  1.0000
  H   H11       1.0  0.6993963248478892  0.6238375281114588  0.6645773366961123  1.0000
  H   H12       1.0  0.1993945631184317  0.8761610380938694  0.8354222515168672  1.0000
  H   H13       1.0  0.1978443983781091  0.20065540612240085  0.3538982030151842  1.0000
  H   H14       1.0  0.6978438553931523  0.29934845874101523  0.1461006679539025  1.0000
  H   H15       1.0  0.8021564744738683  0.7993456037372654  0.6461007337908029  1.0000
  H   H16       1.0  0.3021608491419983  0.700654925542267  0.8539000579194606  1.0000
  H   H17       1.0  0.16304007068991672  0.3368814349885767  0.5263889052893944  1.0000
  H   H18       1.0  0.6630382923607742  0.16312036263467897  0.9736088655968089  1.0000
  H   H19       1.0  0.8369608021699619  0.6631160160438444  0.47360953067254036  1.0000
  H   H20       1.0  0.3369613032678274  0.8368794618916768  0.02639063184462032  1.0000
  H   H21       1.0  0.28264688145853273  0.5065312209874621  0.5104305069430239  1.0000
  H   H22       1.0  0.782647292255561  0.9934705706136532  0.9895689695819386  1.0000
  H   H23       1.0  0.7173514369514178  0.49346623286970753  0.4895701117701563  1.0000
  H   H24       1.0  0.21735358059849832  0.006530440185898102  0.0104306948083988  1.0000
  H   H25       1.0  0.5107667081957175  0.4387609908197948  0.6237606095084018  1.0000
  H   H26       1.0  0.010766834153699301  0.0612378580036648  0.8762379052646949  1.0000
  H   H27       1.0  0.489231610207426  0.5612376474333587  0.3762387209841194  1.0000
  H   H28       1.0  0.9892340386988181  0.9387619646403709  0.1237601370089365  1.0000
  H   H29       1.0  0.3087846166645959  0.49029097112704534  0.6834485764325251  1.0000
  H   H30       1.0  0.8087814643216971  0.009709060026367004  0.8165506840897051  1.0000
  H   H31       1.0  0.6912149789671885  0.5097064799079265  0.3165498595285214  1.0000
  H   H32       1.0  0.19121557685544124  0.990289579169222  0.1834493739862708  1.0000
  H   H33       1.0  0.3574490444316537  0.336271471739245  0.8073907310775253  1.0000
  H   H34       1.0  0.8574482032957319  0.16373192294023656  0.6926083699593875  1.0000
  H   H35       1.0  0.6425505512016726  0.6637271674512422  0.1926093270002269  1.0000
  H   H36       1.0  0.14254628341051045  0.8362714594836834  0.30739090073823416  1.0000
  H   H37       1.0  0.568153304678063  0.3036324338971782  0.7573339777347385  1.0000
  H   H38       1.0  0.06815067680008012  0.1963638150686507  0.7426657376163277  1.0000
  H   H39       1.0  0.4318462909573455  0.6963662062331939  0.24266680792734263  1.0000
  H   H40       1.0  0.9318450871474226  0.8036336359739666  0.2573326983420685  1.0000
  H   H41       1.0  0.6957528685521054  0.9597926046768143  0.24772829616259176  1.0000
  H   H42       1.0  0.1957485611788385  0.5402058107179148  0.25227273268481554  1.0000
  H   H43       1.0  0.30424672707705014  0.040206032633911114  0.7522703067464747  1.0000
  H   H44       1.0  0.8042523116730392  0.4597999489441663  0.7477305098349588  1.0000
  H   H45       1.0  0.5387494787745126  0.9024420661134944  0.15124251194467322  1.0000
  H   H46       1.0  0.0387467017629817  0.5975581625962579  0.34875846687597806  1.0000
  H   H47       1.0  0.4612488396338962  0.09755419958815995  0.8487564846518154  1.0000
  H   H48       1.0  0.9612503394068027  0.40244284821094584  0.6512411975117088  1.0000
  C   C1        1.0  0.44557289311804027  0.164451218496744  0.28197666695378126  1.0000
  C   C2        1.0  0.9455700187444123  0.3355480991024322  0.2180227731102704  1.0000
  C   C3        1.0  0.5544267025111153  0.835547418813974  0.7180219359552849  1.0000
  C   C4        1.0  0.0544321313477312  0.664449353807207  0.7819771180212243  1.0000
  C   C5        1.0  0.32266774580933344  0.26113805866591394  0.3555547149135379  1.0000
  C   C6        1.0  0.8226649563712555  0.23886412140500835  0.1444441616095844  1.0000
  C   C7        1.0  0.6773331270473618  0.738861765857884  0.6444447825287726  1.0000
  C   C8        1.0  0.1773346392547168  0.7611368893970936  0.8555555027798648  1.0000
  C   C9        1.0  0.2927743823958906  0.3873602350115065  0.5266535547708742  1.0000
  C   C10       1.0  0.7927728675493526  0.11264104635628064  0.9733458505746598  1.0000
  C   C11       1.0  0.7072252132400649  0.6126372179032348  0.4733463363588584  1.0000
  C   C12       1.0  0.20722672807925588  0.887358778170075  0.026653646866769503  1.0000
  C   C13       1.0  0.37641647057353117  0.40085629878132795  0.6267735543058492  1.0000
  C   C14       1.0  0.8764144514936946  0.09914464853652315  0.873225966631189  1.0000
  C   C15       1.0  0.6235831250624313  0.5991411541334133  0.3732263368238833  1.0000
  C   C16       1.0  0.12358386690418399  0.9008563622681297  0.12677369775737907  1.0000
  C   C17       1.0  0.43634346904849497  0.2568588492043987  0.7506108693358868  1.0000
  C   C18       1.0  0.9363425371728199  0.24314067155836488  0.7493878398875609  1.0000
  C   C19       1.0  0.5636561265848242  0.7431397899860888  0.24938918874185842  1.0000
  C   C20       1.0  0.06365322676941788  0.7568591520357587  0.2506109299668751  1.0000
  C   C21       1.0  0.567087552074277  0.9079649099290993  0.23067190278474922  1.0000
  C   C22       1.0  0.0670843478151184  0.5920363918802637  0.2693292821463302  1.0000
  C   C23       1.0  0.43291076633095565  0.09203372926393882  0.769328155292115  1.0000
  C   C24       1.0  0.9329152478123887  0.40796580707735347  0.7306720043598176  1.0000
  Cl  Cl1       1.0  0.8489053966922098  0.17413481429053956  0.456597118293196  1.0000
  Cl  Cl2       1.0  0.3489098850220386  0.3258696382284684  0.0434057663126524  1.0000
  Cl  Cl3       1.0  0.15109419893738618  0.8258673856069623  0.5434048957972948  1.0000
  Cl  Cl4       1.0  0.6510973739745721  0.674131373498213  0.9565946256664333  1.0000
  O   O1        1.0  0.44438808017110176  0.004374741992194202  0.2940062501354602  1.0000
  O   O2        1.0  0.9443868508076816  0.49562695476688384  0.205994977357058  1.0000
  O   O3        1.0  0.555610238234678  0.9956227099852132  0.7059929134090481  1.0000
  O   O4        1.0  0.0556216854290952  0.5043705000097632  0.794006368947521  1.0000
  O   O5        1.0  0.39580714961937247  0.2859099000097701  0.4528299390792512  1.0000
  O   O6        1.0  0.8958077631658483  0.2140931751648126  0.04716993305591902  1.0000
  O   O7        1.0  0.6041898915530481  0.7140899245216875  0.5471695583604088  1.0000
  O   O8        1.0  0.1041931096876638  0.7859090228503693  0.9528306258667811  1.0000
  O   O9        1.0  0.37001547364379656  0.2501630331427337  0.6527915091516121  1.0000
  O   O10       1.0  0.8700125140250138  0.24983793786162076  0.8472065477700284  1.0000
  O   O11       1.0  0.6299866764404384  0.7498379785941512  0.3472088828239421  1.0000
  O   O12       1.0  0.12998324991931304  0.7501618866723875  0.1527929496687506  1.0000
