data_image0
_chemical_formula_structural       Co2H52C60N8O14
_chemical_formula_sum              "Co2 H52 C60 N8 O14"
_cell_length_a       10.049897200639473
_cell_length_b       11.777980545985576
_cell_length_c       12.301485977217672
_cell_angle_alpha    93.05869683738713
_cell_angle_beta     111.82046741326937
_cell_angle_gamma    93.27436535044745

_space_group_name_H-M_alt    "P 1"
_space_group_IT_number       1

loop_
  _space_group_symop_operation_xyz
  'x, y, z'

loop_
  _atom_site_type_symbol
  _atom_site_label
  _atom_site_symmetry_multiplicity
  _atom_site_fract_x
  _atom_site_fract_y
  _atom_site_fract_z
  _atom_site_occupancy
  Co  Co1       1.0  0.056309208086965185  0.6376019202852347  0.8587353969216732  1.0000
  Co  Co2       1.0  0.943696624582401  0.36239901214454306  0.14127128258700597  1.0000
  H   H1        1.0  0.3109647766533783  0.6377306051375766  0.10649269403705117  1.0000
  H   H2        1.0  0.689035423348443  0.3622677761507091  0.8935178349396508  1.0000
  H   H3        1.0  0.9011973487874131  0.7616327296605616  0.02385178007064328  1.0000
  H   H4        1.0  0.09881473059011367  0.23837764963237618  0.976162930720619  1.0000
  H   H5        1.0  0.03651328847992372  0.7641337428083973  0.2663430894077193  1.0000
  H   H6        1.0  0.9635051392017643  0.23587582055466777  0.7336743424545416  1.0000
  H   H7        1.0  0.48084175350482633  0.7697011418878784  0.2940960112659282  1.0000
  H   H8        1.0  0.5191713015859848  0.2302973239289371  0.7059217118286085  1.0000
  H   H9        1.0  0.6657700310488863  0.7437573284808252  0.4878024492153655  1.0000
  H   H10       1.0  0.3342377273777046  0.25623090301197476  0.5122172532405784  1.0000
  H   H11       1.0  0.3419481687343051  0.572414087636538  0.5885284193952244  1.0000
  H   H12       1.0  0.658046866022339  0.42756375128182356  0.4114714694603591  1.0000
  H   H13       1.0  0.1557110341722634  0.6010121314027826  0.3933353372798649  1.0000
  H   H14       1.0  0.8442935900101602  0.3989759582835432  0.6066630752574226  1.0000
  H   H15       1.0  0.8152396079375208  0.6420074378934115  0.6136847140584081  1.0000
  H   H16       1.0  0.18476062767466322  0.3579798022953183  0.38631638015394276  1.0000
  H   H17       1.0  0.774367048587855  0.5866466024844568  0.9359902376431674  1.0000
  H   H18       1.0  0.22564753055895176  0.41334498840291184  0.06401788657536399  1.0000
  H   H19       1.0  0.5035745134574867  0.621086805724289  0.7713989525397834  1.0000
  H   H20       1.0  0.4964332805794669  0.3788902846689551  0.22861131515180225  1.0000
  H   H21       1.0  0.1299826091032728  0.26263703694738166  0.6507354090527213  1.0000
  H   H22       1.0  0.87000111039508  0.7373670797720494  0.34924594187706487  1.0000
  H   H23       1.0  0.27833228816572136  0.09282933640308498  0.6892413976185877  1.0000
  H   H24       1.0  0.7216463304394409  0.9071772928620162  0.31073525230601706  1.0000
  H   H25       1.0  0.5545340316588394  0.2628914866610613  0.025329705748717398  1.0000
  H   H26       1.0  0.4454466877525576  0.7371041329148509  0.9746576583928928  1.0000
  H   H27       1.0  0.403936669793218  0.4245384645941001  0.986211499486643  1.0000
  H   H28       1.0  0.5960467954158021  0.5754631026834146  0.01377128418549493  1.0000
  H   H29       1.0  0.6128530572283495  0.06358166276210399  0.051155300560125704  1.0000
  H   H30       1.0  0.3871402185590824  0.9364327550062724  0.9488326954635298  1.0000
  H   H31       1.0  0.6996753048012893  0.15583711884710988  0.9822572339960941  1.0000
  H   H32       1.0  0.3003101375500136  0.8441738436529388  0.017727392927000093  1.0000
  H   H33       1.0  0.8062834227239293  0.964497850616979  0.02847726575938477  1.0000
  H   H34       1.0  0.1937139608350407  0.035514907431860386  0.9715159784612836  1.0000
  H   H35       1.0  0.6433692949884886  0.8978683165053594  0.9198419136725631  1.0000
  H   H36       1.0  0.3566223733489409  0.10214103723595255  0.08015511616942918  1.0000
  H   H37       1.0  0.9313305022708106  0.0372597436983853  0.7503224672217355  1.0000
  H   H38       1.0  0.06867719129788698  0.9627377164098971  0.24967324451529285  1.0000
  H   H39       1.0  0.9234939957597705  0.8938768758850769  0.6899728964723337  1.0000
  H   H40       1.0  0.0765077150433697  0.10611465058614297  0.3100312821932291  1.0000
  H   H41       1.0  0.726448627341199  0.8454023934985456  0.7711466836798734  1.0000
  H   H42       1.0  0.27354157574628596  0.15460265887597294  0.22884482528526456  1.0000
  H   H43       1.0  0.9055635580740001  0.8812415293888731  0.8753483004906781  1.0000
  H   H44       1.0  0.0944263675284631  0.11876100874041375  0.12465032620531248  1.0000
  H   H45       1.0  0.5291726113186073  0.033607207625699693  0.4310539378622166  1.0000
  H   H46       1.0  0.4708370262556798  0.9663996979860839  0.5689517385379331  1.0000
  H   H47       1.0  0.5530311479048892  0.15246191905020368  0.27782152026337315  1.0000
  H   H48       1.0  0.4469780388153736  0.8475629526495323  0.7221945850198279  1.0000
  H   H49       1.0  0.011715439619237595  0.18342150089987536  0.4533498099984142  1.0000
  H   H50       1.0  0.9882907729711761  0.8165827687725906  0.5466449427788048  1.0000
  H   H51       1.0  0.992183712155736  0.06580818576092899  0.6076596957779755  1.0000
  H   H52       1.0  0.007826891478565271  0.934185842590544  0.39233106197199413  1.0000
  C   C1        1.0  0.2180002011904065  0.673809485400639  0.11460437471635741  1.0000
  C   C2        1.0  0.7820042222736562  0.32618803905317145  0.885403344891891  1.0000
  C   C3        1.0  0.006992244181574802  0.7375969824625485  0.07626865877355019  1.0000
  C   C4        1.0  0.9930187661476495  0.26241338643428236  0.9237449110804119  1.0000
  C   C5        1.0  0.07124383944368871  0.7392557941558807  0.1959422867999692  1.0000
  C   C6        1.0  0.9287675168298648  0.26074687647412986  0.804066976523721  1.0000
  C   C7        1.0  0.309033569268486  0.6847199588838747  0.33221727920084015  1.0000
  C   C8        1.0  0.6909737344381597  0.31527417906600863  0.667792795691298  1.0000
  C   C9        1.0  0.4516518677859764  0.724479173822054  0.3578336562249261  1.0000
  C   C10       1.0  0.5483615233081595  0.2755116088122378  0.6421821967629879  1.0000
  C   C11       1.0  0.5555865162185398  0.708924091736456  0.4665971027562603  1.0000
  C   C12       1.0  0.4444187112234772  0.29105982296535154  0.5334151257443053  1.0000
  C   C13       1.0  0.516647754125607  0.6526930102683365  0.5489937487804539  1.0000
  C   C14       1.0  0.4833549290771516  0.34728660775486725  0.45101425432960696  1.0000
  C   C15       1.0  0.3728800886888309  0.6152909124858609  0.5240763643389101  1.0000
  C   C16       1.0  0.6271170874780907  0.384686942196623  0.4759249942500502  1.0000
  C   C17       1.0  0.2680410478537141  0.6316745713416763  0.41520496425805925  1.0000
  C   C18       1.0  0.7319624015307156  0.3683126899791843  0.584797928483752  1.0000
  C   C19       1.0  0.7683228942496925  0.632841645961811  0.6792760440926031  1.0000
  C   C20       1.0  0.2316796379397559  0.3671473314074091  0.3207290839701713  1.0000
  C   C21       1.0  0.7421367119677598  0.6040580316911954  0.8443289221338686  1.0000
  C   C22       1.0  0.2578734026821508  0.39593184647633695  0.15568019563059468  1.0000
  C   C23       1.0  0.6073209857309433  0.6166056235482243  0.7632734561443398  1.0000
  C   C24       1.0  0.3926883000653092  0.3833757279870297  0.23673583529438247  1.0000
  C   C25       1.0  0.15971929934558912  0.4483353144662842  0.7979267520055585  1.0000
  C   C26       1.0  0.8402739656608276  0.5516680325959056  0.20206317923078387  1.0000
  C   C27       1.0  0.2560292370731716  0.3535226997285079  0.8167563250283932  1.0000
  C   C28       1.0  0.7439596032003878  0.6464788742766742  0.18322485405927585  1.0000
  C   C29       1.0  0.22250987660504515  0.2601472135762392  0.7325786750444009  1.0000
  C   C30       1.0  0.7774739320746492  0.7398577462530438  0.2674011154496511  1.0000
  C   C31       1.0  0.3036630274098044  0.16637404257816965  0.75339372521141  1.0000
  C   C32       1.0  0.6963206854612097  0.833630084197459  0.24658925000080964  1.0000
  C   C33       1.0  0.4249229548337752  0.16681459163804388  0.8585606454227204  1.0000
  C   C34       1.0  0.5750617445315455  0.8331886923676632  0.1414234068801008  1.0000
  C   C35       1.0  0.46200240360430195  0.26033594975529434  0.9426211215086794  1.0000
  C   C36       1.0  0.5379818037506966  0.7396622102260862  0.05736173557274779  1.0000
  C   C37       1.0  0.3764789081016744  0.3520130505271623  0.920873930350403  1.0000
  C   C38       1.0  0.62350530256699  0.6479851044261195  0.07910811458980758  1.0000
  C   C39       1.0  0.6348646927434912  0.07455155108963399  0.9709674407633385  1.0000
  C   C40       1.0  0.3651261047903346  0.9254594483066609  0.02902045442258579  1.0000
  C   C41       1.0  0.7146053359639667  0.9779123739715059  0.9468404692868903  1.0000
  C   C42       1.0  0.28538873470041176  0.022099534919647095  0.05315497326370889  1.0000
  C   C43       1.0  0.8617046097510439  0.9578583465506012  0.7144769571327882  1.0000
  C   C44       1.0  0.1382986193207572  0.04213740083785209  0.2855197481501718  1.0000
  C   C45       1.0  0.812630327027989  0.915491855318798  0.807878833464322  1.0000
  C   C46       1.0  0.18736299733673434  0.08451238010611209  0.19211684660722736  1.0000
  C   C47       1.0  0.7588096476691105  0.04398050547562348  0.5317653032179306  1.0000
  C   C48       1.0  0.2411976900142392  0.9560246679837687  0.46823715147301204  1.0000
  C   C49       1.0  0.634969211392587  0.06746275045644269  0.43702440328208764  1.0000
  C   C50       1.0  0.36503883945371746  0.9325501467501738  0.5629859353000696  1.0000
  C   C51       1.0  0.6483750484116584  0.13375341230483428  0.3513103092713195  1.0000
  C   C52       1.0  0.35162811938042177  0.8662646021984414  0.6487028291167005  1.0000
  C   C53       1.0  0.7836822409319524  0.17673116651364748  0.35548522611032496  1.0000
  C   C54       1.0  0.21631880201820763  0.8232868070850115  0.6445223818382286  1.0000
  C   C55       1.0  0.905929678561371  0.15110294049924278  0.4490663430008296  1.0000
  C   C56       1.0  0.09407847472095199  0.8489107797048233  0.5509391865807202  1.0000
  C   C57       1.0  0.8948979474528114  0.085784668067852  0.5371125880499361  1.0000
  C   C58       1.0  0.1051115316408158  0.9142205211556628  0.46289133637438323  1.0000
  C   C59       1.0  0.7922071199541135  0.24872086540407418  0.26149162887307387  1.0000
  C   C60       1.0  0.20779575985968524  0.7512825852792984  0.7385101950813746  1.0000
  N   N1        1.0  0.0988845931747022  0.6957058368118255  0.025984485392299906  1.0000
  N   N2        1.0  0.9011149604898206  0.30429678482624906  0.9740227854569381  1.0000
  N   N3        1.0  0.20477398195254182  0.6991637166321779  0.2191386079913471  1.0000
  N   N4        1.0  0.7952350644890699  0.30083723692973047  0.7808698700467928  1.0000
  N   N5        1.0  0.6253551277252568  0.6348842940752134  0.6585965506129483  1.0000
  N   N6        1.0  0.3746464038752038  0.3650944603858404  0.34141024771312084  1.0000
  N   N7        1.0  0.8415873440900797  0.6152362730420079  0.7910162822859518  1.0000
  N   N8        1.0  0.1584178281473001  0.3847578340594637  0.20898988644916017  1.0000
  O   O1        1.0  0.0713440169985304  0.4648692481951002  0.6983083901417115  1.0000
  O   O2        1.0  0.9286584089353269  0.5351511947358317  0.3016843074598938  1.0000
  O   O3        1.0  0.17194402289902647  0.5095123582455013  0.8937434993076677  1.0000
  O   O4        1.0  0.8280361813063593  0.4904781725027617  0.10624835460107115  1.0000
  O   O5        1.0  0.6838906271859813  0.29545494838245645  0.19930878746566796  1.0000
  O   O6        1.0  0.3161176376333685  0.7045484939442872  0.8006889954806623  1.0000
  O   O7        1.0  0.9162933744326838  0.25742337888897987  0.24958004759007218  1.0000
  O   O8        1.0  0.08371198942204924  0.7425723943197862  0.7504197517086978  1.0000
  O   O9        1.0  0.7372463440430578  0.979831797657077  0.6140238288549893  1.0000
  O   O10       1.0  0.2627568223567636  0.020163066396747795  0.3859679397339733  1.0000
  O   O11       1.0  0.7630468179909684  0.008304861951330596  0.8566181850655352  1.0000
  O   O12       1.0  0.23694561568812833  0.991701049297148  0.14337323319723783  1.0000
  O   O13       1.0  0.5020316891134584  0.0736020474808896  0.8703528906462309  1.0000
  O   O14       1.0  0.4979563891320992  0.9264029639890193  0.12963308787944774  1.0000
