data_image0
_chemical_formula_structural       Zn8H64C88N32
_chemical_formula_sum              "Zn8 H64 C88 N32"
_cell_length_a       16.13619365674461
_cell_length_b       15.400901822610548
_cell_length_c       17.68179678672831
_cell_angle_alpha    89.99921063611511
_cell_angle_beta     89.99715329760787
_cell_angle_gamma    72.66029157396088

_space_group_name_H-M_alt    "P 1"
_space_group_IT_number       1

loop_
  _space_group_symop_operation_xyz
  'x, y, z'

loop_
  _atom_site_type_symbol
  _atom_site_label
  _atom_site_symmetry_multiplicity
  _atom_site_fract_x
  _atom_site_fract_y
  _atom_site_fract_z
  _atom_site_occupancy
  Zn  Zn1       1.0  0.4885137843972771  0.5574740836591231  0.9164339718925806  1.0000
  Zn  Zn2       1.0  0.5115077235420316  0.4425274204499914  0.08356650190076212  1.0000
  Zn  Zn3       1.0  0.011504519484709923  0.9425328017062142  0.4164316209647296  1.0000
  Zn  Zn4       1.0  0.9885078134237942  0.05746093213655001  0.5835699842222156  1.0000
  Zn  Zn5       1.0  0.31801262801457136  0.48364588580965767  0.023030088297794307  1.0000
  Zn  Zn6       1.0  0.6820049180329663  0.516351711583546  0.9769681234103661  1.0000
  Zn  Zn7       1.0  0.8180042517203316  0.9836411332263352  0.4769660026028291  1.0000
  Zn  Zn8       1.0  0.1819928595448275  0.0163490822170473  0.5230276852362722  1.0000
  H   H1        1.0  0.3635553542896447  0.7404477336199092  0.8669535638364751  1.0000
  H   H2        1.0  0.6364686209560589  0.2595853584003791  0.13309271946354076  1.0000
  H   H3        1.0  0.5355718691167368  0.5008854253427799  0.7244279125208382  1.0000
  H   H4        1.0  0.46446440743277845  0.49908254875308705  0.27558104448654325  1.0000
  H   H5        1.0  0.9644630776710414  0.9991317225525689  0.2244302800500862  1.0000
  H   H6        1.0  0.035556380624647894  0.0008947862392858004  0.775572455803058  1.0000
  H   H7        1.0  0.13646386312550626  0.759599340092592  0.36688702450522476  1.0000
  H   H8        1.0  0.8635471505694454  0.24040926478832603  0.633080081836326  1.0000
  H   H9        1.0  0.488481593377955  0.6175254332965706  0.17987937873689222  1.0000
  H   H10       1.0  0.5114446235036711  0.3824874438656564  0.8200911229561856  1.0000
  H   H11       1.0  0.3196894626843161  0.2568077329462994  0.19728228596534345  1.0000
  H   H12       1.0  0.6802615325443002  0.7431591388248364  0.8026452334415952  1.0000
  H   H13       1.0  0.18023833978572415  0.24317044955110842  0.6973322610612628  1.0000
  H   H14       1.0  0.8197369459253427  0.7568178231100686  0.30268913944122744  1.0000
  H   H15       1.0  0.011508689293506782  0.8824389425638516  0.6798680075860022  1.0000
  H   H16       1.0  0.9885017322618733  0.11755013993977316  0.32012567993803037  1.0000
  H   H17       1.0  0.23790629136109237  0.6404571222690761  0.14395286282762504  1.0000
  H   H18       1.0  0.7620895303694583  0.35945564020523346  0.8560832421775545  1.0000
  H   H19       1.0  0.8392555098283266  0.3696794284760117  0.05703691842210651  1.0000
  H   H20       1.0  0.160759986207168  0.6303431736431335  0.9429776941804563  1.0000
  H   H21       1.0  0.6607602284763984  0.1303182371724247  0.5570387836077586  1.0000
  H   H22       1.0  0.3392565519700952  0.8696605176942711  0.4429752637672736  1.0000
  H   H23       1.0  0.2621137699082041  0.8594973109598028  0.6439370065776303  1.0000
  H   H24       1.0  0.7379123255317737  0.1405080782842205  0.3560634670722963  1.0000
  H   H25       1.0  0.8812523448108325  0.5260158278137935  0.9085052152689529  1.0000
  H   H26       1.0  0.11874435188690312  0.4740512255773268  0.09149186527467632  1.0000
  H   H27       1.0  0.4101140789486025  0.2799860318959658  0.016789187154785203  1.0000
  H   H28       1.0  0.5899381839114568  0.7199921731530594  0.9832322115542098  1.0000
  H   H29       1.0  0.08990977045955618  0.22000625426078813  0.5167873883288153  1.0000
  H   H30       1.0  0.9100954385369492  0.7799910947066023  0.4832029059345759  1.0000
  H   H31       1.0  0.6187480563106788  0.9740006102120021  0.4085067399111893  1.0000
  H   H32       1.0  0.38123779400383034  0.0259778636063146  0.5915118326468021  1.0000
  H   H33       1.0  0.9989649206776363  0.44269157456949415  0.24744407682133132  1.0000
  H   H34       1.0  0.0009986547461763925  0.5573085580316501  0.7525383006863963  1.0000
  H   H35       1.0  0.7070132490876021  0.6543273492840314  0.17285071266428534  1.0000
  H   H36       1.0  0.2929281854755601  0.34562839633102266  0.8272023599174008  1.0000
  H   H37       1.0  0.7929410820379631  0.8455811640272657  0.6727566637066361  1.0000
  H   H38       1.0  0.2070705227114473  0.1544590934404653  0.3272409822454137  1.0000
  H   H39       1.0  0.5009465395387878  0.057300400744850294  0.747483759681572  1.0000
  H   H40       1.0  0.4990677069496101  0.9427343744226276  0.2524867396883509  1.0000
  H   H41       1.0  0.8606480900441229  0.8045508638872718  0.8226920335952032  1.0000
  H   H42       1.0  0.13937574651559004  0.19545123379006668  0.17730221904934507  1.0000
  H   H43       1.0  0.43095856240216796  0.09690318666908837  0.8945884051832709  1.0000
  H   H44       1.0  0.5690913376150846  0.9030575786116302  0.10539736386217412  1.0000
  H   H45       1.0  0.06892330604794948  0.4031623415467748  0.3945607071489548  1.0000
  H   H46       1.0  0.9310486799659258  0.5968509788226298  0.6054228011532033  1.0000
  H   H47       1.0  0.6392423066769484  0.6954932579534229  0.32275817398670636  1.0000
  H   H48       1.0  0.36065975572612535  0.30452921297629126  0.6772734079821776  1.0000
  H   H49       1.0  0.02946583742139809  0.729069468475231  0.7594257793630989  1.0000
  H   H50       1.0  0.9705437497359669  0.2709034693897365  0.24055999056539432  1.0000
  H   H51       1.0  0.2633297526520409  0.17225886099801363  0.8320326224627054  1.0000
  H   H52       1.0  0.7366894581638518  0.8276618554046776  0.16799669526722033  1.0000
  H   H53       1.0  0.23656900021837393  0.3278597263524503  0.3320251294050963  1.0000
  H   H54       1.0  0.7634028825177879  0.672187966063987  0.6679645997068209  1.0000
  H   H55       1.0  0.47047241453886807  0.7710318234176228  0.2594276094425184  1.0000
  H   H56       1.0  0.5294575223219624  0.2290368584875893  0.7405592927535026  1.0000
  H   H57       1.0  0.3938091820494734  0.6776026843934845  0.3703216835735078  1.0000
  H   H58       1.0  0.6062118407888875  0.3224177053436749  0.629647684641718  1.0000
  H   H59       1.0  0.7300414845009868  0.20421468762617684  0.22620020640659533  1.0000
  H   H60       1.0  0.27001481187099324  0.795849636495518  0.7738472069583083  1.0000
  H   H61       1.0  0.7699728738220201  0.29575006096972345  0.726205365550591  1.0000
  H   H62       1.0  0.23001161781653678  0.7041415277255113  0.2738296087963406  1.0000
  H   H63       1.0  0.10620502602805003  0.8224196428201792  0.8703451344330944  1.0000
  H   H64       1.0  0.893815162005076  0.17759673240833249  0.12964742152389871  1.0000
  C   C1        1.0  0.3241347050853705  0.7003454754532896  0.8895464464097317  1.0000
  C   C2        1.0  0.675890208607804  0.2996815191503542  0.1104873947426412  1.0000
  C   C3        1.0  0.5858086328469696  0.4756954474278031  0.766713320214727  1.0000
  C   C4        1.0  0.4142155495583779  0.5242689004275575  0.23329733377700995  1.0000
  C   C5        1.0  0.9142202617823829  0.024296604192819888  0.2667134289151178  1.0000
  C   C6        1.0  0.0857986397200463  0.9757029681255247  0.7332836516371658  1.0000
  C   C7        1.0  0.17588472379991066  0.7996841673239885  0.38950447956197115  1.0000
  C   C8        1.0  0.8241277834100559  0.20030888656946638  0.610475634597684  1.0000
  C   C9        1.0  0.9694753075224372  0.7171620884951225  0.7393535406005399  1.0000
  C   C10       1.0  0.030525974609801696  0.28283606977976916  0.260629967111342  1.0000
  C   C11       1.0  0.3224608324642233  0.1859791217670193  0.8121824084594637  1.0000
  C   C12       1.0  0.6775402040573866  0.813973894310706  0.1878333361689642  1.0000
  C   C13       1.0  0.17746268910222085  0.31409741836225885  0.31219668330017214  1.0000
  C   C14       1.0  0.8225179507971703  0.6859378419973723  0.6877981356800973  1.0000
  C   C15       1.0  0.5304895658155075  0.7829006695748149  0.23935625755814277  1.0000
  C   C16       1.0  0.4694541320721301  0.21714327766139968  0.7606408244649715  1.0000
  C   C17       1.0  0.32646684185908736  0.7033193075064759  0.35130412011555023  1.0000
  C   C18       1.0  0.6735361076622581  0.29666261988175785  0.6486873054352815  1.0000
  C   C19       1.0  0.7968671900451342  0.16838923640203524  0.20961967260853953  1.0000
  C   C20       1.0  0.2031696793783908  0.8316589103962143  0.7904119058667122  1.0000
  C   C21       1.0  0.7031550185210733  0.3316014516837952  0.709625807399462  1.0000
  C   C22       1.0  0.296843063308998  0.6683388623786969  0.29040068291870824  1.0000
  C   C23       1.0  0.17355162412852115  0.7966973996476269  0.8513184872648129  1.0000
  C   C24       1.0  0.8264804839885116  0.20333541182465348  0.1487000837235328  1.0000
  C   C25       1.0  0.5114337615259928  0.6301030699918185  0.12449463975930543  1.0000
  C   C26       1.0  0.48852908417512  0.36990719617094914  0.8754973520911877  1.0000
  C   C27       1.0  0.2811423775790871  0.3116413739100921  0.16162859653139353  1.0000
  C   C28       1.0  0.718822657408012  0.688338491553985  0.8383300278637409  1.0000
  C   C29       1.0  0.21880976863798202  0.18834322794803876  0.6616640126310787  1.0000
  C   C30       1.0  0.7811787233177653  0.8116418936637328  0.3383466420610263  1.0000
  C   C31       1.0  0.9885558277003246  0.8698929725368175  0.6244783250265231  1.0000
  C   C32       1.0  0.011456262345525698  0.1301041391154598  0.37551196907115525  1.0000
  C   C33       1.0  0.2988126181734572  0.5958926869141762  0.16562148532710813  1.0000
  C   C34       1.0  0.7011906764954859  0.4040393606517014  0.8343976527374013  1.0000
  C   C35       1.0  0.7792115951509474  0.35500675532527015  0.07100653834002202  1.0000
  C   C36       1.0  0.22080803691568462  0.6450190735794975  0.9289950664076587  1.0000
  C   C37       1.0  0.7208086627137009  0.14498744526954974  0.5710075007628533  1.0000
  C   C38       1.0  0.2792156941606335  0.8549883526990952  0.4289907109569315  1.0000
  C   C39       1.0  0.20119574921285738  0.9040716776053442  0.6656095678422035  1.0000
  C   C40       1.0  0.7988121012829268  0.0959444492543895  0.3343937339317052  1.0000
  C   C41       1.0  0.8223282692825652  0.5779146079973712  0.8914163360333236  1.0000
  C   C42       1.0  0.17765883527378173  0.4221366027976998  0.10857452378584041  1.0000
  C   C43       1.0  0.4383598298024866  0.31423354982683066  0.9746891736711163  1.0000
  C   C44       1.0  0.5616608431198671  0.6857518097162297  0.025327135768819203  1.0000
  C   C45       1.0  0.061652458595155224  0.18575706751303758  0.474691389657508  1.0000
  C   C46       1.0  0.9383637667543145  0.8142311409279371  0.5252983388585478  1.0000
  C   C47       1.0  0.6776795210983835  0.9220981319888252  0.3914169658062293  1.0000
  C   C48       1.0  0.3223062604540345  0.07789516979549657  0.6085919922251366  1.0000
  C   C49       1.0  0.233327273536844  0.720034780484994  0.8905059803781087  1.0000
  C   C50       1.0  0.7667010114077826  0.2800008584459164  0.10953012283525251  1.0000
  C   C51       1.0  0.6629487866976191  0.40247856221905204  0.7629460171402445  1.0000
  C   C52       1.0  0.33705770561394394  0.5974628095421791  0.2370702930034909  1.0000
  C   C53       1.0  0.8370724152043465  0.0975103690018884  0.2629486922382967  1.0000
  C   C54       1.0  0.16295062251688816  0.9025166902445534  0.7370591335036069  1.0000
  C   C55       1.0  0.2667001675733758  0.7799851556310456  0.39046782698203947  1.0000
  C   C56       1.0  0.73332279964923  0.21999608137384286  0.609519639213005  1.0000
  C   C57       1.0  0.5414177591600193  0.7030420071827309  0.10155899428636421  1.0000
  C   C58       1.0  0.45856006417621853  0.2969508951587939  0.8984426117481592  1.0000
  C   C59       1.0  0.1925106750579531  0.3619985926895879  0.16992814505466214  1.0000
  C   C60       1.0  0.8074733358020582  0.6380210518669285  0.8300491418157777  1.0000
  C   C61       1.0  0.3074499020018564  0.13802416602592865  0.669958365422808  1.0000
  C   C62       1.0  0.6925543678196675  0.8619671503611953  0.3300568132614928  1.0000
  C   C63       1.0  0.9585935990196435  0.7969437510969964  0.6015294929262966  1.0000
  C   C64       1.0  0.0414277003221173  0.20304158676998435  0.398453448848919  1.0000
  C   C65       1.0  0.8767675610655986  0.759713408399186  0.7733423833640388  1.0000
  C   C66       1.0  0.12323521549142667  0.24029345894602017  0.2266501730946261  1.0000
  C   C67       1.0  0.41525994669273564  0.1436943546575904  0.8464518958378805  1.0000
  C   C68       1.0  0.5847611783622922  0.8562916631569806  0.1535519714112397  1.0000
  C   C69       1.0  0.0846641180834382  0.3563708583599094  0.34642419406792163  1.0000
  C   C70       1.0  0.9153149926878539  0.6436509768679597  0.6535536584574545  1.0000
  C   C71       1.0  0.6231849389744327  0.7403061201860979  0.2733808653722961  1.0000
  C   C72       1.0  0.3767549693078607  0.25970898045672186  0.7266388391134699  1.0000
  C   C73       1.0  0.04646239349811761  0.37855322223900595  0.264270397415217  1.0000
  C   C74       1.0  0.9535155350532776  0.6214538281572288  0.735712545239835  1.0000
  C   C75       1.0  0.6623404194074496  0.7188526824890217  0.19243412697059634  1.0000
  C   C76       1.0  0.3376139793296176  0.2811275499577449  0.8075974540671923  1.0000
  C   C77       1.0  0.8376421532423566  0.7810967226956363  0.6923830644712511  1.0000
  C   C78       1.0  0.16236545495618773  0.21893491198954249  0.3076027050273496  1.0000
  C   C79       1.0  0.45346018164235613  0.12144429849237065  0.7642920751908664  1.0000
  C   C80       1.0  0.5465225433850023  0.8785706731543641  0.23567842510836812  1.0000
  C   C81       1.0  0.1402615526682141  0.33640902811119133  0.22944507128943317  1.0000
  C   C82       1.0  0.8597271850160483  0.6636212356839195  0.7705288220590419  1.0000
  C   C83       1.0  0.5685227735965553  0.7604259027576391  0.15710708537637433  1.0000
  C   C84       1.0  0.4314420875125435  0.2395789027705817  0.8428877342364062  1.0000
  C   C85       1.0  0.9314825267799592  0.7395555869128715  0.6570883231206894  1.0000
  C   C86       1.0  0.06852184798604809  0.26043774747846266  0.34290310230250043  1.0000
  C   C87       1.0  0.3596963405940983  0.1636342967068884  0.7294678042199366  1.0000
  C   C88       1.0  0.6402940980276952  0.8363723223162153  0.27055076799700833  1.0000
  N   N1        1.0  0.3621877262702781  0.6201784146016536  0.922904207493808  1.0000
  N   N2        1.0  0.6378330865961033  0.3798500692190601  0.07713133040650183  1.0000
  N   N3        1.0  0.5794773654534496  0.5160677812209755  0.8355534345950563  1.0000
  N   N4        1.0  0.420548867475823  0.4838958220128901  0.16445212937233586  1.0000
  N   N5        1.0  0.9205425799366367  0.983925429540747  0.3355491406231509  1.0000
  N   N6        1.0  0.07945672104339253  0.0160707754003795  0.6644411537935044  1.0000
  N   N7        1.0  0.13783104146060052  0.8798520688128804  0.4228656167159316  1.0000
  N   N8        1.0  0.8621875473599376  0.12014144924047089  0.5771201528256144  1.0000
  N   N9        1.0  0.5164843976944838  0.5714214915405762  0.06791929639553021  1.0000
  N   N10       1.0  0.48350628474784685  0.4285817495606707  0.9320738259407195  1.0000
  N   N11       1.0  0.3166472234329377  0.3378528934217755  0.10112348587975362  1.0000
  N   N12       1.0  0.6833036328513489  0.6621315043656821  0.8988238277562389  1.0000
  N   N13       1.0  0.1833055732038176  0.16211929489491436  0.6011655836045336  1.0000
  N   N14       1.0  0.8166743693300018  0.8378580348694838  0.39884394025257563  1.0000
  N   N15       1.0  0.9835220059700519  0.9285636185939766  0.5679022714855436  1.0000
  N   N16       1.0  0.016486747689747002  0.07142956477346023  0.43208745717203817  1.0000
  N   N17       1.0  0.3492718110823532  0.5296898986755849  0.12313812164366311  1.0000
  N   N18       1.0  0.650744343051791  0.47026461769014816  0.8768742292839137  1.0000
  N   N19       1.0  0.7016646717076969  0.4153251842692925  0.052516602972446015  1.0000
  N   N20       1.0  0.2983522493017788  0.5846966948024601  0.9474929196208352  1.0000
  N   N21       1.0  0.798357592273348  0.08466482399976627  0.5525147692486244  1.0000
  N   N22       1.0  0.20166610467736493  0.9153184095251204  0.44747835244621836  1.0000
  N   N23       1.0  0.15073977783820425  0.9702654108360206  0.623126453366986  1.0000
  N   N24       1.0  0.8492722421820957  0.02972226876595131  0.3768717585565967  1.0000
  N   N25       1.0  0.7473079673584593  0.5938133943614119  0.9327537656161341  1.0000
  N   N26       1.0  0.252673575940733  0.4061989224782678  0.06721843139366969  1.0000
  N   N27       1.0  0.4509894272286843  0.3961900302945267  0.994945755042764  1.0000
  N   N28       1.0  0.5490373975950436  0.6038052254276352  0.005058111992234201  1.0000
  N   N29       1.0  0.049025037889762806  0.10381475111134358  0.49495161807928423  1.0000
  N   N30       1.0  0.9509893806438541  0.896182954124704  0.5050375448500547  1.0000
  N   N31       1.0  0.7526884237139769  0.9061823959700276  0.43276231022975525  1.0000
  N   N32       1.0  0.24729131037507568  0.0937908976165645  0.5672392959179363  1.0000
