data_image0
_chemical_formula_structural       Ca4H48C24O40
_chemical_formula_sum              "Ca4 H48 C24 O40"
_cell_length_a       6.7186733440023385
_cell_length_b       11.430190809056338
_cell_length_c       14.802738123045254
_cell_angle_alpha    89.99971667718668
_cell_angle_beta     89.99993946326323
_cell_angle_gamma    90.00013887499875

_space_group_name_H-M_alt    "P 1"
_space_group_IT_number       1

loop_
  _space_group_symop_operation_xyz
  'x, y, z'

loop_
  _atom_site_type_symbol
  _atom_site_label
  _atom_site_symmetry_multiplicity
  _atom_site_fract_x
  _atom_site_fract_y
  _atom_site_fract_z
  _atom_site_occupancy
  Ca  Ca1       1.0  0.001262162952365  0.9999930162968266  0.2500024862978023  1.0000
  Ca  Ca2       1.0  0.49873926194167234  0.5000025654885931  0.7499986441768698  1.0000
  Ca  Ca3       1.0  0.9987173124441499  3.1952959602999995e-06  0.7500014934521887  1.0000
  Ca  Ca4       1.0  0.501269981278803  0.5000058943886785  0.2500019577872905  1.0000
  H   H1        1.0  0.3483855204119378  0.9963213903357442  0.4892115151337464  1.0000
  H   H2        1.0  0.3483872325989878  0.0036780541766248003  0.010789787207230003  1.0000
  H   H3        1.0  0.1516188576481241  0.4963287322775756  0.5107876029097369  1.0000
  H   H4        1.0  0.1515931405338122  0.503680555109895  0.9892017807842992  1.0000
  H   H5        1.0  0.6516043736724343  0.0036625730086398997  0.5107884113327685  1.0000
  H   H6        1.0  0.6515952196090922  0.996327781062  0.9892114903204929  1.0000
  H   H7        1.0  0.84840675785307  0.5036788527416006  0.489208945747194  1.0000
  H   H8        1.0  0.848380381355625  0.496326155046745  0.010785310179770101  1.0000
  H   H9        1.0  0.05828972248717431  0.1281397384793124  0.5140559816224979  1.0000
  H   H10       1.0  0.05828275088249061  0.8718581168925893  0.9859408874432634  1.0000
  H   H11       1.0  0.4417420561128296  0.6281455989411738  0.4859398332548538  1.0000
  H   H12       1.0  0.4417044546409628  0.37186002833705334  0.014055334815992606  1.0000
  H   H13       1.0  0.9417224974583435  0.8718529736217563  0.4859473225740558  1.0000
  H   H14       1.0  0.9417056548684427  0.12814334396987448  0.014059714540501004  1.0000
  H   H15       1.0  0.5583029084075762  0.3718497378217408  0.514056039869466  1.0000
  H   H16       1.0  0.5582809743646209  0.6281510561672405  0.9859432404979318  1.0000
  H   H17       1.0  0.33832091070785003  0.9140406596158004  0.3344504446168983  1.0000
  H   H18       1.0  0.3383079845678836  0.08595790369975727  0.1655495124840911  1.0000
  H   H19       1.0  0.1616888918801251  0.4140487805430482  0.6655523697890615  1.0000
  H   H20       1.0  0.1616788711330557  0.5859570136562765  0.8344410613527415  1.0000
  H   H21       1.0  0.6616585646885582  0.08595205251124581  0.6655413752273915  1.0000
  H   H22       1.0  0.6616580953532322  0.9140470566427723  0.834456493904945  1.0000
  H   H23       1.0  0.838324816491884  0.5859526803508145  0.3344408011297162  1.0000
  H   H24       1.0  0.8382961391111438  0.41404094771916516  0.16555278513477134  1.0000
  H   H25       1.0  0.8867823660150548  0.16318263361968383  0.4030728271433902  1.0000
  H   H26       1.0  0.8867863003345847  0.8368110248678275  0.0969281619773383  1.0000
  H   H27       1.0  0.6132327678492614  0.663176213681254  0.5969326944357647  1.0000
  H   H28       1.0  0.6132150660810326  0.3368307389259114  0.9030699317146189  1.0000
  H   H29       1.0  0.1132283655817261  0.8368232016150258  0.5969325036802644  1.0000
  H   H30       1.0  0.11320210540194611  0.1631851867469649  0.903069737813823  1.0000
  H   H31       1.0  0.3867824289109763  0.3368278718091843  0.4030706097379025  1.0000
  H   H32       1.0  0.3867822700290375  0.6631785958215274  0.09693134580200542  1.0000
  H   H33       1.0  0.7856350085896365  0.7658274364728894  0.2520367946416968  1.0000
  H   H34       1.0  0.7856779548372685  0.23417053289199422  0.24796290220388786  1.0000
  H   H35       1.0  0.7143495291131785  0.26583507017094377  0.7479636005972878  1.0000
  H   H36       1.0  0.7143569845251961  0.7341701961836191  0.752041668923674  1.0000
  H   H37       1.0  0.21435042037251859  0.23417052488663612  0.7479631317990184  1.0000
  H   H38       1.0  0.2143699864637583  0.7658248038803777  0.752030268716787  1.0000
  H   H39       1.0  0.2856329231183565  0.7341786389455862  0.2520397035672702  1.0000
  H   H40       1.0  0.28566118899040305  0.2658277651648646  0.2479650130144506  1.0000
  H   H41       1.0  0.7578215512288011  0.8154369622854035  0.35054010435641203  1.0000
  H   H42       1.0  0.7578405446594517  0.1845487413217839  0.1494656886575569  1.0000
  H   H43       1.0  0.7421796777552175  0.31545748359304326  0.6494675298095773  1.0000
  H   H44       1.0  0.7421657962605083  0.6845460504861478  0.8505356968777279  1.0000
  H   H45       1.0  0.2421475054098252  0.1845487507895811  0.6494645509676291  1.0000
  H   H46       1.0  0.2421701869285542  0.8154535944173276  0.8505369399700982  1.0000
  H   H47       1.0  0.2578355190128931  0.6845509762562471  0.3505425298625511  1.0000
  H   H48       1.0  0.2578315398286435  0.3154571601247866  0.14946693175213716  1.0000
  C   C1        1.0  0.3188517034538449  0.13007807812020641  0.3849946443443457  1.0000
  C   C2        1.0  0.3188453987789189  0.869911724229851  0.114999244142318  1.0000
  C   C3        1.0  0.18117859923874144  0.6300890842701178  0.6149984608149525  1.0000
  C   C4        1.0  0.1811656085294615  0.36993246997670326  0.8849821234952275  1.0000
  C   C5        1.0  0.6811545629268848  0.8699102596180167  0.615002579906168  1.0000
  C   C6        1.0  0.6811385418000668  0.13008711201590015  0.884997304543667  1.0000
  C   C7        1.0  0.8188589234255589  0.3699307490556548  0.3849859279023207  1.0000
  C   C8        1.0  0.8188302391552611  0.6300646165164565  0.11501577629206851  1.0000
  C   C9        1.0  0.24812454297951095  0.0194244572728977  0.4333886286147859  1.0000
  C   C10       1.0  0.2481190383803664  0.9805626760100593  0.0666127320823833  1.0000
  C   C11       1.0  0.2519050482412766  0.5194296892357925  0.5666055805858009  1.0000
  C   C12       1.0  0.25187184287700154  0.4805761616173072  0.9333857714242202  1.0000
  C   C13       1.0  0.7518653510973864  0.9805577563130252  0.5666133245072018  1.0000
  C   C14       1.0  0.7518663905655815  0.019431785828267295  0.9333925987706523  1.0000
  C   C15       1.0  0.7481309859468723  0.4805665223982202  0.4333909680901159  1.0000
  C   C16       1.0  0.748112097720096  0.5194279238889123  0.0666094261502224  1.0000
  C   C17       1.0  0.0420675566582176  0.0496949826966429  0.47160655931296713  1.0000
  C   C18       1.0  0.04206341584487921  0.9502990201937251  0.028394921251219802  1.0000
  C   C19       1.0  0.457911623953791  0.5497075842380922  0.5284199591060458  1.0000
  C   C20       1.0  0.45790196818803963  0.4503001456801171  0.9715915395628941  1.0000
  C   C21       1.0  0.9579372213597068  0.9503021037950533  0.5283926915731244  1.0000
  C   C22       1.0  0.9579160595615904  0.049698941166056394  0.9716043296405347  1.0000
  C   C23       1.0  0.542118456682509  0.4502921268747214  0.4715840206224514  1.0000
  C   C24       1.0  0.5420834608000433  0.5497056895658402  0.028407711311878407  1.0000
  O   O1        1.0  0.2789019524957297  0.13716570313287238  0.30047446836665165  1.0000
  O   O2        1.0  0.278896935829934  0.8628249489907487  0.19952417221498567  1.0000
  O   O3        1.0  0.2211239306007471  0.637177950496401  0.6995219870998926  1.0000
  O   O4        1.0  0.2211006303156111  0.36282263173504953  0.8004815427378915  1.0000
  O   O5        1.0  0.7210879416199205  0.8628287587153876  0.6995281602823198  1.0000
  O   O6        1.0  0.7210870047453427  0.1371738872422128  0.8004764297751665  1.0000
  O   O7        1.0  0.7789418714142331  0.36283313403099277  0.30047726374134254  1.0000
  O   O8        1.0  0.7789086128373626  0.6371648311174171  0.19951905926691185  1.0000
  O   O9        1.0  0.22108644777426179  0.9222485874487558  0.37319464618331477  1.0000
  O   O10       1.0  0.2210660978710095  0.07774815247991279  0.1268087568819922  1.0000
  O   O11       1.0  0.27892191919637815  0.42225527686564845  0.6268047586891683  1.0000
  O   O12       1.0  0.27891177470905865  0.5777479663349894  0.8731859020505084  1.0000
  O   O13       1.0  0.7789064231226349  0.0777458744111001  0.6268046047113174  1.0000
  O   O14       1.0  0.778897005269762  0.922255932987774  0.8731965739589074  1.0000
  O   O15       1.0  0.7210962543503854  0.577749683520956  0.3731924655256976  1.0000
  O   O16       1.0  0.7210706774776483  0.42224737043387967  0.1268018644836815  1.0000
  O   O17       1.0  0.907449855341845  0.07453671332728358  0.3991250745102947  1.0000
  O   O18       1.0  0.9074424452473907  0.9254490842576925  0.10087387595285692  1.0000
  O   O19       1.0  0.5925661969613786  0.5745285057629913  0.6008713326220987  1.0000
  O   O20       1.0  0.5925475839507329  0.42546706049414945  0.8991259011685317  1.0000
  O   O21       1.0  0.09255194589394482  0.9254612480160559  0.6008816074325907  1.0000
  O   O22       1.0  0.0925414952963237  0.0745401283367642  0.8991274016066202  1.0000
  O   O23       1.0  0.40746090685733793  0.42545720735154174  0.39912656717812933  1.0000
  O   O24       1.0  0.4074423102330442  0.5745483983810474  0.10087605188908812  1.0000
  O   O25       1.0  0.39548608522597567  0.20779931014579486  0.4338577287623551  1.0000
  O   O26       1.0  0.3954808587599672  0.7922019137078422  0.0661394928706684  1.0000
  O   O27       1.0  0.10453429844778131  0.7078079520350187  0.5661350754478534  1.0000
  O   O28       1.0  0.10448499711546329  0.2921916821017589  0.933866495577263  1.0000
  O   O29       1.0  0.6045350650517988  0.7921925270841825  0.566144899882602  1.0000
  O   O30       1.0  0.6045045702306453  0.207805671279516  0.9338631357541871  1.0000
  O   O31       1.0  0.895500247361646  0.2921926339658967  0.43386552652418703  1.0000
  O   O32       1.0  0.8955019202292361  0.7078054043694021  0.0661374841688698  1.0000
  O   O33       1.0  0.7883664064765625  0.8398304593135107  0.2891270858263297  1.0000
  O   O34       1.0  0.788404479693277  0.1601710112543344  0.21087733827966562  1.0000
  O   O35       1.0  0.7116126534394666  0.33982870180567903  0.7108797783806724  1.0000
  O   O36       1.0  0.7116210535849206  0.6601791874734886  0.7891207638723544  1.0000
  O   O37       1.0  0.21159520827013267  0.16017187640377978  0.710877569467698  1.0000
  O   O38       1.0  0.2116002983809011  0.8398435727580349  0.7891219125725472  1.0000
  O   O39       1.0  0.28838170585437695  0.6601701344134909  0.28912622801199467  1.0000
  O   O40       1.0  0.28841349226230767  0.3398327719201291  0.21087848697627723  1.0000
