data_image0
_chemical_formula_structural       Cd2H12C20Br4N4Cl8
_chemical_formula_sum              "Cd2 H12 C20 Br4 N4 Cl8"
_cell_length_a       3.8900182113043673
_cell_length_b       14.321542488624095
_cell_length_c       14.32158018795337
_cell_angle_alpha    91.07130862944221
_cell_angle_beta     96.08555221758299
_cell_angle_gamma    96.08548655752915

_space_group_name_H-M_alt    "P 1"
_space_group_IT_number       1

loop_
  _space_group_symop_operation_xyz
  'x, y, z'

loop_
  _atom_site_type_symbol
  _atom_site_label
  _atom_site_symmetry_multiplicity
  _atom_site_fract_x
  _atom_site_fract_y
  _atom_site_fract_z
  _atom_site_occupancy
  Cd  Cd1       1.0  1.6684392746973082e-06  0.5000003867412275  0.5000000859602309  1.0000
  Cd  Cd2       1.0  9.794808590931008e-07  0.9999983708424409  1.665312325391233e-06  1.0000
  H   H1        1.0  0.7461683537383125  0.5224868314438281  0.2797101519216341  1.0000
  H   H2        1.0  0.25382958320825827  0.7202903626552556  0.4775093522703885  1.0000
  H   H3        1.0  0.25383223384422854  0.47751176003224327  0.7202910157449909  1.0000
  H   H4        1.0  0.7461663742640142  0.27970963126463744  0.5224882185699828  1.0000
  H   H5        1.0  2.0235468415848053e-07  0.807371373876677  0.19263013329669582  1.0000
  H   H6        1.0  2.858132269525495e-06  0.19262869736963492  0.8073707160704446  1.0000
  H   H7        1.0  0.9410973505012166  0.7732836249140573  0.9767959186017594  1.0000
  H   H8        1.0  0.05890890339750139  0.023203672844402893  0.22671640942327545  1.0000
  H   H9        1.0  0.05890692812668868  0.22671777608363183  0.0232026126953713  1.0000
  H   H10       1.0  0.9410899239023606  0.9767970244716012  0.7732819541199376  1.0000
  H   H11       1.0  0.20107051136736948  0.7000285821873008  0.700030070716146  1.0000
  H   H12       1.0  0.7989329420642478  0.29997071239341727  0.29997119128717037  1.0000
  C   C1        1.0  0.8584454240044791  0.5950307773519297  0.294146326916696  1.0000
  C   C2        1.0  0.14155139452824986  0.7058542847086144  0.40496993157958633  1.0000
  C   C3        1.0  0.14155313088228644  0.40496921801939584  0.7058534124393392  1.0000
  C   C4        1.0  0.8584477250772337  0.2941471160094054  0.595030547981523  1.0000
  C   C5        1.0  0.8527257616404998  0.6621066167681279  0.22464865046549687  1.0000
  C   C6        1.0  0.14727217266538156  0.7753521185731386  0.3378938984630936  1.0000
  C   C7        1.0  0.14727566307384884  0.3378940819993161  0.7753518815933804  1.0000
  C   C8        1.0  0.8527284188956655  0.2246464731944045  0.6621079675696748  1.0000
  C   C9        1.0  6.769851240994334e-07  0.7541372510348554  0.24586221395552604  1.0000
  C   C10       1.0  0.9999997821088298  0.24586281846855942  0.7541357685298068  1.0000
  C   C11       1.0  0.9768905110244576  0.7905275098061184  0.9043736295837377  1.0000
  C   C12       1.0  0.02311288854316731  0.09562867578664222  0.20947026717876585  1.0000
  C   C13       1.0  0.023104897643129597  0.2094710799329533  0.09562599451614773  1.0000
  C   C14       1.0  0.97688363364783  0.9043727234799376  0.7905280438666795  1.0000
  C   C15       1.0  0.06772753779655012  0.7243831741330311  0.8410988013277463  1.0000
  C   C16       1.0  0.932274542855005  0.1588983362456133  0.2756162918889942  1.0000
  C   C17       1.0  0.9322715857874468  0.2756182268764533  0.1589023765995137  1.0000
  C   C18       1.0  0.06772289055133746  0.8410988490152678  0.724383363789187  1.0000
  C   C19       1.0  0.1200107294649726  0.7496693104733579  0.749670887198029  1.0000
  C   C20       1.0  0.8799901305306577  0.25032998294739167  0.2503289046557668  1.0000
  Br  Br1       1.0  0.5765161863587452  0.5996966434075899  0.5996971753963792  1.0000
  Br  Br2       1.0  0.4234849619640073  0.4003033531237036  0.40030403410917614  1.0000
  Br  Br3       1.0  0.49999992937024024  0.9036198843662221  0.09638052491311563  1.0000
  Br  Br4       1.0  0.5000014913656017  0.0963808141097573  0.9036193087796109  1.0000
  N   N1        1.0  4.922734007421877e-07  0.6178353174434221  0.38216585298869193  1.0000
  N   N2        1.0  5.47453296937609e-07  0.38216615857254516  0.6178356631662965  1.0000
  N   N3        1.0  0.9389169072430547  0.8787272039988421  0.8787242129627517  1.0000
  N   N4        1.0  0.061076468728757  0.1212727896354835  0.12127398282654411  1.0000
  Cl  Cl1       1.0  0.6615253658153365  0.6303548397691472  0.1126934510658231  1.0000
  Cl  Cl2       1.0  0.33847896838178587  0.8873082712520316  0.3696470489728938  1.0000
  Cl  Cl3       1.0  0.33847836798639  0.3696451573391855  0.8873078318569585  1.0000
  Cl  Cl4       1.0  0.6615250497685494  0.1126924286753734  0.6303549532355037  1.0000
  Cl  Cl5       1.0  0.12391180686383758  0.6121696476300186  0.8771556490240047  1.0000
  Cl  Cl6       1.0  0.8760901805381778  0.12284499669997472  0.3878295910095063  1.0000
  Cl  Cl7       1.0  0.8760838861523579  0.3878296449281321  0.12284469436148981  1.0000
  Cl  Cl8       1.0  0.12391584643688704  0.877154297583381  0.6121696493126054  1.0000
