data_image0
_chemical_formula_structural       Zn2H24C32N4O10
_chemical_formula_sum              "Zn2 H24 C32 N4 O10"
_cell_length_a       7.351760128068887
_cell_length_b       9.741226494968691
_cell_length_c       10.288316202780436
_cell_angle_alpha    92.06516553810131
_cell_angle_beta     89.99887853738554
_cell_angle_gamma    90.00163106744499

_space_group_name_H-M_alt    "P 1"
_space_group_IT_number       1

loop_
  _space_group_symop_operation_xyz
  'x, y, z'

loop_
  _atom_site_type_symbol
  _atom_site_label
  _atom_site_symmetry_multiplicity
  _atom_site_fract_x
  _atom_site_fract_y
  _atom_site_fract_z
  _atom_site_occupancy
  Zn  Zn1       1.0  0.4882375588232364  0.29965114013226196  0.26264870940541835  1.0000
  Zn  Zn2       1.0  0.9882454840613378  0.7003465891546127  0.7373494278530188  1.0000
  H   H1        1.0  0.4326578531037343  0.9728536805942696  0.2829617792427896  1.0000
  H   H2        1.0  0.9326667752172145  0.027146995393785296  0.7170401567921232  1.0000
  H   H3        1.0  0.3881566425042138  0.7721581468117832  0.1261383991330476  1.0000
  H   H4        1.0  0.888156648528316  0.2278405686655843  0.8738641007806648  1.0000
  H   H5        1.0  0.38144267635528456  0.8154685878712654  0.8845794716457364  1.0000
  H   H6        1.0  0.8814452582806924  0.184532042393343  0.11542415849825009  1.0000
  H   H7        1.0  0.41188450268849414  0.9843675847525476  0.707891076580772  1.0000
  H   H8        1.0  0.9118976929179966  0.015629572882431796  0.2921100644288543  1.0000
  H   H9        1.0  0.46578328807132163  0.2223689951652972  0.6414456108571045  1.0000
  H   H10       1.0  0.9657921416416501  0.7776303188189784  0.3585538681009695  1.0000
  H   H11       1.0  0.5363375879881503  0.47443376785355434  0.7084360289034564  1.0000
  H   H12       1.0  0.03633604264732071  0.5255668020174226  0.29155983944113467  1.0000
  H   H13       1.0  0.5893407158537233  0.6468756097981013  0.8856138495435885  1.0000
  H   H14       1.0  0.08933338101145691  0.35313017714207007  0.11437852682263382  1.0000
  H   H15       1.0  0.5661607079174118  0.5751169676661119  0.1209588626852991  1.0000
  H   H16       1.0  0.06615578281718372  0.42488730707415806  0.879034763063423  1.0000
  H   H17       1.0  0.823765124758957  0.1409045614593225  0.5621563502384959  1.0000
  H   H18       1.0  0.3237980460056562  0.8590958933941552  0.4378539206497011  1.0000
  H   H19       1.0  0.14473199878884918  0.07834530417134997  0.5620051303612783  1.0000
  H   H20       1.0  0.6447672589031584  0.9216554922626582  0.437996017597321  1.0000
  H   H21       1.0  0.43329794761250184  0.5299739807011292  0.4112056033220525  1.0000
  H   H22       1.0  0.9332944043240591  0.47002259421027764  0.5887913280568853  1.0000
  H   H23       1.0  0.6398480477641969  0.48891078120545456  0.3862339580388081  1.0000
  H   H24       1.0  0.13984811526422905  0.5110837447007623  0.6137631636025986  1.0000
  C   C1        1.0  0.4306178321864636  0.9861413411353367  0.178323364939196  1.0000
  C   C2        1.0  0.9306261406799481  0.013860321475888802  0.8216805765507261  1.0000
  C   C3        1.0  0.4063996036988657  0.8746896329395355  0.08939894926335508  1.0000
  C   C4        1.0  0.9064056287909427  0.12531152179398927  0.9106053175942606  1.0000
  C   C5        1.0  0.4034474999622831  0.8979333824012483  0.9574452504276106  1.0000
  C   C6        1.0  0.9034530240954481  0.10206771042171427  0.0425590560925144  1.0000
  C   C7        1.0  0.42791161460775856  0.03311250963666619  0.9149131959612831  1.0000
  C   C8        1.0  0.9279173285196407  0.9668890929324049  0.0850878658630805  1.0000
  C   C9        1.0  0.43251433198624784  0.06706803900066657  0.7806063008812317  1.0000
  C   C10       1.0  0.9325219301125928  0.9329357123922433  0.21939282310870564  1.0000
  C   C11       1.0  0.4629100304391188  0.19898737057361154  0.7445318896726505  1.0000
  C   C12       1.0  0.9629171159483293  0.8010108559088067  0.2554675938782367  1.0000
  C   C13       1.0  0.49037631259967907  0.3075563423676114  0.8403775156280487  1.0000
  C   C14       1.0  0.9903750959640976  0.6924465689184699  0.15962173506709829  1.0000
  C   C15       1.0  0.5282287593475702  0.44482914583471717  0.8095044919428034  1.0000
  C   C16       1.0  0.028222905602746103  0.5551692016642136  0.19049336135427097  1.0000
  C   C17       1.0  0.5565449097461511  0.5418525458708386  0.9090831058231429  1.0000
  C   C18       1.0  0.056538091634230604  0.45815152829589323  0.09091162113173108  1.0000
  C   C19       1.0  0.5451273980949054  0.5028798878145934  0.0388685089787799  1.0000
  C   C20       1.0  0.0451216156083518  0.4971239480275711  0.9611273433671454  1.0000
  C   C21       1.0  0.4829988280797367  0.2775191415454827  0.9743408413707044  1.0000
  C   C22       1.0  0.9829996508371155  0.7224836139682793  0.0256575364083531  1.0000
  C   C23       1.0  0.45190919734154994  0.13852593067628052  0.011980161417518802  1.0000
  C   C24       1.0  0.9519150549182812  0.8614751478897419  0.9880205439987575  1.0000
  C   C25       1.0  0.8287729009905932  0.2947675692931425  0.4151150773546349  1.0000
  C   C26       1.0  0.32878923585440845  0.7052288738530875  0.5848881862030949  1.0000
  C   C27       1.0  0.9192774137764488  0.19174548356666318  0.4979675350809741  1.0000
  C   C28       1.0  0.4193175611206713  0.8082549143395849  0.5020365245255007  1.0000
  C   C29       1.0  0.0954495515640161  0.1566413123324111  0.49757380722349603  1.0000
  C   C30       1.0  0.5954773931268066  0.8433574233445709  0.5024279688358959  1.0000
  C   C31       1.0  0.23354259622874454  0.2171231819884908  0.4116332924971573  1.0000
  C   C32       1.0  0.7335726306077391  0.782874338405591  0.5883645482771342  1.0000
  N   N1        1.0  0.45179273878137866  0.11421564138115059  0.14064822915020866  1.0000
  N   N2        1.0  0.9518016365607026  0.8857864630946394  0.8593534838420779  1.0000
  N   N3        1.0  0.5087305390526781  0.3742969540476437  0.0704793312535585  1.0000
  N   N4        1.0  0.008729103034177399  0.6257071447444887  0.9295160720316176  1.0000
  O   O1        1.0  0.18661503081955297  0.2938537135676  0.319634414766611  1.0000
  O   O2        1.0  0.6866301582978239  0.7061397387325387  0.6803620104590208  1.0000
  O   O3        1.0  0.40123221931527553  0.18725788339336447  0.4314666877694009  1.0000
  O   O4        1.0  0.901261196810097  0.8127390521184663  0.5685355682519599  1.0000
  O   O5        1.0  0.5204094540860567  0.5000432531986833  0.34035487283058063  1.0000
  O   O6        1.0  0.020405139147015902  0.4999518475635369  0.6596420114323962  1.0000
  O   O7        1.0  0.7547870489750821  0.2472278115774031  0.3110501440865789  1.0000
  O   O8        1.0  0.2547969192924953  0.7527701562764759  0.6889493554469581  1.0000
  O   O9        1.0  0.816595243296476  0.41828397221232194  0.45879817928354066  1.0000
  O   O10       1.0  0.31660810100518694  0.5817122122673836  0.5412023318557146  1.0000
