data_image0
_chemical_formula_structural       H72Pb4C104N16O32
_chemical_formula_sum              "H72 Pb4 C104 N16 O32"
_cell_length_a       7.632511866725503
_cell_length_b       22.245434432569308
_cell_length_c       22.760534341647986
_cell_angle_alpha    79.3171076021598
_cell_angle_beta     80.3117761423856
_cell_angle_gamma    80.08767560812376

_space_group_name_H-M_alt    "P 1"
_space_group_IT_number       1

loop_
  _space_group_symop_operation_xyz
  'x, y, z'

loop_
  _atom_site_type_symbol
  _atom_site_label
  _atom_site_symmetry_multiplicity
  _atom_site_fract_x
  _atom_site_fract_y
  _atom_site_fract_z
  _atom_site_occupancy
  H   H1        1.0  0.18720907766163458  0.6113368469103264  0.8101829634045146  1.0000
  H   H2        1.0  0.6090610089621863  0.8886402750337722  0.6898067882550621  1.0000
  H   H3        1.0  0.8127880769156093  0.3886638685569749  0.18981711829849254  1.0000
  H   H4        1.0  0.39093900280588667  0.1113599808433392  0.31019365442432434  1.0000
  H   H5        1.0  0.3661642102371872  0.528629241486918  0.8741717766945882  1.0000
  H   H6        1.0  0.7691127081060283  0.9713865082337207  0.6258374300092484  1.0000
  H   H7        1.0  0.6338369326595483  0.47137147172492183  0.12582807367250837  1.0000
  H   H8        1.0  0.23088617253338134  0.028613290308669496  0.37416360498242796  1.0000
  H   H9        1.0  0.8874235944533881  0.444090906685922  0.9420497210238138  1.0000
  H   H10       1.0  0.27361939303605715  0.05592558265372819  0.5580298317219955  1.0000
  H   H11       1.0  0.11257794012575326  0.5559088860797345  0.057950721464308706  1.0000
  H   H12       1.0  0.7263823200945301  0.9440737349330275  0.4419693728480141  1.0000
  H   H13       1.0  0.714306244932182  0.5251666507023245  0.8767924392236138  1.0000
  H   H14       1.0  0.116442560450338  0.9748154185190359  0.6232297423306932  1.0000
  H   H15       1.0  0.285694153578362  0.4748326804555134  0.12320815729719209  1.0000
  H   H16       1.0  0.8835576348091152  0.025184366452265298  0.3767699007101868  1.0000
  H   H17       1.0  0.14281709103699566  0.408167399459245  0.9825572828691662  1.0000
  H   H18       1.0  0.5334238510682993  0.09184239760354977  0.5175008596949197  1.0000
  H   H19       1.0  0.8571842402910479  0.5918328471198677  0.017442206139037374  1.0000
  H   H20       1.0  0.4665761606997734  0.9081578582735614  0.4824995829844739  1.0000
  H   H21       1.0  0.6889690405405063  0.4155131204523883  0.0171559059927446  1.0000
  H   H22       1.0  0.12153509696648972  0.0846466185406456  0.4829227245500078  1.0000
  H   H23       1.0  0.31103229572746477  0.5844871303998147  0.9828440212950651  1.0000
  H   H24       1.0  0.8784632134390693  0.9153545756268285  0.5170789562387554  1.0000
  H   H25       1.0  0.780816063352752  0.33746832278186634  0.10695979182619203  1.0000
  H   H26       1.0  0.22512164529801032  0.1626997648557307  0.39312013844524774  1.0000
  H   H27       1.0  0.21918413684662857  0.6625314664625249  0.8930402894943015  1.0000
  H   H28       1.0  0.7748779896074467  0.8373014242868351  0.6068810269519318  1.0000
  H   H29       1.0  0.31336695195727066  0.26001086617543473  0.12590588466598973  1.0000
  H   H30       1.0  0.6988613881672593  0.2399920451800597  0.3740948248327172  1.0000
  H   H31       1.0  0.6866313386885708  0.7399903108996781  0.8740940430043409  1.0000
  H   H32       1.0  0.3011374875322232  0.7600077490892404  0.6259057718793528  1.0000
  H   H33       1.0  0.2115197031132752  0.3285086554819401  0.036766569461050794  1.0000
  H   H34       1.0  0.576356699544057  0.1714597588904709  0.4632108702204292  1.0000
  H   H35       1.0  0.7884785924724939  0.6714925258662703  0.9632337964888861  1.0000
  H   H36       1.0  0.42364236458673343  0.8285395687461019  0.5367893651327407  1.0000
  H   H37       1.0  0.19577943724044644  0.44189457746765015  0.3876034199200262  1.0000
  H   H38       1.0  0.025259726885757096  0.0581544375573841  0.11261352813473019  1.0000
  H   H39       1.0  0.8042230350961221  0.5581061349923785  0.6123963533351003  1.0000
  H   H40       1.0  0.9747404683736961  0.941845347413917  0.8873861149061496  1.0000
  H   H41       1.0  0.18491055814746468  0.5114390707734983  0.4625367173647987  1.0000
  H   H42       1.0  0.15872588626891837  0.9885485122970507  0.037654822528466525  1.0000
  H   H43       1.0  0.8150909714917418  0.48856071771907483  0.5374632868437175  1.0000
  H   H44       1.0  0.8412727812395387  0.011451731512615  0.9623443824240709  1.0000
  H   H45       1.0  0.3452805567821004  0.3534098623363704  0.5935407567063322  1.0000
  H   H46       1.0  0.29180371007252864  0.1465076977928845  0.9065093727559699  1.0000
  H   H47       1.0  0.6547156550977888  0.6465899291634755  0.40645955595006455  1.0000
  H   H48       1.0  0.7081960984444465  0.8534930118976832  0.09349011644349046  1.0000
  H   H49       1.0  0.3547890627423982  0.2845843579209912  0.5173973650331688  1.0000
  H   H50       1.0  0.15664116854812704  0.21538168073976036  0.9826850869174564  1.0000
  H   H51       1.0  0.6452084686974616  0.7154154242808558  0.48260199395204495  1.0000
  H   H52       1.0  0.8433605544623222  0.784617645393176  0.017314994211773193  1.0000
  H   H53       1.0  0.08553771764729134  0.5816175034994443  0.6163140022978765  1.0000
  H   H54       1.0  0.2830273926471278  0.9184534329564968  0.8837030707250335  1.0000
  H   H55       1.0  0.9144613464834919  0.41838182413712843  0.38368623305529326  1.0000
  H   H56       1.0  0.7169739436208432  0.0815468178957062  0.11629685656277637  1.0000
  H   H57       1.0  0.10791131448000604  0.6737635612828115  0.6608436549818961  1.0000
  H   H58       1.0  0.4421440129917188  0.8262972180547763  0.8390816277674134  1.0000
  H   H59       1.0  0.8920902102192798  0.3262362229366715  0.33915591094701364  1.0000
  H   H60       1.0  0.5578559987763542  0.1737030378223352  0.16091881491197307  1.0000
  H   H61       1.0  0.5541356385495887  0.5851910839455527  0.7400271072482169  1.0000
  H   H62       1.0  0.87932945451378  0.9146827583529032  0.7599145078182942  1.0000
  H   H63       1.0  0.44586474514117225  0.41480823439302117  0.25997217443377  1.0000
  H   H64       1.0  0.1206705523143654  0.08531749325112509  0.24008549658148584  1.0000
  H   H65       1.0  0.5463285118656459  0.4860091066830776  0.7001156681487117  1.0000
  H   H66       1.0  0.7324775046908272  0.0138406306486871  0.7999605454453302  1.0000
  H   H67       1.0  0.4536718767650427  0.5139902159285866  0.2998840518128745  1.0000
  H   H68       1.0  0.2675240298883139  0.9861591621169694  0.20003989704279232  1.0000
  H   H69       1.0  0.21980715069366857  0.5234764492260808  0.555185596561472  1.0000
  H   H70       1.0  0.2980457327102927  0.9764658040476916  0.9449327620443526  1.0000
  H   H71       1.0  0.7801917200658793  0.4765233407701288  0.44481456187099155  1.0000
  H   H72       1.0  0.7019516102982593  0.0235344447868755  0.055066958299761395  1.0000
  Pb  Pb1       1.0  0.6461781157879969  0.7284050820556303  0.7196636071464512  1.0000
  Pb  Pb2       1.0  0.09436153479319391  0.7715411206370035  0.7801948338821418  1.0000
  Pb  Pb3       1.0  0.3538256859884044  0.2715956296525803  0.28033608899670526  1.0000
  Pb  Pb4       1.0  0.9056386604662593  0.2284586643342905  0.21980480915873807  1.0000
  C   C1        1.0  0.8335009761759266  0.6249688980881913  0.8016285953525325  1.0000
  C   C2        1.0  0.26040836398382783  0.8749658135218397  0.6983337337460894  1.0000
  C   C3        1.0  0.16649903559214607  0.37503135778892016  0.19837184732685392  1.0000
  C   C4        1.0  0.7395916379043894  0.1250344338090983  0.3016658323740772  1.0000
  C   C5        1.0  0.9392691680909523  0.5743307328026646  0.839542741867504  1.0000
  C   C6        1.0  0.3533799934992674  0.9256354982015365  0.66046995311563  1.0000
  C   C7        1.0  0.060731037048356  0.42566906071481003  0.1604577777325957  1.0000
  C   C8        1.0  0.6466203901914866  0.0743638201370374  0.33952932856635704  1.0000
  C   C9        1.0  0.12280751202143847  0.5742895593702001  0.8392621855633632  1.0000
  C   C10       1.0  0.5365943644123022  0.9256901036613314  0.6607506990903431  1.0000
  C   C11       1.0  0.8771924948066998  0.4257106922338281  0.16073781883641655  1.0000
  C   C12       1.0  0.46340583084715087  0.07430968130996969  0.33924894395053673  1.0000
  C   C13       1.0  0.2236791260829137  0.5284170531602469  0.8752081458417607  1.0000
  C   C14       1.0  0.6274549102899272  0.9715854487775886  0.6248197686695677  1.0000
  C   C15       1.0  0.776322016813822  0.47158366005159985  0.12479170452533592  1.0000
  C   C16       1.0  0.3725452899094535  0.0284143404667958  0.3751803126509187  1.0000
  C   C17       1.0  0.13794833015605693  0.48177797691707264  0.9138014188589806  1.0000
  C   C18       1.0  0.5335922520713368  0.018236008852397793  0.5862588489392521  1.0000
  C   C19       1.0  0.8620543355517473  0.5182222731833122  0.08619843131685914  1.0000
  C   C20       1.0  0.46640794812804404  0.9817637803919863  0.41374123238124133  1.0000
  C   C21       1.0  0.9542321179391281  0.48091782877051503  0.9133581610750312  1.0000
  C   C22       1.0  0.3485820442997252  0.019094901840290397  0.5867158681981621  1.0000
  C   C23       1.0  0.04577074607983892  0.5190819632433303  0.08664220430112826  1.0000
  C   C24       1.0  0.6514183393910358  0.9809044164982836  0.41328341348382464  1.0000
  C   C25       1.0  0.8562927753381898  0.5263962301606568  0.8764623498272286  1.0000
  C   C26       1.0  0.25931282535011496  0.9735888081899019  0.6235793679063164  1.0000
  C   C27       1.0  0.14370742980111834  0.473603563356825  0.1235381697728641  1.0000
  C   C28       1.0  0.7406860355295779  0.026410973260127  0.37641991396692726  1.0000
  C   C29       1.0  0.4431855522867422  0.3800013246145681  0.018809233263390002  1.0000
  C   C30       1.0  0.8417672606830209  0.1200457157380299  0.4812051778129884  1.0000
  C   C31       1.0  0.5568142611701603  0.6199993893490898  0.9811906942156767  1.0000
  C   C32       1.0  0.15823161501646152  0.879954078531263  0.5187954188990815  1.0000
  C   C33       1.0  0.6053977482352197  0.380690999999743  0.03957749668585109  1.0000
  C   C34       1.0  0.0255009238274511  0.1194402981905469  0.46048153140588244  1.0000
  C   C35       1.0  0.3946035880327515  0.61930925085246  0.9604224306019589  1.0000
  C   C36       1.0  0.9744975651295537  0.8805604207980265  0.5395189114647607  1.0000
  C   C37       1.0  0.6569751680401908  0.33954632891333597  0.08877074190636593  1.0000
  C   C38       1.0  0.0851143496497926  0.1605956790871303  0.41129426479917436  1.0000
  C   C39       1.0  0.3430250272192623  0.660453456057958  0.9112289011345142  1.0000
  C   C40       1.0  0.9148843326784474  0.8394045775418063  0.5887062549921822  1.0000
  C   C41       1.0  0.3917357472707437  0.2946322791292175  0.09919073012255811  1.0000
  C   C42       1.0  0.7852072068643638  0.20539384040040426  0.4008153841292028  1.0000
  C   C43       1.0  0.6082627367463332  0.7053684355862656  0.9008092744684858  1.0000
  C   C44       1.0  0.21479165895525654  0.7946059453227079  0.5991843360236472  1.0000
  C   C45       1.0  0.3378275736864964  0.3349381620190286  0.04946506423573989  1.0000
  C   C46       1.0  0.7218775526006879  0.1650661098851955  0.4505326933701356  1.0000
  C   C47       1.0  0.6621707218992726  0.6650630193291747  0.950535301714197  1.0000
  C   C48       1.0  0.2781213132189323  0.8349336758379236  0.5494670267827146  1.0000
  C   C49       1.0  0.2900875747799106  0.3183643063398236  0.40043290258280706  1.0000
  C   C50       1.0  0.009053177893847021  0.181686599361143  0.0996929675251792  1.0000
  C   C51       1.0  0.7099137614880674  0.6816359445123794  0.599567024705003  1.0000
  C   C52       1.0  0.9909485401766677  0.8183127224987031  0.900306675324444  1.0000
  C   C53       1.0  0.2752173899031689  0.358685463215501  0.4477487236979626  1.0000
  C   C54       1.0  0.08171767364070348  0.1413142836825827  0.0524024150680802  1.0000
  C   C55       1.0  0.7247839414248746  0.6413147833636188  0.5522507653102409  1.0000
  C   C56       1.0  0.9182798577991563  0.8586854985192643  0.9475969439171337  1.0000
  C   C57       1.0  0.22551993963052303  0.4228522920702814  0.43309345709056407  1.0000
  C   C58       1.0  0.08146795336441673  0.0771603796488094  0.0671008483979207  1.0000
  C   C59       1.0  0.7744815850687631  0.5771474921492014  0.5669061088383458  1.0000
  C   C60       1.0  0.9185309124552034  0.9228394060743098  0.9328988717549292  1.0000
  C   C61       1.0  0.22051229354467244  0.46149488005022477  0.47487264424089665  1.0000
  C   C62       1.0  0.15675245864851206  0.03848713523624529  0.025312307131848396  1.0000
  C   C63       1.0  0.7794879066547082  0.5385049091941595  0.5251274370795898  1.0000
  C   C64       1.0  0.8432448794201192  0.9615131093252387  0.974686974932652  1.0000
  C   C65       1.0  0.264991978261989  0.43667965351573906  0.5329214352266901  1.0000
  C   C66       1.0  0.23433658823800133  0.06327212560093189  0.9672184506398622  1.0000
  C   C67       1.0  0.7350068875576314  0.5633201322073802  0.46707828492616693  1.0000
  C   C68       1.0  0.7656634136502161  0.9367281217300061  0.032781115480304414  1.0000
  C   C69       1.0  0.3115395876703886  0.37237229308116326  0.5486477254336605  1.0000
  C   C70       1.0  0.23225821385471335  0.1275720547446753  0.9514424514609985  1.0000
  C   C71       1.0  0.6884579536493264  0.6276274976668574  0.4513525101107732  1.0000
  C   C72       1.0  0.7677419814047397  0.8724277302266259  0.048557191579881524  1.0000
  C   C73       1.0  0.31671629103217214  0.33439778313693586  0.5058991438527372  1.0000
  C   C74       1.0  0.15690335111070652  0.16557355709662147  0.994204577221275  1.0000
  C   C75       1.0  0.683283904227281  0.6656020018343654  0.4941004991881428  1.0000
  C   C76       1.0  0.843095514708914  0.8344262286264978  0.005795142931575002  1.0000
  C   C77       1.0  0.3331026524036105  0.46897777833908794  0.6253972323755477  1.0000
  C   C78       1.0  0.4273487137213294  0.0309314170265651  0.8747449439450107  1.0000
  C   C79       1.0  0.6668952756585824  0.531021087689666  0.3746031570103057  1.0000
  C   C80       1.0  0.5726541502976377  0.9690683749872803  0.12525542143114876  1.0000
  C   C81       1.0  0.3236290225052016  0.526418502938391  0.6516971092630257  1.0000
  C   C82       1.0  0.5015641531604729  0.9735208967137224  0.8483660605320581  1.0000
  C   C83       1.0  0.6763702349968242  0.473580362338538  0.3483032030108575  1.0000
  C   C84       1.0  0.4984373814186683  0.0264788960519411  0.1516343819560717  1.0000
  C   C85       1.0  0.1970550739123027  0.5794679544665371  0.6412725656515049  1.0000
  C   C86       1.0  0.4174596902044884  0.9205431656398845  0.8587367930244553  1.0000
  C   C87       1.0  0.802942859089818  0.4205309158353003  0.3587282620139547  1.0000
  C   C88       1.0  0.5825416510034103  0.079457089485409  0.141263572542961  1.0000
  C   C89       1.0  0.20471095206582388  0.6315786484466912  0.6650444476433178  1.0000
  C   C90       1.0  0.5010165619315147  0.8684365660629537  0.8349098638704857  1.0000
  C   C91       1.0  0.7952894365648647  0.3684206741649731  0.3349552723182754  1.0000
  C   C92       1.0  0.4989847792763911  0.13156368906234664  0.1650905016969304  1.0000
  C   C93       1.0  0.45780515430887186  0.5802714282552728  0.7115227834409482  1.0000
  C   C94       1.0  0.7494980042727519  0.9196355265148596  0.7884425955460516  1.0000
  C   C95       1.0  0.5421952343218165  0.4197278943563916  0.2884769365206452  1.0000
  C   C96       1.0  0.25050220086655633  0.0803642670026221  0.21155792405404839  1.0000
  C   C97       1.0  0.45075222559478334  0.5273510791173734  0.6891615816375847  1.0000
  C   C98       1.0  0.6671984433560568  0.9725418040209488  0.8108805049344099  1.0000
  C   C99       1.0  0.549246838536007  0.47264824851919934  0.31083865371558517  1.0000
  C   C100      1.0  0.33280176178325155  0.0274579894965328  0.18912001466568276  1.0000
  C   C101      1.0  0.3981047641481867  0.42867644465931676  0.9666216156035787  1.0000
  C   C102      1.0  0.7933428321451714  0.07132295423240718  0.5333675124786978  1.0000
  C   C103      1.0  0.6018950542486511  0.5713242735774315  0.03337875015510152  1.0000
  C   C104      1.0  0.206657368054202  0.9286768350119772  0.4666325688417956  1.0000
  N   N1        1.0  0.22482617413101028  0.43583708343295763  0.9545605599959259  1.0000
  N   N2        1.0  0.6151573589106077  0.0641813806312825  0.5454840353912473  1.0000
  N   N3        1.0  0.7751751571970331  0.564163163146155  0.04543892901227052  1.0000
  N   N4        1.0  0.38484151678886763  0.9358184136380101  0.4545165613208155  1.0000
  N   N5        1.0  0.5484518306076894  0.2978569805702023  0.11914781892326692  1.0000
  N   N6        1.0  0.9651991891257411  0.20222405678619274  0.38088608034187393  1.0000
  N   N7        1.0  0.451548176220456  0.7021432710338189  0.8808521854765132  1.0000
  N   N8        1.0  0.03479968163380694  0.7977757332100096  0.6191140780905897  1.0000
  N   N9        1.0  0.26129420464927483  0.4786880188757934  0.5721250494221763  1.0000
  N   N10       1.0  0.3117579550806228  0.0212427903089676  0.9280015026457065  1.0000
  N   N11       1.0  0.7387035300416827  0.5213113095125976  0.4278752630429707  1.0000
  N   N12       1.0  0.6882420468075952  0.9787574570219703  0.07199806347446719  1.0000
  N   N13       1.0  0.3382694509681697  0.632254023762208  0.6977409727431336  1.0000
  N   N14       1.0  0.6680464651058529  0.8677062567047003  0.8021838905294416  1.0000
  N   N15       1.0  0.6617309376625188  0.3677452988494565  0.3022587472184597  1.0000
  N   N16       1.0  0.33195354666222  0.1322939991724112  0.1978165521499449  1.0000
  O   O1        1.0  0.6734935194235022  0.6203532264462552  0.7962756296556178  1.0000
  O   O2        1.0  0.09042206601875347  0.879522998464239  0.7035778641240783  1.0000
  O   O3        1.0  0.32650801021571146  0.37964656204631797  0.20372437455290535  1.0000
  O   O4        1.0  0.9095779457493194  0.1204772574128796  0.2964225785553083  1.0000
  O   O5        1.0  0.9089110129074668  0.6723268797364809  0.7759241466566138  1.0000
  O   O6        1.0  0.3575061351062345  0.8276422802499965  0.7241039667403797  1.0000
  O   O7        1.0  0.09108918729191373  0.32767290950791045  0.22407593466387246  1.0000
  O   O8        1.0  0.6424938717219038  0.17235797135403166  0.27589603765940035  1.0000
  O   O9        1.0  0.5116094138916625  0.4606892786588901  0.9379710012514764  1.0000
  O   O10       1.0  0.9102930215833923  0.0392757464670481  0.5619599951515539  1.0000
  O   O11       1.0  0.48839154057376544  0.5393119011856768  0.06202921047452039  1.0000
  O   O12       1.0  0.08970679681344514  0.9607249717697002  0.4380403706071263  1.0000
  O   O13       1.0  0.5918988528039152  0.26140429105399937  0.16803095704884188  1.0000
  O   O14       1.0  0.02112113544050941  0.2386697038533185  0.3319931157238116  1.0000
  O   O15       1.0  0.40810114908429534  0.7385959562769315  0.8319686090713319  1.0000
  O   O16       1.0  0.9788790647588715  0.7613300853910729  0.6680069655966747  1.0000
  O   O17       1.0  0.2338391661031807  0.3455014863829859  0.3504511034995232  1.0000
  O   O18       1.0  0.9300067783790382  0.15459858781726868  0.14973035734865192  1.0000
  O   O19       1.0  0.7661636880359312  0.6544982970846789  0.6495483853174164  1.0000
  O   O20       1.0  0.06999361519157793  0.845400739067486  0.8502698008925477  1.0000
  O   O21       1.0  0.35902875711576604  0.26203249336912654  0.41020878886395445  1.0000
  O   O22       1.0  0.031423408684951  0.23800189813297115  0.0898382609987394  1.0000
  O   O23       1.0  0.6409727675835128  0.7379672908503565  0.5897907770649553  1.0000
  O   O24       1.0  0.9685796388253963  0.7619974229750568  0.9101613047389064  1.0000
  O   O25       1.0  0.4052075958764405  0.4183295722917676  0.6490765416427352  1.0000
  O   O26       1.0  0.4726788295908975  0.0815580653882435  0.851134516330319  1.0000
  O   O27       1.0  0.5947903321857525  0.5816692937369864  0.3509238477431182  1.0000
  O   O28       1.0  0.5273282259986587  0.9184412705566911  0.14886657118984914  1.0000
  O   O29       1.0  0.34883501887901514  0.6834444508646697  0.7172308731178347  1.0000
  O   O30       1.0  0.7492964001217289  0.8165285412063594  0.7826202879045069  1.0000
  O   O31       1.0  0.6511664959404087  0.3165553248086326  0.2827678162518623  1.0000
  O   O32       1.0  0.250703809957507  0.1834712565842054  0.21738066997519923  1.0000
