data_image0
_chemical_formula_structural       Ag2H32C40N14O6
_chemical_formula_sum              "Ag2 H32 C40 N14 O6"
_cell_length_a       8.307386418869262
_cell_length_b       10.777503349630058
_cell_length_c       11.337269229161583
_cell_angle_alpha    84.63793887319255
_cell_angle_beta     68.76507793552875
_cell_angle_gamma    73.86222287307088

_space_group_name_H-M_alt    "P 1"
_space_group_IT_number       1

loop_
  _space_group_symop_operation_xyz
  'x, y, z'

loop_
  _atom_site_type_symbol
  _atom_site_label
  _atom_site_symmetry_multiplicity
  _atom_site_fract_x
  _atom_site_fract_y
  _atom_site_fract_z
  _atom_site_occupancy
  Ag  Ag1       1.0  0.07985331508296403  0.4819345548520246  0.3072908951638169  1.0000
  Ag  Ag2       1.0  0.9201464154272686  0.5180649575414122  0.6927095925099706  1.0000
  H   H1        1.0  0.22416246835985723  0.3852372279044403  0.7862128723408262  1.0000
  H   H2        1.0  0.7758382008788799  0.614763248540498  0.2137863958872828  1.0000
  H   H3        1.0  0.9832606133022425  0.17869101781921157  0.1004469328966308  1.0000
  H   H4        1.0  0.016739704245182386  0.8213104245754508  0.8995523413978431  1.0000
  H   H5        1.0  0.48746789828689396  0.9046401534768267  0.7613423935836465  1.0000
  H   H6        1.0  0.5125331237630774  0.09535935861811139  0.23865775018342114  1.0000
  H   H7        1.0  0.7153026581946875  0.38672486369873144  0.5598315160560006  1.0000
  H   H8        1.0  0.2846980132838652  0.6132756159456676  0.4401695153827347  1.0000
  H   H9        1.0  0.11362835966895785  0.9044746648360659  0.23217775304860305  1.0000
  H   H10       1.0  0.8863710180300474  0.09552581190735758  0.7678218590862329  1.0000
  H   H11       1.0  0.31617193868345317  0.9416560898689427  0.20830615290849855  1.0000
  H   H12       1.0  0.6838268519783667  0.0583424568732553  0.7916946726056509  1.0000
  H   H13       1.0  0.5785364851965653  0.0220120479320514  0.5911722239663533  1.0000
  H   H14       1.0  0.42146289250244  0.977988428811379  0.40882738816848274  1.0000
  H   H15       1.0  0.032894740970917276  0.23524729396160635  0.8752419181680011  1.0000
  H   H16       1.0  0.9671072198075521  0.7647531821848335  0.12475700615338783  1.0000
  H   H17       1.0  0.28699120571177145  0.10319778382948643  0.7061171333301175  1.0000
  H   H18       1.0  0.7130094635269653  0.8968026926154524  0.2938821348979985  1.0000
  H   H19       1.0  0.5939189326039054  0.778593605215093  0.9082805110589974  1.0000
  H   H20       1.0  0.40608408212861485  0.221403971482431  0.09171751345800058  1.0000
  H   H21       1.0  0.5058281756650159  0.8144598586466714  0.07260139077342839  1.0000
  H   H22       1.0  0.4941731980762682  0.1855386874985427  0.927398746927274  1.0000
  H   H23       1.0  0.8512943436231454  0.9269877083617999  0.4134073380034167  1.0000
  H   H24       1.0  0.14870503407586708  0.0730127683816306  0.5865922741314193  1.0000
  H   H25       1.0  0.4807812768368008  0.6934581373177978  0.738450160043456  1.0000
  H   H26       1.0  0.5192177502907993  0.3065433069750867  0.26155033976305486  1.0000
  H   H27       1.0  0.5112260278905226  0.2463944084664647  0.6667080243699671  1.0000
  H   H28       1.0  0.4887733509283974  0.7536060698766961  0.3332924693701785  1.0000
  H   H29       1.0  0.3877816237861397  0.5358491324145759  0.6503562057767808  1.0000
  H   H30       1.0  0.6122177539128727  0.46415134432884747  0.3496434063580551  1.0000
  H   H31       1.0  0.14331561606218907  0.3875432473431673  0.021698351089966594  1.0000
  H   H32       1.0  0.8566841133281355  0.6124562634505323  0.9783012549785113  1.0000
  C   C1        1.0  0.25991793081583126  0.45401396366531793  0.8304650808805504  1.0000
  C   C2        1.0  0.7400814457632733  0.5459865114783824  0.16953364964897588  1.0000
  C   C3        1.0  0.09512152104336016  0.11856492510713686  0.0264812464237991  1.0000
  C   C4        1.0  0.9048785611581989  0.8814336213365692  0.9735192351836232  1.0000
  C   C5        1.0  0.35604220138637993  0.6317016164809672  0.9334396741504848  1.0000
  C   C6        1.0  0.6439571763126324  0.3682988602624561  0.0665599379843513  1.0000
  C   C7        1.0  0.3771388024736096  0.9656494924087299  0.835704732443773  1.0000
  C   C8        1.0  0.6228635122359947  0.0343500209874463  0.1642959490218772  1.0000
  C   C9        1.0  0.7429965568672612  0.2888560098941397  0.5268879101733717  1.0000
  C   C10       1.0  0.2570041146112913  0.7111444697502591  0.4731131212653636  1.0000
  C   C11       1.0  0.26123150740531276  0.5464990531746636  0.012172579451103645  1.0000
  C   C12       1.0  0.7387665776340525  0.45350142226752865  0.9878264949851498  1.0000
  C   C13       1.0  0.18577591519843373  0.9794170111917851  0.19653144625061714  1.0000
  C   C14       1.0  0.814222172080747  0.020583467449874604  0.8034693913962556  1.0000
  C   C15       1.0  0.20985710604518454  0.0105838387952488  0.059266995270839104  1.0000
  C   C16       1.0  0.7901446193874195  0.9894137414002414  0.940733136363498  1.0000
  C   C17       1.0  0.6694370604575609  0.08138956870347869  0.543230510260905  1.0000
  C   C18       1.0  0.3305623172414439  0.9186109080399449  0.45676910187393105  1.0000
  C   C19       1.0  0.8949086548323137  0.2365735104135069  0.4215856270356539  1.0000
  C   C20       1.0  0.10509236721765078  0.7634260016814309  0.5784145167314065  1.0000
  C   C21       1.0  0.9311932305832186  0.10835187513262669  0.3809476551767687  1.0000
  C   C22       1.0  0.06880649880711322  0.891647635661073  0.6190519508917093  1.0000
  C   C23       1.0  0.12231938630835511  0.15086967436176477  0.900115786878608  1.0000
  C   C24       1.0  0.8776825755900216  0.8491308033844048  0.0998840190480905  1.0000
  C   C25       1.0  0.2655000366743536  0.0756474892165429  0.8043249174066319  1.0000
  C   C26       1.0  0.7345006348042062  0.9243529904278558  0.19567611403210344  1.0000
  C   C27       1.0  0.4694850647876122  0.8072963364888179  0.9900613215389029  1.0000
  C   C28       1.0  0.5305172476821765  0.19270317370789058  0.009937596716127914  1.0000
  C   C29       1.0  0.8209118675228098  0.027127917527437297  0.44184759316502203  1.0000
  C   C30       1.0  0.17908657144769066  0.9728715951644916  0.5581532384154926  1.0000
  C   C31       1.0  0.3503161238624626  0.9316114464831741  0.9623899617759406  1.0000
  C   C32       1.0  0.6496836088875924  0.06838806910972291  0.03761228910846625  1.0000
  C   C33       1.0  0.4048018275307184  0.6305041830712242  0.8012480904407225  1.0000
  C   C34       1.0  0.5951975501682938  0.36949629367219927  0.1987515216941205  1.0000
  C   C35       1.0  0.6314955853187669  0.20948880908044032  0.5853236977669098  1.0000
  C   C36       1.0  0.3685037923802381  0.7905116676629903  0.41467591436792617  1.0000
  C   C37       1.0  0.3535334617155499  0.5405563473503461  0.752424121936073  1.0000
  C   C38       1.0  0.6464642727524107  0.4594450956413001  0.24757584017184794  1.0000
  C   C39       1.0  0.2133238311118929  0.4546736742810539  0.9609538599840023  1.0000
  C   C40       1.0  0.7866739044759753  0.5453277703103298  0.03904698372922874  1.0000
  N   N1        1.0  0.030761970979348477  0.2872107543369752  0.3414093419713353  1.0000
  N   N2        1.0  0.9692390510706159  0.7127887577579626  0.658590801795725  1.0000
  N   N3        1.0  0.08715253288449532  0.091304132475365  0.2791875907504462  1.0000
  N   N4        1.0  0.9128471976257374  0.9086953799180648  0.7208128969233343  1.0000
  N   N5        1.0  0.3817991771465754  0.7021568830693354  0.01667794557961604  1.0000
  N   N6        1.0  0.6182021954748008  0.2978416614761485  0.9833213105157695  1.0000
  N   N7        1.0  0.23243884016808639  0.3107085442879765  0.5184766690876828  1.0000
  N   N8        1.0  0.7675605386508265  0.6892919340551842  0.4815238246524629  1.0000
  N   N9        1.0  0.14514312408628874  0.1992670550773568  0.257127958436449  1.0000
  N   N10       1.0  0.8548578968437681  0.8007324554178509  0.7428713037253015  1.0000
  N   N11       1.0  0.3069783332711893  0.66632104294915  0.13724073765406794  1.0000
  N   N12       1.0  0.6930210444278159  0.3336794337942806  0.862758874480768  1.0000
  N   N13       1.0  0.23464595901685198  0.5728629020185778  0.1356683378332519  1.0000
  N   N14       1.0  0.7653534186821601  0.4271375747248527  0.8643312743015839  1.0000
  O   O1        1.0  0.22268997963837475  0.42811334832521186  0.483423087214952  1.0000
  O   O2        1.0  0.7773093991805451  0.5718871300179488  0.5165774065251938  1.0000
  O   O3        1.0  0.3497441545471816  0.21946812503613697  0.45101072996352093  1.0000
  O   O4        1.0  0.6502552242717384  0.7805323533070236  0.5489897637766318  1.0000
  O   O5        1.0  0.11875750551529048  0.2885439861279764  0.6242376861650385  1.0000
  O   O6        1.0  0.8812422249949416  0.7114555262654533  0.37576280150874913  1.0000
