data_image0
_chemical_formula_structural       KNaB2H26C18S6N18
_chemical_formula_sum              "K1 Na1 B2 H26 C18 S6 N18"
_cell_length_a       10.558435238168665
_cell_length_b       10.473471655125554
_cell_length_c       10.509674657386249
_cell_angle_alpha    92.8696422582463
_cell_angle_beta     95.94406017469382
_cell_angle_gamma    118.06528234001995

_space_group_name_H-M_alt    "P 1"
_space_group_IT_number       1

loop_
  _space_group_symop_operation_xyz
  'x, y, z'

loop_
  _atom_site_type_symbol
  _atom_site_label
  _atom_site_symmetry_multiplicity
  _atom_site_fract_x
  _atom_site_fract_y
  _atom_site_fract_z
  _atom_site_occupancy
  K   K1        1.0  0.5000012435396074  0.49999655531333087  0.4999930321601411  1.0000
  Na  Na1       1.0  0.9999991227801392  0.49999766119453454  0.999999461602208  1.0000
  B   B1        1.0  0.24533620676789525  0.5007441442563093  0.24586961080358802  1.0000
  B   B2        1.0  0.754662541568827  0.4992532031326605  0.7541277050447377  1.0000
  H   H1        1.0  0.32957982704977706  0.5017416334478996  0.3302098171609416  1.0000
  H   H2        1.0  0.6704173929353633  0.498252459034852  0.6697852588847726  1.0000
  H   H3        1.0  0.16524711719203122  0.3090578176597278  0.8210640179774344  1.0000
  H   H4        1.0  0.8347545251888988  0.6909395891493447  0.17892789764933073  1.0000
  H   H5        1.0  0.5150260476406175  0.31765114429650515  0.9588960054972732  1.0000
  H   H6        1.0  0.4849811314896756  0.6823560293444474  0.04110368169683201  1.0000
  H   H7        1.0  0.39368759592522207  0.27517733629237284  0.8108764318213629  1.0000
  H   H8        1.0  0.6063195918629277  0.7248298491442428  0.1891213538838272  1.0000
  H   H9        1.0  0.3576275468847285  0.14374721167696694  0.9239385792755427  1.0000
  H   H10       1.0  0.642383469326532  0.8562600117016431  0.07605866134542788  1.0000
  H   H11       1.0  0.25224040801451525  0.9016545784605872  0.07468158589233553  1.0000
  H   H12       1.0  0.7477560402506783  0.09834598589261391  0.9253185148428074  1.0000
  H   H13       1.0  0.6136958640474788  0.06662514680459  0.2503688820096174  1.0000
  H   H14       1.0  0.3863040289453181  0.9333786943747456  0.7496327106137954  1.0000
  H   H15       1.0  0.4748368187207391  0.11639995565717953  0.2046111793063758  1.0000
  H   H16       1.0  0.5251605125896575  0.8835984410190179  0.7953898494608822  1.0000
  H   H17       1.0  0.5081859637971391  0.08258242526191141  0.3663853782660169  1.0000
  H   H18       1.0  0.49181040716078434  0.9174159575054122  0.6336164998306373  1.0000
  H   H19       1.0  0.7585005459661859  0.3451210343843627  0.2494339140324584  1.0000
  H   H20       1.0  0.24149869306237542  0.6548773724160879  0.7505682683093723  1.0000
  H   H21       1.0  0.8932200152729097  0.3059678073874324  0.5875970942199801  1.0000
  H   H22       1.0  0.10678038139850807  0.694037110896872  0.41240651266357997  1.0000
  H   H23       1.0  0.7377879151466828  0.2980603568581374  0.4916570627310577  1.0000
  H   H24       1.0  0.2622099928206794  0.7019412926110747  0.5083451536792936  1.0000
  H   H25       1.0  0.7729719214709689  0.1460989259538081  0.4806968150333546  1.0000
  H   H26       1.0  0.2270274591853509  0.8539038263249028  0.5193046648188329  1.0000
  C   C1        1.0  0.35412290225759346  0.37374254516738864  0.1061446607391829  1.0000
  C   C2        1.0  0.6458782061422143  0.6262537432519083  0.8938518958386298  1.0000
  C   C3        1.0  0.2099191799237374  0.3379918942433235  0.922615895094424  1.0000
  C   C4        1.0  0.7900816091010441  0.6620097969525034  0.0773837733277389  1.0000
  C   C5        1.0  0.4015100831541219  0.26030634382465223  0.9132632857511284  1.0000
  C   C6        1.0  0.5984951796001498  0.7397008078963978  0.08673714935731168  1.0000
  C   C7        1.0  0.40694056655561184  0.7845675748887687  0.2897517129626053  1.0000
  C   C8        1.0  0.5930586768018742  0.21543083780951386  0.7102495186347753  1.0000
  C   C9        1.0  0.2840897151159894  0.8383913462937828  0.1361367065117491  1.0000
  C   C10       1.0  0.7159078452753677  0.16159944832651263  0.8638658400060281  1.0000
  C   C11       1.0  0.5055669530824787  0.04996700296629801  0.2646878559843273  1.0000
  C   C12       1.0  0.4944283932024833  0.9500292019997689  0.7353137965698622  1.0000
  C   C13       1.0  0.05776038735432114  0.3716816947867586  0.40228886240071665  1.0000
  C   C14       1.0  0.94223892898151  0.6283188935995627  0.5977115425796029  1.0000
  C   C15       1.0  0.8672132258944315  0.3617620347583995  0.2797762483267832  1.0000
  C   C16       1.0  0.1327895308400714  0.6382418245562251  0.7202265992862635  1.0000
  C   C17       1.0  0.8225999541486004  0.2655388988758817  0.49460106998710535  1.0000
  C   C18       1.0  0.1774004381938924  0.7344660135105914  0.5054034876409119  1.0000
  S   S1        1.0  0.48948864281978666  0.38005627067330056  0.20980456101978723  1.0000
  S   S2        1.0  0.5105140025894599  0.6199432844478779  0.7901923338717225  1.0000
  S   S3        1.0  0.5352359655120155  0.8068693644141478  0.4101642496975019  1.0000
  S   S4        1.0  0.46475976013952186  0.19312359576994714  0.5898363166286558  1.0000
  S   S5        1.0  0.159749484255002  0.3582029517848042  0.5285848341329213  1.0000
  S   S6        1.0  0.8402557011919995  0.6418020183503685  0.4714173783370228  1.0000
  N   N1        1.0  0.2548260446801578  0.42024611400889006  0.122616933765002  1.0000
  N   N2        1.0  0.7451702749440658  0.5797501225595385  0.8773810172264193  1.0000
  N   N3        1.0  0.16593786816793715  0.39749919923285404  0.008078526137602193  1.0000
  N   N4        1.0  0.8340631845692388  0.602494937089716  0.9919150540794348  1.0000
  N   N5        1.0  0.3227155803453456  0.319826898090902  0.9771182417236234  1.0000
  N   N6        1.0  0.6772838262845442  0.6801758895747911  0.02287753366182702  1.0000
  N   N7        1.0  0.29064107598012623  0.661549470707648  0.22510883366339132  1.0000
  N   N8        1.0  0.709357155691187  0.33844678188286553  0.7748893201581525  1.0000
  N   N9        1.0  0.21525075296789717  0.6961767118798222  0.13018250932461234  1.0000
  N   N10       1.0  0.7847466513208446  0.3038238604844211  0.869817692825599  1.0000
  N   N11       1.0  0.400902961462947  0.8976445347367703  0.2308069932175201  1.0000
  N   N12       1.0  0.5990924021377284  0.10235169382062283  0.7691908563588542  1.0000
  N   N13       1.0  0.09327821010185741  0.42577772563983984  0.2871637774684501  1.0000
  N   N14       1.0  0.9067230139521314  0.5742228728707276  0.7128377810864492  1.0000
  N   N15       1.0  0.9741296100546537  0.4186338486593756  0.21202173055542772  1.0000
  N   N16       1.0  0.025870649317930386  0.5813667300445006  0.7879816280733252  1.0000
  N   N17       1.0  0.9111166563960541  0.32984214503915876  0.3950411894531599  1.0000
  N   N18       1.0  0.08888616898786249  0.6701638840656872  0.6049617822872904  1.0000
