data_image0
_chemical_formula_structural       Cd2H32C28N6O10
_chemical_formula_sum              "Cd2 H32 C28 N6 O10"
_cell_length_a       6.1650946505919135
_cell_length_b       10.290205333626972
_cell_length_c       11.804010327067852
_cell_angle_alpha    82.57227510985994
_cell_angle_beta     78.77090756728863
_cell_angle_gamma    82.63936934010594

_space_group_name_H-M_alt    "P 1"
_space_group_IT_number       1

loop_
  _space_group_symop_operation_xyz
  'x, y, z'

loop_
  _atom_site_type_symbol
  _atom_site_label
  _atom_site_symmetry_multiplicity
  _atom_site_fract_x
  _atom_site_fract_y
  _atom_site_fract_z
  _atom_site_occupancy
  Cd  Cd1       1.0  0.7349938106616493  0.0037253170193523  0.15245161064639495  1.0000
  Cd  Cd2       1.0  0.265010257860652  0.9962734769334461  0.8475494544505366  1.0000
  H   H1        1.0  0.12093994158689012  0.12279693707699119  0.284910350784223  1.0000
  H   H2        1.0  0.8790508883451197  0.8772019297772644  0.715091898780436  1.0000
  H   H3        1.0  0.22803924674389725  0.1779374711481481  0.4706292691741183  1.0000
  H   H4        1.0  0.7719602910915883  0.8220593806535561  0.5293698758419441  1.0000
  H   H5        1.0  0.029472738137648925  0.16897536919233858  0.6014285766812223  1.0000
  H   H6        1.0  0.9705268955822747  0.8310303415886577  0.39857212585229723  1.0000
  H   H7        1.0  0.5968191849311567  0.17025556584695778  0.5731643846221744  1.0000
  H   H8        1.0  0.403176079803231  0.8297363841790995  0.4268382275058826  1.0000
  H   H9        1.0  0.1771796778217194  0.5712506930301161  0.0010571349784384851  1.0000
  H   H10       1.0  0.8228074990150985  0.4287521382155788  0.998938227779334  1.0000
  H   H11       1.0  0.9402076562402757  0.5737132149032433  0.11021581032054678  1.0000
  H   H12       1.0  0.05978632260291057  0.4262866192403293  0.8897860490299865  1.0000
  H   H13       1.0  0.7664258533182747  0.3921755332408452  0.39918477569433014  1.0000
  H   H14       1.0  0.23356642227646773  0.6078252970703488  0.6008145851668303  1.0000
  H   H15       1.0  0.27493192022942037  0.3664889574283023  0.6078460387913509  1.0000
  H   H16       1.0  0.7250773958349229  0.6335186707328119  0.3921518855632372  1.0000
  H   H17       1.0  0.43753405638429405  0.5389846410496091  0.32165903292958126  1.0000
  H   H18       1.0  0.5624700221605397  0.46102399842399666  0.6783417939538553  1.0000
  H   H19       1.0  0.6684715545790212  0.4776151639783918  0.22287235567657868  1.0000
  H   H20       1.0  0.33152857777740524  0.5223787328194901  0.7771245191804186  1.0000
  H   H21       1.0  0.5359169475571833  0.6137051688256463  0.05738853195791899  1.0000
  H   H22       1.0  0.46407703672589656  0.38628679544723354  0.9426057200597956  1.0000
  H   H23       1.0  0.12067327212461978  0.6790113185121242  0.23570424291316533  1.0000
  H   H24       1.0  0.8793350330264007  0.3209815436137546  0.7642979414668574  1.0000
  H   H25       1.0  0.27848708942464384  0.013728815534307198  0.1384927292927216  1.0000
  H   H26       1.0  0.7215034080471628  0.9862730099176742  0.8615058347128368  1.0000
  H   H27       1.0  0.41455556069487914  0.3053893507711081  0.24778978839612625  1.0000
  H   H28       1.0  0.5854237284553889  0.6946164626876765  0.7522237514584379  1.0000
  H   H29       1.0  0.12111469348006666  0.3433885306479425  0.13293940402986953  1.0000
  H   H30       1.0  0.8788887805212868  0.6566132183086849  0.8670639312261343  1.0000
  H   H31       1.0  0.36710755767141023  0.14132442936988096  0.0676853956105816  1.0000
  H   H32       1.0  0.6328961035161882  0.8586773221538162  0.932313685561013  1.0000
  C   C1        1.0  0.024211550965503616  0.36154206557586127  0.5037967737432254  1.0000
  C   C2        1.0  0.9757807026544186  0.6384607398720235  0.4961955923885029  1.0000
  C   C3        1.0  0.9573378360733075  0.12370303669158739  0.3405345385757315  1.0000
  C   C4        1.0  0.04265609434521881  0.8762977845069243  0.6594646742269674  1.0000
  C   C5        1.0  0.364790963447888  0.405216264918849  0.2112056311492978  1.0000
  C   C6        1.0  0.635214507859999  0.5947923618481781  0.7888010033938431  1.0000
  C   C7        1.0  0.5640886610560045  0.7541960914308133  0.1685494396688085  1.0000
  C   C8        1.0  0.435919338084652  0.2458007173745571  0.8314447109705229  1.0000
  C   C9        1.0  0.05714153693615032  0.21259299780241753  0.5103436176819685  1.0000
  C   C10       1.0  0.9428611872477577  0.787404821802035  0.48965428630308594  1.0000
  C   C11       1.0  0.6855741865620291  0.1484596694656517  0.4872833703337704  1.0000
  C   C12       1.0  0.3144283988602938  0.8515371605167914  0.5127214342835344  1.0000
  C   C13       1.0  0.12304022995745365  0.5603360493182591  0.0962010905961108  1.0000
  C   C14       1.0  0.8769589754178215  0.4396637610811781  0.9037943688608581  1.0000
  C   C15       1.0  0.8695733334887735  0.4383230397364812  0.44422396643300743  1.0000
  C   C16       1.0  0.13045164670941745  0.5616825415420905  0.5557626037871942  1.0000
  C   C17       1.0  0.1548968362826387  0.4247324459045955  0.559632471256208  1.0000
  C   C18       1.0  0.8451110725210924  0.5752623862238336  0.44037122656319383  1.0000
  C   C19       1.0  0.20232303273185448  0.4262198909982756  0.14831216801984945  1.0000
  C   C20       1.0  0.7976562024462482  0.573780027213097  0.8516876205893454  1.0000
  C   C21       1.0  0.4902696961173306  0.5133399206459757  0.2317370487856252  1.0000
  C   C22       1.0  0.5097334828610657  0.48666478742179464  0.7682617500943963  1.0000
  C   C23       1.0  0.4591476444322852  0.6361388027230178  0.14591678944324124  1.0000
  C   C24       1.0  0.5408578587653353  0.3638629422550678  0.854077889585483  1.0000
  C   C25       1.0  0.2055972531332842  0.6711047358350086  0.1455010761673847  1.0000
  C   C26       1.0  0.7944030399595479  0.3288881754481777  0.8544958927868012  1.0000
  C   C27       1.0  0.16410471487581907  0.803948592524726  0.07599507377662461  1.0000
  C   C28       1.0  0.8358962267101262  0.19604725900205014  0.9240133762638578  1.0000
  N   N1        1.0  0.9081690393440527  0.1592902845533644  0.45027962598980764  1.0000
  N   N2        1.0  0.09182473033807534  0.8407115221598359  0.5497194927156954  1.0000
  N   N3        1.0  0.7742496381302076  0.0915224005754069  0.3129683491847076  1.0000
  N   N4        1.0  0.22574482292217365  0.9084744770240999  0.687033792457399  1.0000
  N   N5        1.0  0.6010825072681032  0.10772427742688247  0.4052558916630035  1.0000
  N   N6        1.0  0.39891725071584727  0.8922696142368524  0.594749491362805  1.0000
  O   O1        1.0  0.6540080270272384  0.8256823072450172  0.07716404979526457  1.0000
  O   O2        1.0  0.34601259517281585  0.17430852571027342  0.9228279273841835  1.0000
  O   O3        1.0  0.559804793633717  0.7830531112809281  0.2694984210029077  1.0000
  O   O4        1.0  0.4402170002160518  0.21695150219490236  0.7304893902482945  1.0000
  O   O5        1.0  0.36544974355142307  0.0874606316849196  0.1443886253418185  1.0000
  O   O6        1.0  0.6345458791281402  0.9125401809143269  0.85560958858553  1.0000
  O   O7        1.0  0.10469687680133438  0.9049220827697511  0.1334455768190992  1.0000
  O   O8        1.0  0.8953054091230045  0.09507474310537127  0.8665660343332534  1.0000
  O   O9        1.0  0.1974046841485944  0.8085593227456229  0.9665505674528705  1.0000
  O   O10       1.0  0.8026012319312485  0.1914463469639145  0.0334572001987254  1.0000
