data_image0
_chemical_formula_structural       Lu2H42C54O12
_chemical_formula_sum              "Lu2 H42 C54 O12"
_cell_length_a       7.765946943
_cell_length_b       11.353857341541707
_cell_length_c       13.021
_cell_angle_alpha    94.44435389581335
_cell_angle_beta     90.0
_cell_angle_gamma    90.0

_space_group_name_H-M_alt    "P 1"
_space_group_IT_number       1

loop_
  _space_group_symop_operation_xyz
  'x, y, z'

loop_
  _atom_site_type_symbol
  _atom_site_label
  _atom_site_symmetry_multiplicity
  _atom_site_fract_x
  _atom_site_fract_y
  _atom_site_fract_z
  _atom_site_occupancy
  Lu  Lu1       1.0  0.49789807068992087  0.5399869971926137  0.47496900083480403  1.0000
  Lu  Lu2       1.0  0.9978989113472212  0.4600070826063813  0.5250321351216272  1.0000
  H   H1        1.0  0.6771086692447383  0.1299723304081226  0.6088581718562054  1.0000
  H   H2        1.0  0.17707692443605083  0.8700155654907035  0.3911594420420883  1.0000
  H   H3        1.0  0.3335497936069275  0.2658361508518681  0.6025526428263959  1.0000
  H   H4        1.0  0.8335081410560718  0.7341658796759205  0.397464390158703  1.0000
  H   H5        1.0  0.5430116933519715  0.9612484115619893  0.5960944303402584  1.0000
  H   H6        1.0  0.04299411294600471  0.0387589194516593  0.40391528089332246  1.0000
  H   H7        1.0  0.3807661862363575  0.7803931837071616  0.6250760717985742  1.0000
  H   H8        1.0  0.8807580131828348  0.219608846820627  0.37492329741262154  1.0000
  H   H9        1.0  0.068232503246449  0.7903872497999913  0.6642883426863548  1.0000
  H   H10       1.0  0.5682243301929262  0.2096174309707308  0.335699685747386  1.0000
  H   H11       1.0  0.914900662102035  0.9840016305389981  0.6705241006513206  1.0000
  H   H12       1.0  0.4148946707528368  0.0160003999887977  0.3294645166974988  1.0000
  H   H13       1.0  0.07777415998759103  0.1671596558016972  0.6386222569977279  1.0000
  H   H14       1.0  0.5777595485691978  0.8328476752119585  0.36138591825550753  1.0000
  H   H15       1.0  0.4079450997093944  0.6263743157717059  0.7564792758238426  1.0000
  H   H16       1.0  0.9079382143288515  0.37362153085591393  0.24350892368310184  1.0000
  H   H17       1.0  0.17411141357575136  0.45176924416250597  0.8617115134320771  1.0000
  H   H18       1.0  0.6740980898303308  0.5482283692937386  0.1382867893304649  1.0000
  H   H19       1.0  0.4459687949737799  0.7329564854850757  0.9037846382811952  1.0000
  H   H20       1.0  0.9459593342472845  0.2670446616284039  0.09620852731693931  1.0000
  H   H21       1.0  0.5073843574931587  0.8280639867214887  0.07665596012574132  1.0000
  H   H22       1.0  0.0073770784709808  0.1719433442921598  0.923337623314275  1.0000
  H   H23       1.0  0.4058500557798652  0.7352604300064272  0.23368534148900016  1.0000
  H   H24       1.0  0.9058483210912129  0.2647477844215373  0.7663083016427095  1.0000
  H   H25       1.0  0.24037635251714565  0.5481506288344278  0.2160244133523648  1.0000
  H   H26       1.0  0.7403668917906501  0.4518558187649191  0.7839760223074848  1.0000
  H   H27       1.0  0.17802851476421475  0.4517029880892309  0.04158492611786361  1.0000
  H   H28       1.0  0.6780177663647464  0.54829727560994  0.9584150917001111  1.0000
  H   H29       1.0  0.1378865974567631  0.18442068801134326  0.2636769072825516  1.0000
  H   H30       1.0  0.6379041778627299  0.8155866430023125  0.7363128362066148  1.0000
  H   H31       1.0  0.4380972500805812  0.33213639484255  0.1869080902319595  1.0000
  H   H32       1.0  0.9381071044487046  0.6678647522709298  0.8130896833071973  1.0000
  H   H33       1.0  0.1930402063010845  0.0424189049393817  0.1405714615577764  1.0000
  H   H34       1.0  0.6930371839394598  0.9575813587597893  0.8594285562601982  1.0000
  H   H35       1.0  0.18207438325013214  0.9273579883745882  0.9723145768628924  1.0000
  H   H36       1.0  0.6820520457938954  0.0726369748387228  0.0276904587360889  1.0000
  H   H37       1.0  0.3211314754407297  0.0039523956244381  0.81857748227619  1.0000
  H   H38       1.0  0.8211220147142344  0.9960355002743883  0.18142169985802786  1.0000
  H   H39       1.0  0.474282148337359  0.1979219089162001  0.8350691693343534  1.0000
  H   H40       1.0  0.9742945780514349  0.8020748211257286  0.1649221618249612  1.0000
  H   H41       1.0  0.4856870678726183  0.3139760468649868  0.004285569891159502  1.0000
  H   H42       1.0  0.9856891962028982  0.6860233334198753  0.9957021003923998  1.0000
  C   C1        1.0  0.6628258006114509  0.3181210268090808  0.5893164305204763  1.0000
  C   C2        1.0  0.16280693253250436  0.6818704027469877  0.41068683033137887  1.0000
  C   C3        1.0  0.5861822174954838  0.2024326223847766  0.603900182000352  1.0000
  C   C4        1.0  0.08613373293812293  0.7975694081430191  0.3961130110338972  1.0000
  C   C5        1.0  0.41380272407045043  0.18750292054010492  0.6072927439942859  1.0000
  C   C6        1.0  0.9137997017088326  0.8124973431590661  0.3927264735779303  1.0000
  C   C7        1.0  0.3224951211207384  0.0777378090665977  0.6189413469912424  1.0000
  C   C8        1.0  0.8224779343563926  0.9222633380468822  0.38107716228250144  1.0000
  C   C9        1.0  0.4061346315072286  0.9672503283864131  0.6144847695200752  1.0000
  C   C10       1.0  0.9061277461266855  0.0327508187270737  0.3855268278421349  1.0000
  C   C11       1.0  0.3148437683061829  0.8652168589569627  0.6309803468894515  1.0000
  C   C12       1.0  0.8148317322337422  0.1347860549851418  0.3690183140232719  1.0000
  C   C13       1.0  0.1382677486572135  0.8711242504501797  0.6520906641602835  1.0000
  C   C14       1.0  0.6382673016415412  0.1288804303205424  0.3479065801554881  1.0000
  C   C15       1.0  0.0529001811389307  0.9796216623883538  0.6549681845482312  1.0000
  C   C16       1.0  0.5528842820475577  0.0203777178965083  0.3450294696075318  1.0000
  C   C17       1.0  0.1436888518799151  0.0821610645184521  0.6376266759684059  1.0000
  C   C18       1.0  0.643672952788549  0.917849800152446  0.3623817380516172  1.0000
  C   C19       1.0  0.24071243516348775  0.4983543309894287  0.6732418483596591  1.0000
  C   C20       1.0  0.7407107004748426  0.5016406322238822  0.326758579298307  1.0000
  C   C21       1.0  0.3172375523658034  0.5550076907112498  0.7668617515122949  1.0000
  C   C22       1.0  0.8172435437150016  0.44498638908774524  0.2331386164539708  1.0000
  C   C23       1.0  0.2645382482108972  0.5256686180506946  0.8606200571026293  1.0000
  C   C24       1.0  0.7645210614465585  0.4743334124770939  0.1393770081380552  1.0000
  C   C25       1.0  0.3090749933803636  0.5841550624664649  0.9603756475738621  1.0000
  C   C26       1.0  0.8090668203268478  0.41584608464702205  0.039625197925978704  1.0000
  C   C27       1.0  0.4017513927019891  0.6912160427360305  0.9717291835281471  1.0000
  C   C28       1.0  0.901745794994419  0.3087859877917651  0.028264809751860312  1.0000
  C   C29       1.0  0.4357008906750154  0.7453304697299431  0.06916800966729401  1.0000
  C   C30       1.0  0.9356991559863632  0.2546733276264703  0.9308291749567843  1.0000
  C   C31       1.0  0.377527688705456  0.6941754806756535  0.15724748263635746  1.0000
  C   C32       1.0  0.8775233786708583  0.3058345005809286  0.8427478158590846  1.0000
  C   C33       1.0  0.2849980841029307  0.5882947419246918  0.1474497718946424  1.0000
  C   C34       1.0  0.7850002124332036  0.4117108222603392  0.8525498360833339  1.0000
  C   C35       1.0  0.2508914900270156  0.53403366815526  0.04992654188743731  1.0000
  C   C36       1.0  0.7508871799924182  0.4659736628583886  0.9500701135132559  1.0000
  C   C37       1.0  0.2554575783946334  0.3296345655156827  0.3584324616720664  1.0000
  C   C38       1.0  0.7554674327627566  0.670366581597797  0.6415668478474288  1.0000
  C   C39       1.0  0.24070084610671935  0.249937343508762  0.2641087376980167  1.0000
  C   C40       1.0  0.7407094128018701  0.7500726377478274  0.735889632758102  1.0000
  C   C41       1.0  0.3434339713592892  0.2604870772027894  0.1814186114940881  1.0000
  C   C42       1.0  0.8434348120165893  0.739521137225175  0.8185765676179598  1.0000
  C   C43       1.0  0.3379394707770445  0.18790134039406334  0.0843022315725008  1.0000
  C   C44       1.0  0.8379403114343449  0.8120980398907989  0.9156931186127579  1.0000
  C   C45       1.0  0.2535286442788164  0.0776803871364251  0.0738326363728135  1.0000
  C   C46       1.0  0.7535204712252936  0.9223198765627459  0.9261666134549884  1.0000
  C   C47       1.0  0.24809723967231895  0.0123059613429746  0.9790328723530308  1.0000
  C   C48       1.0  0.7480839159269055  0.9876881184560276  0.02096826360340742  1.0000
  C   C49       1.0  0.3269337298638817  0.0552681660832164  0.8927552444423129  1.0000
  C   C50       1.0  0.8269307075022567  0.944725030301477  0.1072419918715823  1.0000
  C   C51       1.0  0.41248414694455  0.1639254760115563  0.9019533762617655  1.0000
  C   C52       1.0  0.9124940013126734  0.8360721374446811  0.09804339052043791  1.0000
  C   C53       1.0  0.4189070597414216  0.2292327623174231  0.9970473518886536  1.0000
  C   C54       1.0  0.9189117634176471  0.7707683847960567  0.0029442777291492947  1.0000
  O   O1        1.0  0.5646677774373217  0.4080473031153744  0.5830856445915771  1.0000
  O   O2        1.0  0.064641183320532  0.5919308752260335  0.4169090409831355  1.0000
  O   O3        1.0  0.8270697761835069  0.3238658700691914  0.5836513071042404  1.0000
  O   O4        1.0  0.3270534834505128  0.6761237926582595  0.4163502983838896  1.0000
  O   O5        1.0  0.2694468575897418  0.5432379618546506  0.5851302990245699  1.0000
  O   O6        1.0  0.7694515612659671  0.4567525842871092  0.4148675262043966  1.0000
  O   O7        1.0  0.1341214416792837  0.4135659923120443  0.6742749121692668  1.0000
  O   O8        1.0  0.6341209946636113  0.5864254372440243  0.325729884662934  1.0000
  O   O9        1.0  0.13386648243033517  0.3265514495726123  0.42500318687988436  1.0000
  O   O10       1.0  0.6338801998173766  0.6734399799834563  0.574997002011294  1.0000
  O   O11       1.0  0.3849369590008038  0.3983447637449586  0.3703756769862636  1.0000
  O   O12       1.0  0.8849571147527229  0.6016528497112787  0.629629537687812  1.0000
