data_image0
_chemical_formula_structural       Cu4H14C18Br4N6
_chemical_formula_sum              "Cu4 H14 C18 Br4 N6"
_cell_length_a       8.705041149821586
_cell_length_b       8.317829832662516
_cell_length_c       8.543156073825957
_cell_angle_alpha    73.26450969589497
_cell_angle_beta     73.15611110416658
_cell_angle_gamma    74.24461305884668

_space_group_name_H-M_alt    "P 1"
_space_group_IT_number       1

loop_
  _space_group_symop_operation_xyz
  'x, y, z'

loop_
  _atom_site_type_symbol
  _atom_site_label
  _atom_site_symmetry_multiplicity
  _atom_site_fract_x
  _atom_site_fract_y
  _atom_site_fract_z
  _atom_site_occupancy
  Cu  Cu1       1.0  0.6410843525012099  0.21868624787527582  0.715109568994393  1.0000
  Cu  Cu2       1.0  0.35889824260566183  0.7813167139387573  0.2848724567716943  1.0000
  Cu  Cu3       1.0  0.38329282546632026  0.5826256850186838  0.913826167507793  1.0000
  Cu  Cu4       1.0  0.6166916255008348  0.41738476005974695  0.0861725276091363  1.0000
  H   H1        1.0  0.4648865731222286  0.904833049669975  0.907398762996401  1.0000
  H   H2        1.0  0.5351174297927487  0.09517551205581748  0.09259392858923837  1.0000
  H   H3        1.0  0.7625258380093245  0.7901371342883793  0.3599039206135756  1.0000
  H   H4        1.0  0.23748585474166364  0.20985275874909354  0.6400989425688339  1.0000
  H   H5        1.0  0.590210837355805  0.5918917654305317  0.5691254216141104  1.0000
  H   H6        1.0  0.40979721526893814  0.40809817270802273  0.43087958004250043  1.0000
  H   H7        1.0  0.8698820376546197  0.44966258461364833  0.44903908664261394  1.0000
  H   H8        1.0  0.13010706600352515  0.5503411674540715  0.5509621495149093  1.0000
  H   H9        1.0  0.07491662065827145  0.419329218983158  0.1810148881977227  1.0000
  H   H10       1.0  0.9250651681553708  0.5806744554840865  0.8189930172804554  1.0000
  H   H11       1.0  0.10977599048118951  0.15975268065520254  0.0685576618159445  1.0000
  H   H12       1.0  0.8902267004984596  0.8402633887147459  0.9314361129942129  1.0000
  H   H13       1.0  0.9438864233331401  0.9400497038735197  0.23280469400521048  1.0000
  H   H14       1.0  0.05613823591291831  0.059948460039628094  0.767195265058085  1.0000
  C   C1        1.0  0.5355680137406085  0.878118142190331  0.7860852339870091  1.0000
  C   C2        1.0  0.464438812879621  0.12188769115026332  0.21390846197527222  1.0000
  C   C3        1.0  0.7140749236472246  0.9578095445397566  0.5312708091804623  1.0000
  C   C4        1.0  0.28592408837410943  0.042192752083053606  0.4687257400278782  1.0000
  C   C5        1.0  0.7009186950369115  0.8157003412000565  0.4833892037761415  1.0000
  C   C6        1.0  0.29908894910273187  0.1842922393220903  0.5166141653117721  1.0000
  C   C7        1.0  0.6044298292140909  0.7061370398795361  0.5973207980474485  1.0000
  C   C8        1.0  0.39557431795662273  0.29386193894855245  0.40268330446220096  1.0000
  C   C9        1.0  0.8878585515143274  0.3392451867904569  0.3964327678248551  1.0000
  C   C10       1.0  0.11213851154766995  0.6607445510460721  0.6035834339988642  1.0000
  C   C11       1.0  0.002790013201114022  0.3210824898670452  0.2471399403468341  1.0000
  C   C12       1.0  0.997208648110842  0.6789124467350548  0.7528723681474291  1.0000
  C   C13       1.0  0.02125415745105391  0.177474767489862  0.18509285459469996  1.0000
  C   C14       1.0  0.9787423696168888  0.8225352475805536  0.8149026995619408  1.0000
  C   C15       1.0  0.9264690340526798  0.05605486342277293  0.27610121337361465  1.0000
  C   C16       1.0  0.07354090368587417  0.9439450118398013  0.7239034928368541  1.0000
  C   C17       1.0  0.813934503968966  0.08234602271128472  0.4253479926886357  1.0000
  C   C18       1.0  0.18607047691874368  0.9176557233022393  0.574651770784051  1.0000
  Br  Br1       1.0  0.7998140875811685  0.30609018890531564  0.8578867942267867  1.0000
  Br  Br2       1.0  0.2001662246037625  0.6939009060543243  0.1421230392662381  1.0000
  Br  Br3       1.0  0.36024912391241776  0.33918643722304154  0.8365746317712281  1.0000
  Br  Br4       1.0  0.6397443974608806  0.6608061351794844  0.1634219589852251  1.0000
  N   N1        1.0  0.5206871783710911  0.7370875133188335  0.749930215552425  1.0000
  N   N2        1.0  0.4793200399874494  0.2629076256855782  0.25007271715291784  1.0000
  N   N3        1.0  0.6304435402568771  0.9869242252776477  0.6859492859318407  1.0000
  N   N4        1.0  0.3695641379255648  0.013076491098424008  0.31404528279558963  1.0000
  N   N5        1.0  0.7922827089250292  0.2253411394343701  0.48343640077948197  1.0000
  N   N6        1.0  0.2077031625427566  0.774667983402118  0.5165621984327089  1.0000
