data_image0
_chemical_formula_structural       U2H36C64N8O12
_chemical_formula_sum              "U2 H36 C64 N8 O12"
_cell_length_a       9.030655883764672
_cell_length_b       9.498715443673495
_cell_length_c       17.3586
_cell_angle_alpha    104.55147278590516
_cell_angle_beta     91.59005601305952
_cell_angle_gamma    107.80140616434988

_space_group_name_H-M_alt    "P 1"
_space_group_IT_number       1

loop_
  _space_group_symop_operation_xyz
  'x, y, z'

loop_
  _atom_site_type_symbol
  _atom_site_label
  _atom_site_symmetry_multiplicity
  _atom_site_fract_x
  _atom_site_fract_y
  _atom_site_fract_z
  _atom_site_occupancy
  U   U1        1.0  0.5058226335752278  0.15907887918552888  0.25949503985650324  1.0000
  U   U2        1.0  0.4941779399225581  0.8409220174139236  0.7405041123497682  1.0000
  H   H1        1.0  0.857440632947295  0.5310601888592998  0.5621767922659942  1.0000
  H   H2        1.0  0.14255145672948538  0.46894185707927954  0.43782297157050465  1.0000
  H   H3        1.0  0.2259114868332901  0.5267030442300324  0.14424391526510053  1.0000
  H   H4        1.0  0.7740912478939563  0.47329095633466517  0.8557497113714092  1.0000
  H   H5        1.0  0.021471147506453295  0.10758044093608989  0.138777108739319  1.0000
  H   H6        1.0  0.9785297771458801  0.8924181569851086  0.8612205803354485  1.0000
  H   H7        1.0  0.2307793547013333  0.6820097924017716  0.07318098244473253  1.0000
  H   H8        1.0  0.7692237854826587  0.31798880551942676  0.9268201951127966  1.0000
  H   H9        1.0  0.29472298831277033  0.7583132676833486  0.2654404523394618  1.0000
  H   H10       1.0  0.7052745858909616  0.2416818822204689  0.7345538339014865  1.0000
  H   H11       1.0  0.7598850435988425  0.7575294183989455  0.577728394554619  1.0000
  H   H12       1.0  0.24010777553812798  0.2424714782005069  0.4222706457118335  1.0000
  H   H13       1.0  0.5974071404495831  0.8821189290708702  0.5200010783667821  1.0000
  H   H14       1.0  0.4025864081475703  0.1178808181894553  0.4799949339963163  1.0000
  H   H15       1.0  0.7631933773164405  0.1273088470456614  0.1018257722897857  1.0000
  H   H16       1.0  0.2368075201847829  0.8726863028581562  0.8981731705919743  1.0000
  H   H17       1.0  0.9130489904978774  0.4142482560576609  0.2125182462572468  1.0000
  H   H18       1.0  0.08695161015101148  0.5857560885591724  0.7874854129752933  1.0000
  H   H19       1.0  0.8818421335441259  0.141660644720595  0.443403592408913  1.0000
  H   H20       1.0  0.11816327647373726  0.8583448492353654  0.5566002942673762  1.0000
  H   H21       1.0  0.4261697516745783  0.8835188241271723  0.40430405028374855  1.0000
  H   H22       1.0  0.5738222836999967  0.11647632577664518  0.5956907320834972  1.0000
  H   H23       1.0  0.7653770523675902  0.3136960238812563  0.4377214853380025  1.0000
  H   H24       1.0  0.23461909006686446  0.6863048727181962  0.5622793311526311  1.0000
  H   H25       1.0  0.03398256880120701  0.57514424040248  0.3501806251546071  1.0000
  H   H26       1.0  0.9660210039906332  0.4248624028926072  0.6498228169336784  1.0000
  H   H27       1.0  0.3066169351711565  0.3038553822785701  0.1513744804767967  1.0000
  H   H28       1.0  0.693383962330067  0.6961397676252545  0.8486227341549863  1.0000
  H   H29       1.0  0.5961385038025141  0.6456998707114961  0.9748895159507995  1.0000
  H   H30       1.0  0.4038627720043523  0.3542964285314483  0.0251107425757411  1.0000
  H   H31       1.0  0.5484713910749619  0.8974752491425234  0.02313589882979979  1.0000
  H   H32       1.0  0.4515283986604359  0.10251990076129398  0.9768647563105263  1.0000
  H   H33       1.0  0.7452232430268637  0.5026933498735531  0.13246997641387992  1.0000
  H   H34       1.0  0.25477365601889085  0.4973098454041534  0.8675346235329613  1.0000
  H   H35       1.0  0.7019316732102325  0.7524355473894744  0.18646879066206173  1.0000
  H   H36       1.0  0.2980693057443061  0.24756994656648598  0.8135356081319287  1.0000
  C   C1        1.0  0.9595348043636065  0.866284483922513  0.07638256761705971  1.0000
  C   C2        1.0  0.0404676063601954  0.1337152633378125  0.923615300927253  1.0000
  C   C3        1.0  0.7762452456921878  0.5355816889836829  0.5159740176574631  1.0000
  C   C4        1.0  0.2237497889764413  0.4644192076157693  0.4840262067584433  1.0000
  C   C5        1.0  0.2918516805267046  0.5323382539681702  0.1990030699009466  1.0000
  C   C6        1.0  0.7081477309030434  0.4676557465965203  0.8009922370113216  1.0000
  C   C7        1.0  0.929427289002426  0.0078235514353509  0.10201115854054171  1.0000
  C   C8        1.0  0.07057474341573305  0.9921750464858475  0.8979876986922833  1.0000
  C   C9        1.0  0.1199965827991107  0.7002624470726744  0.06197273204653441  1.0000
  C   C10       1.0  0.8800058279246911  0.2997373001876511  0.9380280169143945  1.0000
  C   C11       1.0  0.9921286091843768  0.5774245292298231  0.015482440301219903  1.0000
  C   C12       1.0  0.007874152693965212  0.4225729193522483  0.9845185737781749  1.0000
  C   C13       1.0  0.3301406934674418  0.6584115614526453  0.26513713255130267  1.0000
  C   C14       1.0  0.6698587179623131  0.3415824391120452  0.7348581743609659  1.0000
  C   C15       1.0  0.7233448252925143  0.6598735208217902  0.5244523827350634  1.0000
  C   C16       1.0  0.2766487233046391  0.3401262264385352  0.4755459339613353  1.0000
  C   C17       1.0  0.1040016959213688  0.8426012018780185  0.09417120140515321  1.0000
  C   C18       1.0  0.8959992287309575  0.1573973960431871  0.9058282159195912  1.0000
  C   C19       1.0  0.4206471602180883  0.6590873728591404  0.3328783288171664  1.0000
  C   C20       1.0  0.5793515489025722  0.34091122506205807  0.6671187521914702  1.0000
  C   C21       1.0  0.5618590422785275  0.7864238040438423  0.46590115731495274  1.0000
  C   C22       1.0  0.43813523577881597  0.2135747938773562  0.5340952836447386  1.0000
  C   C23       1.0  0.7853064908857447  0.0182687454186805  0.0813265181421485  1.0000
  C   C24       1.0  0.21469478492112154  0.9817275538242639  0.9186725882177386  1.0000
  C   C25       1.0  0.8367832299169607  0.734321962752901  0.027609359900651505  1.0000
  C   C26       1.0  0.16321804588991276  0.26567433649005057  0.9723914747092054  1.0000
  C   C27       1.0  0.8954993273140913  0.5245790655239162  0.23725423983977126  1.0000
  C   C28       1.0  0.10450165164044727  0.47542642843204413  0.7627490067875726  1.0000
  C   C29       1.0  0.9721679463438446  0.9624381952610932  0.4569571074354357  1.0000
  C   C30       1.0  0.02783822028530379  0.0375695973731212  0.543047682280438  1.0000
  C   C31       1.0  0.893738701163656  0.031214901341669998  0.4134119404948819  1.0000
  C   C32       1.0  0.10626522278272431  0.9687894432751564  0.5865917667118694  1.0000
  C   C33       1.0  0.46702425747969295  0.7862755392964971  0.40322513961776  1.0000
  C   C34       1.0  0.5329711283434762  0.2137230586247014  0.5967707412500189  1.0000
  C   C35       1.0  0.7243347404239555  0.4123644892290201  0.4463288949569347  1.0000
  C   C36       1.0  0.27566178031615607  0.5876375567095593  0.553670356761856  1.0000
  C   C37       1.0  0.9366210941704551  0.7542641459400343  0.3468430981467777  1.0000
  C   C38       1.0  0.06338431584740789  0.2457413480159261  0.6531602124461884  1.0000
  C   C39       1.0  0.962323568336245  0.6124242043156726  0.3132143871875215  1.0000
  C   C40       1.0  0.03767962614995208  0.3875812896402877  0.6867888914226299  1.0000
  C   C41       1.0  0.3390479775518429  0.4060936949538245  0.20196631640830282  1.0000
  C   C42       1.0  0.6609540277152205  0.5939014549500001  0.7980297620482304  1.0000
  C   C43       1.0  0.6193349301685203  0.6604470410460124  0.462405070080692  1.0000
  C   C44       1.0  0.3806615634204817  0.3395515568751932  0.5375925550284607  1.0000
  C   C45       1.0  0.46882912449831327  0.5285914084151742  0.32935261913375063  1.0000
  C   C46       1.0  0.5311695846223543  0.47140718950602434  0.6706444618748861  1.0000
  C   C47       1.0  0.24122684827997887  0.95968322937442  0.14868933208494184  1.0000
  C   C48       1.0  0.7587751841381802  0.0403153685467785  0.8513083729812294  1.0000
  C   C49       1.0  0.6884450677035687  0.7485059569153307  0.009474235353991412  1.0000
  C   C50       1.0  0.31155658640894046  0.2514914916667408  0.9905250344840297  1.0000
  C   C51       1.0  0.6631889779313055  0.8877610348437769  0.035942400700015836  1.0000
  C   C52       1.0  0.3368122978755678  0.1122352643991746  0.9640578578265178  1.0000
  C   C53       1.0  0.8003912806388769  0.5752143500892046  0.1917339232806015  1.0000
  C   C54       1.0  0.19960859054982896  0.4247911438667558  0.8082710356053158  1.0000
  C   C55       1.0  0.7309994094881062  0.026103790245301198  0.29726502889249673  1.0000
  C   C56       1.0  0.26899821901783116  0.9738982556932781  0.7027394235676213  1.0000
  C   C57       1.0  0.843612386812012  0.8081037879905253  0.2994633814628997  1.0000
  C   C58       1.0  0.15638932160270969  0.19190055662630806  0.7005402937610442  1.0000
  C   C59       1.0  0.827734034340196  0.9547376231122939  0.3357105426106984  1.0000
  C   C60       1.0  0.1722676740745257  0.04526672150453949  0.6642925565299151  1.0000
  C   C61       1.0  0.7757184911203581  0.7143131178964168  0.22161498620749853  1.0000
  C   C62       1.0  0.2242824878341807  0.2856923760595436  0.7783888365031758  1.0000
  C   C63       1.0  0.5728993186314142  0.5306579201649555  0.39406291587868486  1.0000
  C   C64       1.0  0.4270975532632306  0.4693418270953699  0.6059342966252785  1.0000
  N   N1        1.0  0.9972417542908898  0.8305618745259764  0.4241130873944527  1.0000
  N   N2        1.0  0.0027603324294815956  0.169443619429984  0.5758907513076252  1.0000
  N   N3        1.0  0.854521678659566  0.5938980069326192  0.9989743501706486  1.0000
  N   N4        1.0  0.1454807049131333  0.4060982923103253  0.0010247721806422169  1.0000
  N   N5        1.0  0.4229000461091275  0.4019802102194134  0.2654123865906898  1.0000
  N   N6        1.0  0.577100121931906  0.5980160890235382  0.7345843994444934  1.0000
  N   N7        1.0  0.6258678865270682  0.4086429291368106  0.3864948125059655  1.0000
  N   N8        1.0  0.3741312008992423  0.5913568181235148  0.6135041602307751  1.0000
  O   O1        1.0  0.6120568092312481  0.9441843912510562  0.24679605257568235  1.0000
  O   O2        1.0  0.3879407921235867  0.055814206670142086  0.7532096536914211  1.0000
  O   O3        1.0  0.3668553802665997  0.9258432374673973  0.15565992310113336  1.0000
  O   O4        1.0  0.6331470304572092  0.0741565097929282  0.8443402497764723  1.0000
  O   O5        1.0  0.7603629339851707  0.1725008615069683  0.32002906593724845  1.0000
  O   O6        1.0  0.2396346945207668  0.8275011844316111  0.679974234356223  1.0000
  O   O7        1.0  0.23700475420232436  0.0896254650989974  0.1908590072605847  1.0000
  O   O8        1.0  0.7629976565214845  0.9103742821613281  0.8091365569504206  1.0000
  O   O9        1.0  0.6043685837434865  0.2271473396243948  0.18023995906478524  1.0000
  O   O10       1.0  0.3956330703690297  0.7728501089576767  0.8197604629398825  1.0000
  O   O11       1.0  0.4022544822075459  0.09040586636601937  0.3379740628356842  1.0000
  O   O12       1.0  0.5977413362234785  0.9096007769290679  0.6620252347294981  1.0000
