data_image0
_chemical_formula_structural       Ag2H8C2N8
_chemical_formula_sum              "Ag2 H8 C2 N8"
_cell_length_a       5.681492600506029
_cell_length_b       5.889471541284777
_cell_length_c       6.469605476336695
_cell_angle_alpha    68.62191866831795
_cell_angle_beta     73.75791738855023
_cell_angle_gamma    86.411332237873

_space_group_name_H-M_alt    "P 1"
_space_group_IT_number       1

loop_
  _space_group_symop_operation_xyz
  'x, y, z'

loop_
  _atom_site_type_symbol
  _atom_site_label
  _atom_site_symmetry_multiplicity
  _atom_site_fract_x
  _atom_site_fract_y
  _atom_site_fract_z
  _atom_site_occupancy
  Ag  Ag1       1.0  0.0623142664440763  0.07934529243568991  0.7424409744192104  1.0000
  Ag  Ag2       1.0  0.9376791619577532  0.9206552237146468  0.2575570306659073  1.0000
  H   H1        1.0  0.03448115175994101  0.5461609356595504  0.7178314688504912  1.0000
  H   H2        1.0  0.965525300723975  0.4538412888730364  0.2821672065441448  1.0000
  H   H3        1.0  0.23527108230163662  0.42426992024002896  0.8570545442341455  1.0000
  H   H4        1.0  0.7647351995279762  0.5757304337332415  0.14294172282509984  1.0000
  H   H5        1.0  0.426607285552606  0.7525681324643331  0.5072242979968565  1.0000
  H   H6        1.0  0.5733990281336432  0.24743224436901562  0.4927734990011245  1.0000
  H   H7        1.0  0.3222457958265109  0.606141503970413  0.35122208540879285  1.0000
  H   H8        1.0  0.6777623813693978  0.39385886928914726  0.648776774675845  1.0000
  C   C1        1.0  0.3847519069606733  0.5726861577967527  0.5058952877457727  1.0000
  C   C2        1.0  0.6152579630905919  0.42731234132970297  0.4941022270901243  1.0000
  N   N1        1.0  0.8118840510739886  0.8177333434441251  0.7366349553010353  1.0000
  N   N2        1.0  0.18811858793509367  0.1822653299981097  0.2633690167594267  1.0000
  N   N3        1.0  0.5947796886278739  0.8056864789461573  0.8253063395999547  1.0000
  N   N4        1.0  0.40520815835936463  0.19431055826789392  0.1747004888805535  1.0000
  N   N5        1.0  0.3813010760290325  0.7865078016531443  0.9095119774496754  1.0000
  N   N6        1.0  0.6186739812436886  0.213489443458144  0.09049964893419114  1.0000
  N   N7        1.0  0.18605690707860836  0.43998656432884076  0.7118386407333332  1.0000
  N   N8        1.0  0.81395116317627  0.5600119840915808  0.2881608708933854  1.0000
