data_image0
_chemical_formula_structural       Nd2H24C22O16
_chemical_formula_sum              "Nd2 H24 C22 O16"
_cell_length_a       6.300492711609098
_cell_length_b       8.87106531752202
_cell_length_c       12.399382357256517
_cell_angle_alpha    77.6722401010991
_cell_angle_beta     79.2500877225656
_cell_angle_gamma    70.66185711937607

_space_group_name_H-M_alt    "P 1"
_space_group_IT_number       1

loop_
  _space_group_symop_operation_xyz
  'x, y, z'

loop_
  _atom_site_type_symbol
  _atom_site_label
  _atom_site_symmetry_multiplicity
  _atom_site_fract_x
  _atom_site_fract_y
  _atom_site_fract_z
  _atom_site_occupancy
  Nd  Nd1       1.0  0.10518871057814036  0.2710023857073339  0.1018903968258655  1.0000
  Nd  Nd2       1.0  0.8781881759045618  0.7402957314484199  0.9079326733720098  1.0000
  H   H1        1.0  0.6746690233378344  0.5035515448981444  0.3326840945721727  1.0000
  H   H2        1.0  0.3418973876997738  0.47955781278445647  0.8673059054895377  1.0000
  H   H3        1.0  0.2629600580617221  0.5812912869063567  0.7530804939901117  1.0000
  H   H4        1.0  0.8903246297607692  0.9933353186623182  0.15160085057845404  1.0000
  H   H5        1.0  0.7030764021384855  0.14463843874513319  0.1967161264087096  1.0000
  H   H6        1.0  0.008190139599705026  0.7067075233226063  0.5001059349827344  1.0000
  H   H7        1.0  0.8446189424839472  0.7538554587789787  0.3218658444385839  1.0000
  H   H8        1.0  0.7058335059640511  0.9213569395685965  0.5307459054959267  1.0000
  H   H9        1.0  0.6443963069181321  0.7375724921350296  0.5554042864410605  1.0000
  H   H10       1.0  0.2969380133297362  0.04038582724750479  0.6361051660209966  1.0000
  H   H11       1.0  0.248374376242765  0.8607795815322633  0.6277524150403906  1.0000
  H   H12       1.0  0.348234491249194  0.9171337946384028  0.4163531302958816  1.0000
  H   H13       1.0  0.10210531959885566  0.055589210986170194  0.47179548731898546  1.0000
  H   H14       1.0  0.5656815146958961  0.1160336102063937  0.39799487562949315  1.0000
  H   H15       1.0  0.3227732077586083  0.24761164974763256  0.46678129414967634  1.0000
  H   H16       1.0  0.04542728718534049  0.45792444317587666  0.6646011355313846  1.0000
  H   H17       1.0  0.9420065870782822  0.41683295145966076  0.4901919164224679  1.0000
  H   H18       1.0  0.5001269822772585  0.15228567350001043  0.6868603588186843  1.0000
  H   H19       1.0  0.07668448516827907  0.0170167680474123  0.8892805520765492  1.0000
  H   H20       1.0  0.2796982714178356  0.8801043929565322  0.8303564039759482  1.0000
  H   H21       1.0  0.3230470540925622  0.8854319791341113  0.10609019074421158  1.0000
  H   H22       1.0  0.4715020372884523  0.9933921084232582  0.04653318578696994  1.0000
  H   H23       1.0  0.41915031966950517  0.5767078746611887  0.5060748571280415  1.0000
  H   H24       1.0  0.6729131470039247  0.2635128331292335  0.5017019865386844  1.0000
  C   C1        1.0  0.49245988467983176  0.5594818402338363  0.3316331381350965  1.0000
  C   C2        1.0  0.06451517884038077  0.6806764968277862  0.12445844217803172  1.0000
  C   C3        1.0  0.16894091435926836  0.6580529208977807  0.22786580270543066  1.0000
  C   C4        1.0  0.4039439590305562  0.5912568594728781  0.2306332911489832  1.0000
  C   C5        1.0  0.11674196570184853  0.6726494412362313  0.4245066602916553  1.0000
  C   C6        1.0  0.026568880118411083  0.7003916680178578  0.32509353808256247  1.0000
  C   C7        1.0  0.5722638790101441  0.5654611535818148  0.1281207191772396  1.0000
  C   C8        1.0  0.694601362490239  0.809060102813305  0.6980605492642696  1.0000
  C   C9        1.0  0.6019506142209609  0.8521392033510721  0.5876311956387424  1.0000
  C   C10       1.0  0.34946409878347134  0.9417701264578682  0.5867107049549319  1.0000
  C   C11       1.0  0.2873979053013472  0.012251744479584699  0.46898809602056707  1.0000
  C   C12       1.0  0.3796564543138884  0.15403700177130727  0.41299717420670135  1.0000
  C   C13       1.0  0.9216743069141843  0.3280435675203676  0.8761933686044685  1.0000
  C   C14       1.0  0.8384837793941031  0.32257272148544297  0.7724629961105338  1.0000
  C   C15       1.0  0.9277729382785294  0.3898505371404113  0.6685949465552882  1.0000
  C   C16       1.0  0.8686306330028299  0.36809345370709673  0.5713611061422057  1.0000
  C   C17       1.0  0.6221808847114332  0.21741085374313937  0.6813473893557997  1.0000
  C   C18       1.0  0.5737613783246545  0.17448184568139163  0.8904217154108593  1.0000
  C   C19       1.0  0.28773924022159747  0.22901963441189113  0.3034732353079975  1.0000
  C   C20       1.0  0.3492386725648089  0.6004947523631046  0.42790133148620413  1.0000
  C   C21       1.0  0.6837518688621669  0.23656088712927933  0.7789946598175279  1.0000
  C   C22       1.0  0.7170168701422384  0.281060607611863  0.5779380301307597  1.0000
  O   O1        1.0  0.9095499189577507  0.7570917340754875  0.6989216483934939  1.0000
  O   O2        1.0  0.5622956836499  0.8252421592003856  0.7895819063339148  1.0000
  O   O3        1.0  0.9261486890439696  0.4599858878334615  0.8983334172192844  1.0000
  O   O4        1.0  0.9930148567071697  0.1935679692828813  0.9404998902084929  1.0000
  O   O5        1.0  0.27893054365576814  0.5917686600939192  0.8274524946713839  1.0000
  O   O6        1.0  0.6292368074961344  0.0234339796798366  0.9260711195326224  1.0000
  O   O7        1.0  0.423949425409397  0.2803729684302496  0.9423343771583746  1.0000
  O   O8        1.0  0.7305006500558802  0.43315921353137543  0.134205099139173  1.0000
  O   O9        1.0  0.8709414144346325  0.0907837068556461  0.18388588140409473  1.0000
  O   O10       1.0  0.11400839007406925  0.5624064258351423  0.0701000926226101  1.0000
  O   O11       1.0  0.9241087866553314  0.8165084460901825  0.09232649143676495  1.0000
  O   O12       1.0  0.11462793240621494  0.9155223958209009  0.8579589013305196  1.0000
  O   O13       1.0  0.5548953299192975  0.6816393745171822  0.04605425588451346  1.0000
  O   O14       1.0  0.07399251602004137  0.29027796500381  0.302112142825564  1.0000
  O   O15       1.0  0.422158040311622  0.22346234727852018  0.21167095773397196  1.0000
  O   O16       1.0  0.3437651685766383  0.9893269512362082  0.10769313552015798  1.0000
