data_image0
_chemical_formula_structural       Cu2H44C36N4O10
_chemical_formula_sum              "Cu2 H44 C36 N4 O10"
_cell_length_a       8.831506486104328
_cell_length_b       10.692292710871591
_cell_length_c       10.928589345259251
_cell_angle_alpha    70.09487724079654
_cell_angle_beta     72.14314059142417
_cell_angle_gamma    68.08259544500089

_space_group_name_H-M_alt    "P 1"
_space_group_IT_number       1

loop_
  _space_group_symop_operation_xyz
  'x, y, z'

loop_
  _atom_site_type_symbol
  _atom_site_label
  _atom_site_symmetry_multiplicity
  _atom_site_fract_x
  _atom_site_fract_y
  _atom_site_fract_z
  _atom_site_occupancy
  Cu  Cu1       1.0  0.9999980427977629  0.5000027879884499  1.8164129898749413e-06  1.0000
  Cu  Cu2       1.0  0.5000100619696255  1.4364161419754e-07  0.4999986698238104  1.0000
  H   H1        1.0  0.7123428227479279  0.7937109187240098  0.9816014677554319  1.0000
  H   H2        1.0  0.28765456187274907  0.2062872350782357  0.018396517132110494  1.0000
  H   H3        1.0  0.7206595716629562  0.9193861607360105  0.048007801989832954  1.0000
  H   H4        1.0  0.27933191936593  0.08061207601322451  0.9519944651502997  1.0000
  H   H5        1.0  0.9941043364439325  0.9250111687470338  0.8942323764641313  1.0000
  H   H6        1.0  0.005891153693546893  0.07499005383330373  0.10577607019978787  1.0000
  H   H7        1.0  0.7178882800552628  0.9606069140770894  0.7552150011206038  1.0000
  H   H8        1.0  0.28211703967355817  0.03939626171803211  0.24478286254937126  1.0000
  H   H9        1.0  0.7458864401536544  0.0825810095221868  0.8148809373113508  1.0000
  H   H10       1.0  0.2541083184350086  0.9174223049536959  0.18512608986267057  1.0000
  H   H11       1.0  0.553591048025993  0.041661191973908294  0.8713920486228232  1.0000
  H   H12       1.0  0.4464055206929134  0.9583359331339518  0.1286074114945991  1.0000
  H   H13       1.0  0.2781394320379674  0.2576611679166589  0.3588238411453942  1.0000
  H   H14       1.0  0.7218746139329894  0.7423408212373203  0.6411721028426172  1.0000
  H   H15       1.0  0.16536035490208423  0.4218665954403562  0.7000540144594607  1.0000
  H   H16       1.0  0.8346447078151653  0.578126255635894  0.29994187241643994  1.0000
  H   H17       1.0  0.2829020672989699  0.4046688831343985  0.12863693329174444  1.0000
  H   H18       1.0  0.7171030249964473  0.595323961301965  0.8713598632400235  1.0000
  H   H19       1.0  0.7176269704718123  0.1366439543057396  0.5163991997965168  1.0000
  H   H20       1.0  0.2823873029325484  0.8633683662070055  0.48359781132970153  1.0000
  H   H21       1.0  0.20257881148538096  0.2210837108149093  0.61510245366145  1.0000
  H   H22       1.0  0.7974425368290596  0.7789067809124717  0.38489081416339815  1.0000
  H   H23       1.0  0.30439729429243567  0.599865569844006  0.6862405186253824  1.0000
  H   H24       1.0  0.6955870771012299  0.40013277706543704  0.3137654317684663  1.0000
  H   H25       1.0  0.5248741387828914  0.5488486636983367  0.6677668933805592  1.0000
  H   H26       1.0  0.47511086580428225  0.4511620991718672  0.3322365746928567  1.0000
  H   H27       1.0  0.7016713629130606  0.3356945146194121  0.5938817426232106  1.0000
  H   H28       1.0  0.2983305652752079  0.6643190608943783  0.4061172105000921  1.0000
  H   H29       1.0  0.7745687441333117  0.12719499351372573  0.01728409663883921  1.0000
  H   H30       1.0  0.2254314144102239  0.8727979664154258  0.9827093942415671  1.0000
  H   H31       1.0  0.751826174469251  0.9921398121184803  0.25323195276499877  1.0000
  H   H32       1.0  0.2481817160879487  0.007859179231914497  0.7467657102601705  1.0000
  H   H33       1.0  0.3551830599531129  0.553595354433284  0.9033652586209725  1.0000
  H   H34       1.0  0.6448066853411091  0.4463977109771591  0.09664194404283684  1.0000
  H   H35       1.0  0.28727354319805437  0.4186413260545265  0.9032306637204854  1.0000
  H   H36       1.0  0.7127211318953498  0.581350660914005  0.09676918364126394  1.0000
  H   H37       1.0  0.6511010463631023  0.4009723394405  0.8788129931474132  1.0000
  H   H38       1.0  0.3488947020724852  0.5990268974825739  0.12118231851250268  1.0000
  H   H39       1.0  0.5962841349620476  0.27489003527632866  0.8504655773795022  1.0000
  H   H40       1.0  0.40371167262988183  0.7251091883669646  0.14953155359214768  1.0000
  H   H41       1.0  0.06687082134651229  0.1170440357070817  0.4585492279585566  1.0000
  H   H42       1.0  0.9331262666347866  0.8829623914115176  0.5414497349023505  1.0000
  H   H43       1.0  0.0851413823949443  0.007859602984623796  0.5970867072619086  1.0000
  H   H44       1.0  0.9148560565716652  0.9921457815061457  0.40291251051601035  1.0000
  C   C1        1.0  0.009943366790267319  0.7430241744458073  0.05652365046801574  1.0000
  C   C2        1.0  0.9900444800680575  0.25697099679361207  0.943483353018756  1.0000
  C   C3        1.0  0.7596492770829002  0.8826231363590434  0.9575839921018598  1.0000
  C   C4        1.0  0.2403470293851981  0.11737501145696429  0.04241794206615169  1.0000
  C   C5        1.0  0.00958512022567255  0.7668851305908645  0.8083383467886589  1.0000
  C   C6        1.0  0.9904112997447001  0.233120234633887  0.19166663958147706  1.0000
  C   C7        1.0  0.9527496602378914  0.8317288797031921  0.9257233598652377  1.0000
  C   C8        1.0  0.047246328775756276  0.16827126704986034  0.07428988999505036  1.0000
  C   C9        1.0  0.6894608837107441  0.9981687170166469  0.84379625228307  1.0000
  C   C10       1.0  0.31053518570314514  0.0018335873772131008  0.15620344190401875  1.0000
  C   C11       1.0  0.43135652130149527  0.3964506924901271  0.654555872078241  1.0000
  C   C12       1.0  0.5686434589153322  0.6035505141958027  0.3454422353990053  1.0000
  C   C13       1.0  0.3869411938247893  0.2335317082289662  0.2802626792408276  1.0000
  C   C14       1.0  0.6130627859294719  0.7664683808293588  0.7197365704941844  1.0000
  C   C15       1.0  0.2904651056499574  0.36240073167736847  0.6589155554076597  1.0000
  C   C16       1.0  0.7095416228305494  0.637591029638159  0.3410839143517349  1.0000
  C   C17       1.0  0.391251531125029  0.31512012727676353  0.15009442262829953  1.0000
  C   C18       1.0  0.6087515735711335  0.6848789463669575  0.849904483024858  1.0000
  C   C19       1.0  0.5981201989780658  0.20273005276612824  0.5578042665868848  1.0000
  C   C20       1.0  0.40189521654561133  0.7972750164847611  0.4421912009919564  1.0000
  C   C21       1.0  0.30998462598956417  0.24971259641711896  0.6131090676827496  1.0000
  C   C22       1.0  0.6900318724970943  0.7502852348516952  0.38688303703698074  1.0000
  C   C23       1.0  0.4141526072016147  0.5120905940648584  0.7111453767553114  1.0000
  C   C24       1.0  0.5858386171949019  0.48791180590211525  0.2888537407480242  1.0000
  C   C25       1.0  0.5872361759834988  0.3140339032479175  0.6016529942675604  1.0000
  C   C26       1.0  0.4127714179343158  0.6859733614188316  0.39834564673097356  1.0000
  C   C27       1.0  0.6627124466586665  0.16011433930267316  0.09048324315652675  1.0000
  C   C28       1.0  0.33728990172091483  0.8398795889081686  0.9095139197722163  1.0000
  C   C29       1.0  0.6507843063548081  0.0844309603572242  0.22206014895279946  1.0000
  C   C30       1.0  0.34921961424311826  0.915569141980889  0.7779372814704716  1.0000
  C   C31       1.0  0.5315369742830427  0.27811529255886563  0.05116754229794643  1.0000
  C   C32       1.0  0.46846021248240527  0.7218725232447125  0.948830285107256  1.0000
  C   C33       1.0  0.39253208879531354  0.4629187816987112  0.8632290812496847  1.0000
  C   C34       1.0  0.6074643955706377  0.5370752228192331  0.136773273587515  1.0000
  C   C35       1.0  0.5487597944000981  0.35452719410686473  0.9066593177914939  1.0000
  C   C36       1.0  0.4512394295001485  0.6454688671461851  0.09333704696134498  1.0000
  N   N1        1.0  0.5140744389161966  0.11992134684878408  0.31569632464852765  1.0000
  N   N2        1.0  0.4859335359939576  0.8800807650915274  0.6842984436568571  1.0000
  N   N3        1.0  0.46203308854083497  0.17016193706601973  0.5643821797310195  1.0000
  N   N4        1.0  0.5379860690798709  0.8298357932970928  0.4356174905775416  1.0000
  O   O1        1.0  0.04672287249417909  0.6078162549997045  0.08739104048936498  1.0000
  O   O2        1.0  0.9532520706867015  0.3921853638065399  0.9126163197524162  1.0000
  O   O3        1.0  0.014502508822367493  0.8057783231048745  0.13239449736157374  1.0000
  O   O4        1.0  0.9854797014557305  0.1942272558004063  0.8676187651718622  1.0000
  O   O5        1.0  0.01139066525124834  0.640289052392866  0.8284846163611165  1.0000
  O   O6        1.0  0.988622184254453  0.35971295733444447  0.17151163828388857  1.0000
  O   O7        1.0  0.04334051066573605  0.8417182063400687  0.691866791290927  1.0000
  O   O8        1.0  0.9566476184007723  0.1582904234879265  0.3081374749584  1.0000
  O   O9        1.0  0.13189950730902206  0.07999602845956129  0.5287844580034999  1.0000
  O   O10       1.0  0.8681001219224812  0.9200062208541907  0.4712133945567345  1.0000
