data_image0
_chemical_formula_structural       Zn2H18C28N2O6
_chemical_formula_sum              "Zn2 H18 C28 N2 O6"
_cell_length_a       7.02693362979093
_cell_length_b       9.469237748960381
_cell_length_c       9.800143605529415
_cell_angle_alpha    96.83775358449606
_cell_angle_beta     90.00166385447703
_cell_angle_gamma    90.00010792181646

_space_group_name_H-M_alt    "P 1"
_space_group_IT_number       1

loop_
  _space_group_symop_operation_xyz
  'x, y, z'

loop_
  _atom_site_type_symbol
  _atom_site_label
  _atom_site_symmetry_multiplicity
  _atom_site_fract_x
  _atom_site_fract_y
  _atom_site_fract_z
  _atom_site_occupancy
  Zn  Zn1       1.0  0.8864024719152042  0.9255283808119543  0.3068538918996637  1.0000
  Zn  Zn2       1.0  0.3864043452154675  0.07447697257639871  0.6931494480785859  1.0000
  H   H1        1.0  0.8749561652766502  0.5761915334607225  0.955117961365815  1.0000
  H   H2        1.0  0.3749630015744644  0.4238094435525569  0.04488967598607732  1.0000
  H   H3        1.0  0.905606168808447  0.6005818668214147  0.7073268182364316  1.0000
  H   H4        1.0  0.40560288955761337  0.39940326614744504  0.2926804462391104  1.0000
  H   H5        1.0  0.9711740796223012  0.8397611502569405  0.630081643307733  1.0000
  H   H6        1.0  0.47115475993992123  0.1602189452292038  0.3699253358789463  1.0000
  H   H7        1.0  0.98609908949949  0.0518624385681221  0.8029729671103426  1.0000
  H   H8        1.0  0.4860806081365823  0.9481274866825161  0.19702232645104806  1.0000
  H   H9        1.0  0.9978582536951138  0.16057707203907512  0.016175545072627504  1.0000
  H   H10       1.0  0.4978651415521896  0.8394245841229947  0.9838225280760541  1.0000
  H   H11       1.0  0.10108593606309312  0.4016609310966146  0.5753233522362606  1.0000
  H   H12       1.0  0.601100719736131  0.5983422214891618  0.42467266129382614  1.0000
  H   H13       1.0  0.9972557686220683  0.6097708300891329  0.46133833848845285  1.0000
  H   H14       1.0  0.4972651106748245  0.390239331703917  0.5386608172461678  1.0000
  H   H15       1.0  0.8598411602441304  0.5713005006958625  0.2256699191787561  1.0000
  H   H16       1.0  0.3598614123195604  0.4287028163249857  0.7743193316206886  1.0000
  H   H17       1.0  0.8192575367676868  0.32536242548834343  0.10993121886156132  1.0000
  H   H18       1.0  0.31928161090053925  0.6746300316327235  0.8900598588588694  1.0000
  C   C1        1.0  0.943859128997346  0.9370674451040558  0.9785594324013973  1.0000
  C   C2        1.0  0.4438512921525303  0.06292758140535432  0.021438688024737505  1.0000
  C   C3        1.0  0.915040744935304  0.7988665868247651  0.02385818522618168  1.0000
  C   C4        1.0  0.4150442565834284  0.20112821673033213  0.976146441772656  1.0000
  C   C5        1.0  0.9008260753762586  0.6800000924944883  0.9208223883912157  1.0000
  C   C6        1.0  0.4008325867883116  0.3199978441684977  0.07918234203791032  1.0000
  C   C7        1.0  0.9189308162700628  0.6945291690060031  0.7827883632253219  1.0000
  C   C8        1.0  0.41893567323867836  0.30546249019045035  0.2172139000050279  1.0000
  C   C9        1.0  0.9529847919608017  0.828650871286179  0.7385675624494682  1.0000
  C   C10       1.0  0.45298964126045155  0.1713398619648387  0.26143530038425683  1.0000
  C   C11       1.0  0.9636088618819231  0.9465965912466461  0.8354873157610998  1.0000
  C   C12       1.0  0.46360669977448776  0.05339315184599507  0.16451360276082744  1.0000
  C   C13       1.0  0.9585133967100747  0.06758602419911598  0.06722244757688861  1.0000
  C   C14       1.0  0.45851564487263374  0.9324133460039125  0.9327745006354251  1.0000
  C   C15       1.0  0.9487410237052246  0.22477210732418487  0.2726989864727116  1.0000
  C   C16       1.0  0.44874748892037536  0.7752314926649577  0.7272972796767476  1.0000
  C   C17       1.0  0.024899807927148705  0.2458666186636336  0.4077508863524386  1.0000
  C   C18       1.0  0.5248946301120585  0.7541425767235168  0.5922463379023243  1.0000
  C   C19       1.0  0.039569133706429206  0.38617707963656045  0.47281592842873715  1.0000
  C   C20       1.0  0.5395652712637473  0.6138310810559561  0.5271835132485805  1.0000
  C   C21       1.0  0.9830833899615357  0.5022644428101586  0.4085410750337175  1.0000
  C   C22       1.0  0.4831008049415644  0.49773931115161235  0.5914549154866152  1.0000
  C   C23       1.0  0.905349812287014  0.48047629530949393  0.27640587532143723  1.0000
  C   C24       1.0  0.40537823957716074  0.5195281168338752  0.7235946821943318  1.0000
  C   C25       1.0  0.8872209271321978  0.3429500805820922  0.21048799580555771  1.0000
  C   C26       1.0  0.38723810418957083  0.6570564005448319  0.7895114248397379  1.0000
  C   C27       1.0  0.10625813896104573  0.1311880321590593  0.4837169347054484  1.0000
  C   C28       1.0  0.606258769616595  0.8688225401732053  0.5162832047948953  1.0000
  N   N1        1.0  0.9337058299752388  0.0873352303557553  0.20080436293730491  1.0000
  N   N2        1.0  0.4337140907434148  0.91266719972392  0.799194496699272  1.0000
  O   O1        1.0  0.9016775643726475  0.7763139367597773  0.15262159982901122  1.0000
  O   O2        1.0  0.4016859666185226  0.22369252662992525  0.8473832260905143  1.0000
  O   O3        1.0  0.07718616359798602  0.9985658776874262  0.45009383733815167  1.0000
  O   O4        1.0  0.5772043956255573  0.0014423284403192985  0.5499135479573667  1.0000
  O   O5        1.0  0.20976487168160673  0.17620526517161042  0.58755313482137  1.0000
  O   O6        1.0  0.7097555573510377  0.8238069105546019  0.41244123196459265  1.0000
