data_image0
_chemical_formula_structural       Cs4H28C28S4O12
_chemical_formula_sum              "Cs4 H28 C28 S4 O12"
_cell_length_a       7.225882871109179
_cell_length_b       10.268762978055712
_cell_length_c       13.706242796087894
_cell_angle_alpha    109.6742545883798
_cell_angle_beta     90.00018548652122
_cell_angle_gamma    89.99937208403863

_space_group_name_H-M_alt    "P 1"
_space_group_IT_number       1

loop_
  _space_group_symop_operation_xyz
  'x, y, z'

loop_
  _atom_site_type_symbol
  _atom_site_label
  _atom_site_symmetry_multiplicity
  _atom_site_fract_x
  _atom_site_fract_y
  _atom_site_fract_z
  _atom_site_occupancy
  Cs  Cs1       1.0  0.3288775024948478  0.1623722880189717  0.4308684891985238  1.0000
  Cs  Cs2       1.0  0.8288735931570983  0.33762872538590466  0.5691319567095549  1.0000
  Cs  Cs3       1.0  0.671122895085098  0.837629873140976  0.5691309362174622  1.0000
  Cs  Cs4       1.0  0.1711240366261464  0.6623692877994355  0.4308671197297614  1.0000
  H   H1        1.0  0.7279455255778373  0.09453312970608609  0.20160968542653993  1.0000
  H   H2        1.0  0.22793819607829852  0.40546562989776896  0.7983863453933396  1.0000
  H   H3        1.0  0.2720576398519867  0.9054649291805533  0.7983864843451515  1.0000
  H   H4        1.0  0.7720566658800723  0.5945303721748231  0.20160855989077223  1.0000
  H   H5        1.0  0.4577846708771248  0.0609240627178664  0.0837283445949808  1.0000
  H   H6        1.0  0.957779903564294  0.43907178046169537  0.9162724471019885  1.0000
  H   H7        1.0  0.5422129588818195  0.9390780641606752  0.9162732608215479  1.0000
  H   H8        1.0  0.04221911014010259  0.5609251985795395  0.08372636042621912  1.0000
  H   H9        1.0  0.27289583808754253  0.7214375604837641  0.1763954646283565  1.0000
  H   H10       1.0  0.7728957713061463  0.7785658588050522  0.8236111773550621  1.0000
  H   H11       1.0  0.7271031755610338  0.2785686800825572  0.8236086697652142  1.0000
  H   H12       1.0  0.22710601018438578  0.22143931331947897  0.1763948681274385  1.0000
  H   H13       1.0  0.5457401216254995  0.7513989626323079  0.2914297709945473  1.0000
  H   H14       1.0  0.04573745325267  0.7486042153308359  0.7085734827151101  1.0000
  H   H15       1.0  0.45426442771526615  0.24860110737250102  0.708570569932519  1.0000
  H   H16       1.0  0.9542601765062741  0.2513979115476985  0.2914281227014257  1.0000
  H   H17       1.0  0.08649004855512739  0.7896701069341957  0.05885859130797402  1.0000
  H   H18       1.0  0.5864931375638207  0.7103306603311094  0.9411455678280946  1.0000
  H   H19       1.0  0.9135048133755888  0.21033301980162375  0.9411454630200424  1.0000
  H   H20       1.0  0.4135086439415049  0.2896714436696468  0.058857490921390386  1.0000
  H   H21       1.0  0.09270248673393408  0.9695246591467277  0.07927082264873046  1.0000
  H   H22       1.0  0.5926971752174524  0.5304760365758056  0.9207347882844419  1.0000
  H   H23       1.0  0.9072979108597465  0.03047743342870749  0.9207329627676659  1.0000
  H   H24       1.0  0.4073032223690091  0.4695270901383066  0.07926926604288546  1.0000
  H   H25       1.0  0.21262777934158814  0.8525587480474638  0.9729488952372094  1.0000
  H   H26       1.0  0.7126332297730045  0.6474431212512354  0.027054317171383967  1.0000
  H   H27       1.0  0.7873656986778315  0.14744336741660646  0.02705343684657181  1.0000
  H   H28       1.0  0.2873713195601866  0.3525589827386708  0.9729487415777601  1.0000
  C   C1        1.0  0.6528383674428256  0.9260801770131121  0.2542015444252712  1.0000
  C   C2        1.0  0.15283310282345752  0.5739253550222471  0.7457966761798005  1.0000
  C   C3        1.0  0.3471620301755038  0.07391680202270119  0.7457972631027661  1.0000
  C   C4        1.0  0.8471645269430541  0.4260747378711968  0.2542022114146505  1.0000
  C   C5        1.0  0.6298086607293455  0.011339697295909397  0.19426429221176997  1.0000
  C   C6        1.0  0.12981115452365802  0.4886504559670895  0.8057337026950151  1.0000
  C   C7        1.0  0.3701972725355702  0.9886573274412027  0.8057316086486425  1.0000
  C   C8        1.0  0.8701850913555093  0.5113455118078248  0.19426338258912773  1.0000
  C   C9        1.0  0.47658772998958915  0.9923743227107519  0.12892406987833027  1.0000
  C   C10       1.0  0.9765755532366286  0.507625511134172  0.8710768972094983  1.0000
  C   C11       1.0  0.5234154354421676  0.007624724591558194  0.8710752754712348  1.0000
  C   C12       1.0  0.0234262282884146  0.4923725020348824  0.1289221792293063  1.0000
  C   C13       1.0  0.34433477442078003  0.889254640255736  0.12184828282890696  1.0000
  C   C14       1.0  0.8443362614358705  0.6107410484596014  0.878152099098209  1.0000
  C   C15       1.0  0.6556656231397967  0.11075061188949317  0.8781526759866197  1.0000
  C   C16       1.0  0.15566275224652065  0.38926003284408484  0.1218499640739452  1.0000
  C   C17       1.0  0.37355835349922034  0.8024100609049752  0.18056290907092898  1.0000
  C   C18       1.0  0.8735553678083859  0.6975905807983054  0.8194380835126653  1.0000
  C   C19       1.0  0.6264406601808762  0.19759103182946083  0.8194384274344912  1.0000
  C   C20       1.0  0.1264464137068018  0.3024094777866039  0.180562984081476  1.0000
  C   C21       1.0  0.5260062239801401  0.8198921784791792  0.24626222903929568  1.0000
  C   C22       1.0  0.026013196826483006  0.6801039037860335  0.7537398738429391  1.0000
  C   C23       1.0  0.4739955575258891  0.18010792582874294  0.75373593188791  1.0000
  C   C24       1.0  0.9739858168559011  0.31989717751765306  0.24626218932922236  1.0000
  C   C25       1.0  0.17557330426850373  0.8740762524983549  0.05472689535243086  1.0000
  C   C26       1.0  0.6755708101467591  0.6259228049743583  0.9452755194942956  1.0000
  C   C27       1.0  0.8244243255143859  0.12592276053339896  0.945274629998025  1.0000
  C   C28       1.0  0.3244309713562715  0.374079310457148  0.054726812588462834  1.0000
  S   S1        1.0  0.8247896731673592  0.964888765059001  0.353532481980622  1.0000
  S   S2        1.0  0.3247954815306145  0.5350925189435785  0.6464692266968585  1.0000
  S   S3        1.0  0.17521349220735521  0.03511655565988289  0.6464641168341602  1.0000
  S   S4        1.0  0.6752049161306817  0.46489925510658736  0.3535304162766977  1.0000
  O   O1        1.0  0.9647145386366277  0.051903911632656674  0.3278962081600127  1.0000
  O   O2        1.0  0.4647030142332654  0.4480991847887948  0.6721021041989914  1.0000
  O   O3        1.0  0.03528724290779191  0.9480910105511237  0.672101334879244  1.0000
  O   O4        1.0  0.5352918477171755  0.5518998511153226  0.3278979678183376  1.0000
  O   O5        1.0  0.7200362396085965  0.04081673262231789  0.4489209927056379  1.0000
  O   O6        1.0  0.22003349752215945  0.4591820203989059  0.5510794000714087  1.0000
  O   O7        1.0  0.2799655419168019  0.9591802807003232  0.551075634822027  1.0000
  O   O8        1.0  0.7799655161605799  0.5408180610583598  0.4489202141896058  1.0000
  O   O9        1.0  0.8950866214225784  0.8321339928922882  0.35637664559360627  1.0000
  O   O10       1.0  0.3950917336750593  0.6678717192454114  0.6436213262156231  1.0000
  O   O11       1.0  0.1049137762033183  0.16786095215842065  0.6436194441123606  1.0000
  O   O12       1.0  0.6049114317616358  0.33212630534897164  0.3563770235562772  1.0000
