data_image0
_chemical_formula_structural       Cd2H40C48S4N12O16
_chemical_formula_sum              "Cd2 H40 C48 S4 N12 O16"
_cell_length_a       7.56656039522979
_cell_length_b       9.58391578008534
_cell_length_c       19.352738601941837
_cell_angle_alpha    89.99956865263037
_cell_angle_beta     101.08175939069095
_cell_angle_gamma    89.9998668295688

_space_group_name_H-M_alt    "P 1"
_space_group_IT_number       1

loop_
  _space_group_symop_operation_xyz
  'x, y, z'

loop_
  _atom_site_type_symbol
  _atom_site_label
  _atom_site_symmetry_multiplicity
  _atom_site_fract_x
  _atom_site_fract_y
  _atom_site_fract_z
  _atom_site_occupancy
  Cd  Cd1       1.0  0.49999919928772135  0.49999804198858316  0.4999989519831799  1.0000
  Cd  Cd2       1.0  9.398892117994069e-07  0.9999996977247891  0.9999996134365785  1.0000
  H   H1        1.0  0.0104653745719361  0.7292027034275822  0.3101793120332771  1.0000
  H   H2        1.0  0.4895340329329088  0.2292050430176928  0.1898162175091825  1.0000
  H   H3        1.0  0.9895289865617799  0.27079442396259173  0.6898193235178238  1.0000
  H   H4        1.0  0.5104684098162409  0.7708025185049437  0.8101835389673934  1.0000
  H   H5        1.0  0.9397446141746145  0.8373495695558759  0.19104295688138953  1.0000
  H   H6        1.0  0.5602582256429898  0.33734880314037957  0.3089522537723609  1.0000
  H   H7        1.0  0.060251095026451706  0.16264755782835755  0.8089562961809518  1.0000
  H   H8        1.0  0.4397469091985755  0.6626524978930989  0.6910471872671663  1.0000
  H   H9        1.0  0.6229307068831744  0.8575341660169115  0.12701473161421004  1.0000
  H   H10       1.0  0.8770679958448327  0.3575276665499559  0.37298112794583443  1.0000
  H   H11       1.0  0.3770663490223569  0.14246713502469532  0.8729846221267078  1.0000
  H   H12       1.0  0.12293444962492832  0.6424736344757492  0.6270196621918059  1.0000
  H   H13       1.0  0.36946251208812  0.7805863032786392  0.18298606073516765  1.0000
  H   H14       1.0  0.1305379925010044  0.2805779805248179  0.3170109094800963  1.0000
  H   H15       1.0  0.6305372372392242  0.21941812800347552  0.8170134943735758  1.0000
  H   H16       1.0  0.8694644489084454  0.719424363927523  0.6829883301830504  1.0000
  H   H17       1.0  0.8359844760383908  0.2950531474949614  0.5224080257557657  1.0000
  H   H18       1.0  0.6640114457454516  0.7950542379820932  0.9775915357287343  1.0000
  H   H19       1.0  0.16401527330440765  0.7049450232980945  0.47759152936580296  1.0000
  H   H20       1.0  0.33598561557296586  0.20494601962893463  0.02240988531079319  1.0000
  H   H21       1.0  0.3153521026679442  0.22535434711103627  0.4132475061285489  1.0000
  H   H22       1.0  0.1846486786729571  0.7253550845806133  0.08675124081499057  1.0000
  H   H23       1.0  0.6846530254236143  0.774641736867878  0.5867493508010638  1.0000
  H   H24       1.0  0.8153510720095412  0.27464830328273143  0.9132488311200146  1.0000
  H   H25       1.0  0.7157516919072008  0.8996576428222411  0.4195384283449214  1.0000
  H   H26       1.0  0.7842481765690296  0.39966202524507116  0.08046769579074457  1.0000
  H   H27       1.0  0.284250773876991  0.1003332239960173  0.5804701141758953  1.0000
  H   H28       1.0  0.2157529316488649  0.6003413625847999  0.919536611424341  1.0000
  H   H29       1.0  0.396901849275153  0.9836875836938435  0.3776544646032106  1.0000
  H   H30       1.0  0.1031030582419561  0.48368853343865226  0.12234931181319546  1.0000
  H   H31       1.0  0.6031059898371893  0.016305369985389007  0.622349312420617  1.0000
  H   H32       1.0  0.8969007366425785  0.5163148544068646  0.877652612655538  1.0000
  H   H33       1.0  0.1520384663415157  0.4235672223791198  0.494772094970841  1.0000
  H   H34       1.0  0.3479599922804226  0.9235688982803368  0.005226772892690694  1.0000
  H   H35       1.0  0.847958588216585  0.5764319918367277  0.5052267419502314  1.0000
  H   H36       1.0  0.6520411024194175  0.07643135934432618  0.9947723660876019  1.0000
  H   H37       1.0  0.10802745437631961  0.5085487232457595  0.42402171640490843  1.0000
  H   H38       1.0  0.39197439748041774  0.008547757803476903  0.07597791875216589  1.0000
  H   H39       1.0  0.8919736389760972  0.4914494475531512  0.5759769057555457  1.0000
  H   H40       1.0  0.6080280425790364  0.9914535432379522  0.9240208040889966  1.0000
  C   C1        1.0  0.5520150779997905  0.703391515586759  0.27527481873089227  1.0000
  C   C2        1.0  0.9479870751827307  0.20339340096799677  0.2247203232060073  1.0000
  C   C3        1.0  0.44798062714354364  0.2966056118092766  0.724722883859087  1.0000
  C   C4        1.0  0.05201536351641071  0.7966110303219055  0.7752778828046231  1.0000
  C   C5        1.0  0.7294631401667218  0.688677883364072  0.3115028525210731  1.0000
  C   C6        1.0  0.7705390816041773  0.18868169115246047  0.18849079921839257  1.0000
  C   C7        1.0  0.2705312182618371  0.3113192440339745  0.6884947493817888  1.0000
  C   C8        1.0  0.22946335844497412  0.8113237835483461  0.811507923614222  1.0000
  C   C9        1.0  0.7374728058003795  0.6227053509877508  0.3817824306304657  1.0000
  C   C10       1.0  0.7625284017708013  0.12270815584414409  0.11821397482103178  1.0000
  C   C11       1.0  0.262524248768031  0.37728968956871967  0.6182164062991473  1.0000
  C   C12       1.0  0.2374726929213082  0.8772952320250558  0.8817851641528519  1.0000
  C   C13       1.0  0.8716326008035225  0.7370882527417635  0.2818478198450904  1.0000
  C   C14       1.0  0.6283680379244673  0.23709187208645946  0.21814656652811235  1.0000
  C   C15       1.0  0.12836849119888433  0.2629088746462287  0.7181502854933797  1.0000
  C   C16       1.0  0.3716330540496031  0.7629167328648309  0.7818515387868457  1.0000
  C   C17       1.0  0.830604329973042  0.79737626688852  0.21480992231008136  1.0000
  C   C18       1.0  0.6693973605064015  0.2973746169542437  0.2851853514211199  1.0000
  C   C19       1.0  0.16939541530687316  0.20262399074601942  0.7851880823348549  1.0000
  C   C20       1.0  0.3306037328254022  0.7026319011634287  0.7148132707222314  1.0000
  C   C21       1.0  0.6520815396830956  0.8099571570182108  0.17899501091264367  1.0000
  C   C22       1.0  0.8479214353957402  0.30995358898530173  0.32100031196817713  1.0000
  C   C23       1.0  0.34791686158720136  0.19004310061047391  0.8210039266934144  1.0000
  C   C24       1.0  0.15208235272333331  0.690050842294724  0.6789990283778166  1.0000
  C   C25       1.0  0.5084233103498194  0.7645069518161521  0.20932259907089446  1.0000
  C   C26       1.0  0.9915798850882851  0.26450357971338434  0.29067135953772544  1.0000
  C   C27       1.0  0.49157913241479173  0.2354943492174186  0.7906771574185142  1.0000
  C   C28       1.0  0.008423900330782903  0.7354987647448114  0.7093269471642996  1.0000
  C   C29       1.0  0.7400622788512125  0.22578012717498555  0.49005920441892653  1.0000
  C   C30       1.0  0.7599330437362753  0.7257818940182119  0.009940510602071115  1.0000
  C   C31       1.0  0.25993612377939  0.7742170002052262  0.5099402500176635  1.0000
  C   C32       1.0  0.2400626708622227  0.27422045042452226  0.9900608097460687  1.0000
  C   C33       1.0  0.4514119548620386  0.18398270293252492  0.4290069063466503  1.0000
  C   C34       1.0  0.048584993314875605  0.6839849749462843  0.07099274167211428  1.0000
  C   C35       1.0  0.5485891412006795  0.8160133810288245  0.5709927494663134  1.0000
  C   C36       1.0  0.9514134120054296  0.3160184129151419  0.9290077463998824  1.0000
  C   C37       1.0  0.6725673667213882  0.003005295565600401  0.43274063132403023  1.0000
  C   C38       1.0  0.8274317573913665  0.503009195957951  0.06726329867627359  1.0000
  C   C39       1.0  0.32743508959476486  0.9969855712801917  0.5672642934279466  1.0000
  C   C40       1.0  0.172569349473946  0.4969941918758567  0.9327404917146964  1.0000
  C   C41       1.0  0.796466657277577  0.09281888647187492  0.47405715449571045  1.0000
  C   C42       1.0  0.7035320206644189  0.5928215574936503  0.025945373910232706  1.0000
  C   C43       1.0  0.2035344482531869  0.9071771974619481  0.5259461190861001  1.0000
  C   C44       1.0  0.29646773948612554  0.40718183034216804  0.9740583157936056  1.0000
  C   C45       1.0  0.4974429275159906  0.05012415953526531  0.4097851907066924  1.0000
  C   C46       1.0  0.0025573777435994004  0.5501262241751091  0.09021624072713759  1.0000
  C   C47       1.0  0.5025595193269652  0.9498687941677418  0.5902161162721667  1.0000
  C   C48       1.0  0.9974464171409423  0.44987716367040775  0.9097856837415959  1.0000
  S   S1        1.0  0.40877947841729423  0.6343161316820698  0.3291867996490935  1.0000
  S   S2        1.0  0.09121904817978078  0.13432053979891384  0.17080798428540325  1.0000
  S   S3        1.0  0.5912135332964965  0.36568099571798035  0.6708107015666369  1.0000
  S   S4        1.0  0.9087833932270969  0.8656828480682751  0.8291912553756047  1.0000
  N   N1        1.0  0.5733671669379206  0.5897407963446  0.39506715386891483  1.0000
  N   N2        1.0  0.9266342034037224  0.08974245666245653  0.10492938663423244  1.0000
  N   N3        1.0  0.42662719149322476  0.41025528763859853  0.6049304480360786  1.0000
  N   N4        1.0  0.07336689400126771  0.9102578009543408  0.8950707859943062  1.0000
  N   N5        1.0  0.5708143853721808  0.27031965457226204  0.4683719522008116  1.0000
  N   N6        1.0  0.9291820599478982  0.7703228656264329  0.031626130562294484  1.0000
  N   N7        1.0  0.42918670662764674  0.729678516230578  0.5316261531355193  1.0000
  N   N8        1.0  0.07081499866021089  0.2296794788221491  0.9683742568247237  1.0000
  N   N9        1.0  0.9794514652816279  0.06378027686364618  0.5010638360768169  1.0000
  N   N10       1.0  0.520549648058065  0.5637823511092038  0.9989405927153849  1.0000
  N   N11       1.0  0.020550989671640697  0.9362147636454597  0.4989405718424889  1.0000
  N   N12       1.0  0.4794501148027878  0.43621894988905313  0.001064130640976699  1.0000
  O   O1        1.0  0.3137448899587696  0.5114720972526783  0.29793013536487206  1.0000
  O   O2        1.0  0.1862582887638737  0.011472724017721701  0.20206752120309798  1.0000
  O   O3        1.0  0.6862521659416104  0.48853129061861733  0.7020692183717685  1.0000
  O   O4        1.0  0.8137428099859676  0.9885306638396826  0.7979331682431476  1.0000
  O   O5        1.0  0.8834530750224446  0.6019127617721198  0.42473867629321643  1.0000
  O   O6        1.0  0.6165468898560746  0.10191440298681441  0.07525823048081288  1.0000
  O   O7        1.0  0.11654532355815661  0.3980812353753578  0.5752592276774208  1.0000
  O   O8        1.0  0.3834542048437584  0.8980858546378485  0.9247409084994797  1.0000
  O   O9        1.0  0.299915150483109  0.7431296150664367  0.3525540238402272  1.0000
  O   O10       1.0  0.2000841828550861  0.24312791702830333  0.14743938135820397  1.0000
  O   O11       1.0  0.7000819040749917  0.256869599149411  0.6474448130808452  1.0000
  O   O12       1.0  0.7999142170600564  0.7568733840191585  0.8525590394215923  1.0000
  O   O13       1.0  0.1957916927758063  0.44206414030199437  0.449626842357496  1.0000
  O   O14       1.0  0.3042080225861384  0.9420641668590621  0.050372567242419584  1.0000
  O   O15       1.0  0.804208053859263  0.557935073913768  0.5503716791137021  1.0000
  O   O16       1.0  0.6957930734637047  0.05793713417651252  0.9496270885598576  1.0000
