data_image0
_chemical_formula_structural       La4H36C64O32
_chemical_formula_sum              "La4 H36 C64 O32"
_cell_length_a       7.938019154927686
_cell_length_b       11.297703839179263
_cell_length_c       16.871399032001655
_cell_angle_alpha    90.00001364846966
_cell_angle_beta     90.00004618158414
_cell_angle_gamma    98.12290578712388

_space_group_name_H-M_alt    "P 1"
_space_group_IT_number       1

loop_
  _space_group_symop_operation_xyz
  'x, y, z'

loop_
  _atom_site_type_symbol
  _atom_site_label
  _atom_site_symmetry_multiplicity
  _atom_site_fract_x
  _atom_site_fract_y
  _atom_site_fract_z
  _atom_site_occupancy
  La  La1       1.0  0.9871576575802976  0.7018835691922334  0.20643540540103805  1.0000
  La  La2       1.0  0.512839503964095  0.29811747228464464  0.7064353118868711  1.0000
  La  La3       1.0  0.012840047647458178  0.29811743533628726  0.7935631436815884  1.0000
  La  La4       1.0  0.4871592706804151  0.7018826316336801  0.2935638299149589  1.0000
  H   H1        1.0  0.1619325511036608  0.9603014478614685  0.12171734191821323  1.0000
  H   H2        1.0  0.3380632433211375  0.03970123035092139  0.6217179206940032  1.0000
  H   H3        1.0  0.838071824189882  0.0397013121907648  0.8782835780421082  1.0000
  H   H4        1.0  0.6619366007412281  0.9602979729575193  0.3782829992651743  1.0000
  H   H5        1.0  0.23348264846004702  0.050897772510246894  0.9307503651604281  1.0000
  H   H6        1.0  0.266518747265863  0.9491050424961713  0.43075100923302057  1.0000
  H   H7        1.0  0.7665197124297549  0.9491014177417298  0.0692505547992255  1.0000
  H   H8        1.0  0.7334829222016452  0.050896836530093  0.5692487252885742  1.0000
  H   H9        1.0  0.1982746853711674  0.8512296081548101  0.7131774777877881  1.0000
  H   H10       1.0  0.3017246742968638  0.14877131052157466  0.21317681804481486  1.0000
  H   H11       1.0  0.8017211944525328  0.14876872065620717  0.2868234421705723  1.0000
  H   H12       1.0  0.6982784425813334  0.8512314560584217  0.7868223237580526  1.0000
  H   H13       1.0  0.06415846895941263  0.6688528586672221  0.7859366674734363  1.0000
  H   H14       1.0  0.43584228276931464  0.3311480918358427  0.28593549533320584  1.0000
  H   H15       1.0  0.9358406836828337  0.3311490334161248  0.2140654379239777  1.0000
  H   H16       1.0  0.5641627839448872  0.6688519794416335  0.7140648319079546  1.0000
  H   H17       1.0  0.017747522777192208  0.6785598440955738  0.9314308177730484  1.0000
  H   H18       1.0  0.4822524267857277  0.3214420837151764  0.4314296614551979  1.0000
  H   H19       1.0  0.9822498044588172  0.3214393722696443  0.06857128762380432  1.0000
  H   H20       1.0  0.5177526399279344  0.6785579875621507  0.5685700730668801  1.0000
  H   H21       1.0  0.215225009451359  0.5067180859064563  0.9759558974919502  1.0000
  H   H22       1.0  0.2847746439044201  0.49328207721208633  0.47595706618924544  1.0000
  H   H23       1.0  0.7847717507877832  0.4932784482111501  0.024041466151992107  1.0000
  H   H24       1.0  0.715227403558643  0.5067215899785751  0.5240432610516452  1.0000
  H   H25       1.0  0.6651836673453315  0.6602840259868258  0.8508407035218897  1.0000
  H   H26       1.0  0.8348186041068502  0.3397161714183596  0.3508406803131835  1.0000
  H   H27       1.0  0.3348193849656838  0.33971247549055755  0.14916021643766442  1.0000
  H   H28       1.0  0.1651839457793685  0.6602839129154247  0.6491590542084327  1.0000
  H   H29       1.0  0.7383198983558901  0.8061229669670665  0.9615280525844059  1.0000
  H   H30       1.0  0.7616798705864055  0.193876407761195  0.4615273852284646  1.0000
  H   H31       1.0  0.26167900071894923  0.1938717659307727  0.03847286737423161  1.0000
  H   H32       1.0  0.2383239377129911  0.8061236700442007  0.5384717565743103  1.0000
  H   H33       1.0  0.5554903525235843  0.7930536149103559  0.08221208306537163  1.0000
  H   H34       1.0  0.9445097890909862  0.2069446592512634  0.5822127292893385  1.0000
  H   H35       1.0  0.444506407716645  0.2069429192075631  0.9177864660167148  1.0000
  H   H36       1.0  0.05549150238042708  0.7930554316104408  0.4177858197938918  1.0000
  C   C1        1.0  0.12657324528017722  0.8647438362235963  0.9404941208511988  1.0000
  C   C2        1.0  0.3734245820986856  0.13525989758572618  0.44049348579640235  1.0000
  C   C3        1.0  0.8734271657747  0.1352580493312132  0.059506799108305614  1.0000
  C   C4        1.0  0.6265733121276611  0.8647420010252348  0.5595062487244891  1.0000
  C   C5        1.0  0.19789219018817766  0.967068851044914  0.8993718860582478  1.0000
  C   C6        1.0  0.30210518366095573  0.032933072922695296  0.3993718001312914  1.0000
  C   C7        1.0  0.8021051370467446  0.032930365319991495  0.10062903390046073  1.0000
  C   C8        1.0  0.6978952273922943  0.9670688126316449  0.6006273416709931  1.0000
  C   C9        1.0  0.2221334811268747  0.9625474210103347  0.8175565056677314  1.0000
  C   C10       1.0  0.2778662592668653  0.0374544467716262  0.3175558186675645  1.0000
  C   C11       1.0  0.7778640351066385  0.03745268943700351  0.1824455997292347  1.0000
  C   C12       1.0  0.722135599198694  0.9625483263369147  0.6824445085732125  1.0000
  C   C13       1.0  0.17692875906288208  0.8543880489080706  0.7769190759065837  1.0000
  C   C14       1.0  0.32307197610293764  0.1456128968416621  0.2769190163749613  1.0000
  C   C15       1.0  0.8230669317633144  0.1456093858208263  0.22308184405167006  1.0000
  C   C16       1.0  0.6769322101925609  0.8543889691282941  0.723081310866178  1.0000
  C   C17       1.0  0.10160182047615512  0.7527694440174957  0.8175084555585672  1.0000
  C   C18       1.0  0.3983977308308013  0.2472315296567302  0.3175066628485936  1.0000
  C   C19       1.0  0.8983955067598542  0.2472297723477226  0.18249364983829255  1.0000
  C   C20       1.0  0.6016064554641503  0.7527703363130697  0.68249307167347  1.0000
  C   C21       1.0  0.07544048267410372  0.7576955571788702  0.8991934374259147  1.0000
  C   C22       1.0  0.42455796026353454  0.2423054660843391  0.3991934318816136  1.0000
  C   C23       1.0  0.9245555861476403  0.24230366571442374  0.10080807525163493  1.0000
  C   C24       1.0  0.5754460370344534  0.757695505803497  0.6008068953594191  1.0000
  C   C25       1.0  0.10334349525421523  0.8690127144644606  0.027361188697547306  1.0000
  C   C26       1.0  0.39665319526581305  0.13098901339675  0.5273582481577466  1.0000
  C   C27       1.0  0.8966507481662019  0.13098383271211128  0.9726456584511003  1.0000
  C   C28       1.0  0.6033511800282768  0.8690137466556395  0.4726432645216506  1.0000
  C   C29       1.0  0.29559302367478313  0.07401005135464798  0.7758118347905525  1.0000
  C   C30       1.0  0.2044066400416115  0.9259917944219398  0.275812451751989  1.0000
  C   C31       1.0  0.7044046815540597  0.9259909531741924  0.22418789973022515  1.0000
  C   C32       1.0  0.7955950294253568  0.0740100846041685  0.7241866900505302  1.0000
  C   C33       1.0  0.3750766219896278  0.6489974472021487  0.03682694520315271  1.0000
  C   C34       1.0  0.12492348316634863  0.3510024779007637  0.5368269024501019  1.0000
  C   C35       1.0  0.6249215856623707  0.35099997446981485  0.9631721965983502  1.0000
  C   C36       1.0  0.8750742220630413  0.6489985266282332  0.4631734247897513  1.0000
  C   C37       1.0  0.32958603004108505  0.5722717327254399  0.972898086642225  1.0000
  C   C38       1.0  0.17041110086993433  0.42772844183747344  0.4728986089208221  1.0000
  C   C39       1.0  0.6704134360235513  0.4277256824179787  0.027099869721368505  1.0000
  C   C40       1.0  0.8295842765295234  0.5722734698301082  0.5271017183186688  1.0000
  C   C41       1.0  0.43379821010098146  0.5776394046721051  0.9059332984538602  1.0000
  C   C42       1.0  0.06620005622023233  0.42236072806218766  0.4059343734573418  1.0000
  C   C43       1.0  0.5662010669672384  0.42235711638949885  0.09406584334777082  1.0000
  C   C44       1.0  0.9337990964198326  0.5776411640205409  0.594065361063784  1.0000
  C   C45       1.0  0.5823856386560492  0.6609901427931248  0.9023130050893972  1.0000
  C   C46       1.0  0.917612952101166  0.3390101013302668  0.40231242011973495  1.0000
  C   C47       1.0  0.4176161552401538  0.3390063652121782  0.09768672943177852  1.0000
  C   C48       1.0  0.0823872699545731  0.660990890141953  0.5976867216824433  1.0000
  C   C49       1.0  0.6240871620089266  0.7405265867196602  0.9646184630037241  1.0000
  C   C50       1.0  0.8759129906044905  0.2594745778018109  0.4646172565869621  1.0000
  C   C51       1.0  0.3759092202384693  0.2594681592346433  0.03538245695443721  1.0000
  C   C52       1.0  0.12409245410472647  0.7405272816399064  0.5353830706544118  1.0000
  C   C53       1.0  0.5213274711428185  0.7342032402332707  0.031959570622447614  1.0000
  C   C54       1.0  0.9786716977463711  0.2657968021300334  0.5319596466251612  1.0000
  C   C55       1.0  0.478669478096009  0.2657941879670815  0.9680401638978967  1.0000
  C   C56       1.0  0.02132688790118207  0.7342024077063269  0.46804008789563784  1.0000
  C   C57       1.0  0.2671287901213901  0.6398496153893234  0.10921629733883984  1.0000
  C   C58       1.0  0.23287037858707288  0.36015124848419333  0.6092168893227241  1.0000
  C   C59       1.0  0.7328643838746416  0.36014783239525633  0.8907816590235742  1.0000
  C   C60       1.0  0.7671298434697534  0.6398497429883321  0.39078343791760534  1.0000
  C   C61       1.0  0.3912143195933027  0.489870276435134  0.8405113228095829  1.0000
  C   C62       1.0  0.10878527396904761  0.5101307093658249  0.34051242822655337  1.0000
  C   C63       1.0  0.6087864048850522  0.5101271321800525  0.15948663355425205  1.0000
  C   C64       1.0  0.891212809254803  0.4898720833272563  0.6594873062944444  1.0000
  O   O1        1.0  0.1856542063436778  0.9656105067009407  0.06253968180597981  1.0000
  O   O2        1.0  0.31434147937975615  0.034392140315596  0.5625390653677158  1.0000
  O   O3        1.0  0.8143526857767683  0.034392240294671694  0.9374606454357423  1.0000
  O   O4        1.0  0.6856583646815224  0.9656070629925324  0.4374606691533175  1.0000
  O   O5        1.0  0.013080856900096204  0.7884276901994764  0.06440669993651231  1.0000
  O   O6        1.0  0.4869227607312681  0.2115767067964427  0.5644073628389279  1.0000
  O   O7        1.0  0.9869291836085734  0.21158399108895765  0.9355930345874557  1.0000
  O   O8        1.0  0.5130750689262696  0.7884189267114293  0.43559237168143033  1.0000
  O   O9        1.0  0.38284370564468156  0.0683302413128928  0.7122907403270988  1.0000
  O   O10       1.0  0.11715313556879181  0.9316706899529947  0.21229191819485047  1.0000
  O   O11       1.0  0.6171536215891535  0.9316689750517  0.28770899419345863  1.0000
  O   O12       1.0  0.8828487228956803  0.06833208315522653  0.7877072236077753  1.0000
  O   O13       1.0  0.2770804113657874  0.17532424832908328  0.8060162109033657  1.0000
  O   O14       1.0  0.2229180494165846  0.8246776198976703  0.3060156327162887  1.0000
  O   O15       1.0  0.7229160354498774  0.8246767627281456  0.19398411633625304  1.0000
  O   O16       1.0  0.7770861368778197  0.17532424607197325  0.6939835090867066  1.0000
  O   O17       1.0  0.1294037013161642  0.5687478471284066  0.11191254471334132  1.0000
  O   O18       1.0  0.370594213931227  0.4312530246946906  0.6119132000771259  1.0000
  O   O19       1.0  0.8705914870830611  0.43125317045627315  0.888084818930672  1.0000
  O   O20       1.0  0.6294083359555387  0.5687470596392501  0.3880871271635585  1.0000
  O   O21       1.0  0.3117944752580613  0.7120848720239576  0.16845147040933742  1.0000
  O   O22       1.0  0.1882035438425618  0.2879160296036432  0.668452033752594  1.0000
  O   O23       1.0  0.6882039213909009  0.2879134437299697  0.8315470786732038  1.0000
  O   O24       1.0  0.8117954198010937  0.7120849683972709  0.3315488862065693  1.0000
  O   O25       1.0  0.4987698449103846  0.4829484044120278  0.7854566312977483  1.0000
  O   O26       1.0  0.0012296475238358336  0.5170525523664935  0.2854565120480147  1.0000
  O   O27       1.0  0.5012298101522958  0.5170499048136676  0.21454191778503434  1.0000
  O   O28       1.0  0.998774349773072  0.4829484195210227  0.7145426297548669  1.0000
  O   O29       1.0  0.2482503324315601  0.42239473272046263  0.8441689598360329  1.0000
  O   O30       1.0  0.2517492678499167  0.5776062550087958  0.3441707227221969  1.0000
  O   O31       1.0  0.7517469947995536  0.5776044836433484  0.15582781108916785  1.0000
  O   O32       1.0  0.7482538490304548  0.4223965115718258  0.6558307899569586  1.0000
