data_image0
_chemical_formula_structural       Eu4P4H60C84N4O44
_chemical_formula_sum              "Eu4 P4 H60 C84 N4 O44"
_cell_length_a       11.695789627979437
_cell_length_b       14.723792639947517
_cell_length_c       17.584814199387214
_cell_angle_alpha    90.00230340544555
_cell_angle_beta     90.00104206242541
_cell_angle_gamma    92.02867527549118

_space_group_name_H-M_alt    "P 1"
_space_group_IT_number       1

loop_
  _space_group_symop_operation_xyz
  'x, y, z'

loop_
  _atom_site_type_symbol
  _atom_site_label
  _atom_site_symmetry_multiplicity
  _atom_site_fract_x
  _atom_site_fract_y
  _atom_site_fract_z
  _atom_site_occupancy
  Eu  Eu1       1.0  0.5735326584995307  0.5920856294826822  0.9279481930982102  1.0000
  Eu  Eu2       1.0  0.9264688257476338  0.9079150606126164  0.4279486644950907  1.0000
  Eu  Eu3       1.0  0.4264689000660057  0.4079173964393234  0.0720494570369112  1.0000
  Eu  Eu4       1.0  0.07353089503084931  0.09208455979737099  0.5720506915889632  1.0000
  P   P1        1.0  0.8350816184157709  0.7502136694786756  0.9180649338853398  1.0000
  P   P2        1.0  0.6649194980844371  0.7497844998013861  0.41806828009295327  1.0000
  P   P3        1.0  0.164918051386401  0.249784591782813  0.081935559520474  1.0000
  P   P4        1.0  0.3350802227108076  0.2502151206363478  0.5819322133360743  1.0000
  H   H1        1.0  0.6118188113820793  0.136338689914318  0.1708306694658503  1.0000
  H   H2        1.0  0.8881781077431726  0.36366461363109437  0.6708283782515283  1.0000
  H   H3        1.0  0.3881800542567788  0.8636609267307875  0.8291703926304167  1.0000
  H   H4        1.0  0.11182163854859792  0.6363356863947588  0.3291721151891096  1.0000
  H   H5        1.0  0.735194759803761  0.48633590376646646  0.8558175409711097  1.0000
  H   H6        1.0  0.7648071272260638  0.0136635115984376  0.3558169825876334  1.0000
  H   H7        1.0  0.26480672231407  0.5136650834605234  0.1441829524916258  1.0000
  H   H8        1.0  0.23519168740295981  0.9863347458426758  0.6441829421404534  1.0000
  H   H9        1.0  0.6751601157173042  0.48583774424252374  0.7756144448419562  1.0000
  H   H10       1.0  0.8248403390757845  0.014159801291647503  0.2756151992891276  1.0000
  H   H11       1.0  0.324840511252532  0.5141632392057005  0.2243871859605022  1.0000
  H   H12       1.0  0.17515847556162362  0.9858384561633358  0.7243852941114428  1.0000
  H   H13       1.0  0.07107363478910861  0.7977355266708771  0.8644614497068801  1.0000
  H   H14       1.0  0.42892733681950557  0.7022614411448701  0.36446013766762064  1.0000
  H   H15       1.0  0.928926966642287  0.20226477711987198  0.13553733772154433  1.0000
  H   H16       1.0  0.5710723839673549  0.2977381792789871  0.6355397870889236  1.0000
  H   H17       1.0  0.2568675253680865  0.729951974694721  0.8954665942722145  1.0000
  H   H18       1.0  0.24313259876576152  0.7700451388124846  0.3954653156374448  1.0000
  H   H19       1.0  0.7431321699054789  0.2700469661132772  0.10453219312775273  1.0000
  H   H20       1.0  0.7568671220378607  0.229954481639119  0.604535746464066  1.0000
  H   H21       1.0  0.08869468994308961  0.5442448121620205  0.05081434014405771  1.0000
  H   H22       1.0  0.4113055241494409  0.9557579570432823  0.5508171390700696  1.0000
  H   H23       1.0  0.9113067156767585  0.45575413628672107  0.9491855846113638  1.0000
  H   H24       1.0  0.5886942476472541  0.04424302258457399  0.44918392305466176  1.0000
  H   H25       1.0  0.9003477210353952  0.6112219954484602  0.021003181584013902  1.0000
  H   H26       1.0  0.599652821299472  0.8887799561988815  0.521006202361953  1.0000
  H   H27       1.0  0.0996528548910831  0.3887776287402931  0.9789950371603171  1.0000
  H   H28       1.0  0.4003460698191574  0.1112203400066036  0.4789937224009577  1.0000
  H   H29       1.0  0.6351530319267837  0.8590824990687407  0.9383819505524542  1.0000
  H   H30       1.0  0.8648469220573105  0.6409152944877973  0.4383840498653981  1.0000
  H   H31       1.0  0.36484759501790626  0.14091848433786677  0.06161797423254  1.0000
  H   H32       1.0  0.13515194355640864  0.3590843221156916  0.5616153062134119  1.0000
  H   H33       1.0  0.590040432094952  0.9808205437299833  0.0302262798038342  1.0000
  H   H34       1.0  0.9099594503665289  0.5191798151626088  0.5302251528246771  1.0000
  H   H35       1.0  0.4099593141968256  0.0191797562958698  0.9697742136368036  1.0000
  H   H36       1.0  0.09004032141339742  0.4808211644375007  0.4697747719550804  1.0000
  H   H37       1.0  0.9202487074306946  0.9578005653065985  0.13482609734889192  1.0000
  H   H38       1.0  0.5797533008382558  0.5422021739341503  0.6348234513437492  1.0000
  H   H39       1.0  0.07975189402583992  0.04219973852576691  0.8651743960969898  1.0000
  H   H40       1.0  0.42024724961682847  0.45779677070808594  0.36517647340643583  1.0000
  H   H41       1.0  0.9681085765945101  0.8364560633519956  0.04269086961850381  1.0000
  H   H42       1.0  0.5318916222768594  0.6635435444414028  0.5426911647752348  1.0000
  H   H43       1.0  0.03189205035856451  0.16354492006848886  0.9573096238389808  1.0000
  H   H44       1.0  0.4681071923437869  0.3364547129858408  0.45730819128036165  1.0000
  H   H45       1.0  0.7926963089386163  0.6673294781605466  0.7756904368056681  1.0000
  H   H46       1.0  0.7073043888587449  0.8326712753933521  0.27569652146851104  1.0000
  H   H47       1.0  0.20730343733639964  0.33267082183757424  0.2243089192899888  1.0000
  H   H48       1.0  0.29269623809432943  0.16732970802712538  0.7243039719889809  1.0000
  H   H49       1.0  0.8338036409357698  0.7180981177306264  0.6415945885450043  1.0000
  H   H50       1.0  0.6661958229625216  0.7819001833243674  0.141599032650916  1.0000
  H   H51       1.0  0.16619781567714403  0.2819021898943604  0.3584053362336306  1.0000
  H   H52       1.0  0.3338031191575652  0.21810147207123978  0.8584014608076913  1.0000
  H   H53       1.0  0.9397206715763107  0.9830774496839254  0.7233856038733465  1.0000
  H   H54       1.0  0.5602793651056502  0.5169214355186256  0.2233821084865255  1.0000
  H   H55       1.0  0.06027990436692931  0.0169221745325672  0.27661375221595114  1.0000
  H   H56       1.0  0.4397204066658987  0.48307954406762127  0.7766172476207417  1.0000
  H   H57       1.0  0.9006531263253876  0.9337141909181526  0.8566984261620831  1.0000
  H   H58       1.0  0.5993489763403944  0.5662871123908035  0.35669649925471714  1.0000
  H   H59       1.0  0.0993474496262365  0.0662854333122098  0.1433014985997048  1.0000
  H   H60       1.0  0.40065162510776287  0.4337131914276852  0.6433034255186811  1.0000
  C   C1        1.0  0.9740828935499337  0.7091927199740412  0.9416365592388515  1.0000
  C   C2        1.0  0.525918866670608  0.7908052399280265  0.4416373291198497  1.0000
  C   C3        1.0  0.02591856306298721  0.2908075876509528  0.0583633655397833  1.0000
  C   C4        1.0  0.47408085410786793  0.20919438048196778  0.5583620269642039  1.0000
  C   C5        1.0  0.0742111426798786  0.7431954905483381  0.9062534279307571  1.0000
  C   C6        1.0  0.4257884187504359  0.756801465806106  0.4062539160828039  1.0000
  C   C7        1.0  0.9257894077668285  0.2568034540800284  0.0937459281469373  1.0000
  C   C8        1.0  0.5742113020448089  0.24319815463162794  0.5937465773462236  1.0000
  C   C9        1.0  0.17859384744980392  0.70540135312433  0.9232533186893832  1.0000
  C   C10       1.0  0.32140792534912077  0.7945964400971022  0.42325267858566223  1.0000
  C   C11       1.0  0.8214084643111124  0.29459895827942273  0.0767454687495288  1.0000
  C   C12       1.0  0.6785917954377396  0.20540318032675486  0.5767472461708749  1.0000
  C   C13       1.0  0.183763185678437  0.6332946312018564  0.974931953026598  1.0000
  C   C14       1.0  0.31623749383016536  0.8667043124191878  0.4749325432390848  1.0000
  C   C15       1.0  0.8162373647850317  0.3667043134542496  0.025068540396070205  1.0000
  C   C16       1.0  0.6837630821298362  0.1332953118250444  0.5250679501951865  1.0000
  C   C17       1.0  0.08373040429489721  0.6007091940328807  0.011128177496956902  1.0000
  C   C18       1.0  0.4162703759011564  0.8992923264026729  0.5111302708263068  1.0000
  C   C19       1.0  0.9162701971448826  0.3992911097717311  0.9888711786039508  1.0000
  C   C20       1.0  0.5837293703906212  0.1007079736231802  0.48887022261432383  1.0000
  C   C21       1.0  0.978958000706321  0.6381766380843885  0.9947118697980314  1.0000
  C   C22       1.0  0.5210419032258143  0.8618238957321724  0.49471440549324097  1.0000
  C   C23       1.0  0.0210434049135273  0.3618223103643529  0.0052880549573899  1.0000
  C   C24       1.0  0.4789578430659631  0.13817640429368785  0.5052860879473967  1.0000
  C   C25       1.0  0.295590941929703  0.588857037357613  0.9887250327864764  1.0000
  C   C26       1.0  0.204411905449966  0.9111439459182405  0.48872633448370095  1.0000
  C   C27       1.0  0.7044149179478014  0.4111466871711542  0.0112720487139981  1.0000
  C   C28       1.0  0.7955869091706803  0.088854311509003  0.5112730215718955  1.0000
  C   C29       1.0  0.8054778953182834  0.8408395678550208  0.9839333411013769  1.0000
  C   C30       1.0  0.6945216654193516  0.6591597605615291  0.48393512890460494  1.0000
  C   C31       1.0  0.19452273161802944  0.1591614155377243  0.016066015011134  1.0000
  C   C32       1.0  0.30547802986259853  0.34083918026033905  0.5160642271678457  1.0000
  C   C33       1.0  0.6985795225094196  0.8814039264946629  0.9804690242921551  1.0000
  C   C34       1.0  0.8014216464492137  0.6185952405382905  0.4804707401542885  1.0000
  C   C35       1.0  0.3014211044352777  0.1185970569119519  0.019530900492846108  1.0000
  C   C36       1.0  0.1985780998341796  0.38140505947369974  0.519529184613866  1.0000
  C   C37       1.0  0.6727403212423724  0.9492452410378005  0.0321119666758065  1.0000
  C   C38       1.0  0.8272596168156241  0.5507552098708288  0.5321120392251544  1.0000
  C   C39       1.0  0.3272603311988576  0.0507564219569332  0.9678879581207979  1.0000
  C   C40       1.0  0.17274098463253307  0.4492450939476598  0.4678878855482367  1.0000
  C   C41       1.0  0.7529005918021172  0.9772858747606533  0.0875710030029992  1.0000
  C   C42       1.0  0.7471000491759485  0.5227152389096972  0.587569159227087  1.0000
  C   C43       1.0  0.24710003515095744  0.022715108659831205  0.9124294904544854  1.0000
  C   C44       1.0  0.25289967161928933  0.47728438152803687  0.4124313342019406  1.0000
  C   C45       1.0  0.8591123353886516  0.9363556213311099  0.09107568523290152  1.0000
  C   C46       1.0  0.6408883833914416  0.5636449837173031  0.5910739340486373  1.0000
  C   C47       1.0  0.1408874108947487  0.06364467868088039  0.9089242395352458  1.0000
  C   C48       1.0  0.35911302222002217  0.4363539647175686  0.4089254220343008  1.0000
  C   C49       1.0  0.8855632044502642  0.8684356290878269  0.0394619860838858  1.0000
  C   C50       1.0  0.614438635086117  0.6315645084086371  0.5394627722528469  1.0000
  C   C51       1.0  0.1144374224860485  0.13156535430491798  0.960537370028632  1.0000
  C   C52       1.0  0.38556106020421044  0.36843443242710083  0.46053715249208693  1.0000
  C   C53       1.0  0.7277331182307166  0.05031269034686401  0.14331072306246992  1.0000
  C   C54       1.0  0.7722647255763136  0.449689957900361  0.6433070834246878  1.0000
  C   C55       1.0  0.27226235220372524  0.9496875905910045  0.8566874956619941  1.0000
  C   C56       1.0  0.22774188744628535  0.5503110520269275  0.3566877233446561  1.0000
  C   C57       1.0  0.8472335556827346  0.7969773135684262  0.8239584605854021  1.0000
  C   C58       1.0  0.6527684881885065  0.70302375566105  0.3239583774710511  1.0000
  C   C59       1.0  0.1527679009385636  0.20302299407043023  0.17604203286572334  1.0000
  C   C60       1.0  0.34723040293012997  0.2969765405444349  0.6760415472918525  1.0000
  C   C61       1.0  0.825976551760391  0.7360057372319064  0.7636933749793401  1.0000
  C   C62       1.0  0.674026332409369  0.7639937628792097  0.26369787907758996  1.0000
  C   C63       1.0  0.17402490485253  0.2639945703930806  0.23630654979930202  1.0000
  C   C64       1.0  0.3259742690471725  0.23600654095314874  0.7363026143682918  1.0000
  C   C65       1.0  0.8485173784323621  0.7638791521157984  0.6895629733599193  1.0000
  C   C66       1.0  0.6514851840963588  0.7361208168956139  0.18956569623156136  1.0000
  C   C67       1.0  0.151484052684026  0.23612047592106217  0.3104369514071124  1.0000
  C   C68       1.0  0.3485154938497815  0.26388152570111606  0.810434797249137  1.0000
  C   C69       1.0  0.8925451949472959  0.8520857718854629  0.675305832639353  1.0000
  C   C70       1.0  0.6074560666778481  0.6479128182015897  0.1753067551222856  1.0000
  C   C71       1.0  0.10745709132547182  0.1479138599440333  0.3246935234604394  1.0000
  C   C72       1.0  0.39254282444078836  0.3520874780039023  0.8246931696406179  1.0000
  C   C73       1.0  0.9092799963626916  0.9138097731068912  0.7352177579150236  1.0000
  C   C74       1.0  0.590720389067144  0.5861896892972639  0.23521469127934583  1.0000
  C   C75       1.0  0.0907205540840152  0.08618917152147527  0.26478159816267083  1.0000
  C   C76       1.0  0.40927938270440484  0.4138112902889758  0.7647846648279284  1.0000
  C   C77       1.0  0.8867043533382032  0.8862616796356235  0.8096785635200591  1.0000
  C   C78       1.0  0.6132972186523915  0.6137373338198415  0.30967840491875626  1.0000
  C   C79       1.0  0.11329624810157672  0.11373862416899529  0.19032079258084883  1.0000
  C   C80       1.0  0.386701621473172  0.3862616032093911  0.6903215198209339  1.0000
  C   C81       1.0  0.920821046581665  0.8778523789692232  0.5952521376484583  1.0000
  C   C82       1.0  0.5791798208051233  0.6221491094230629  0.09525128046476541  1.0000
  C   C83       1.0  0.07917952935319764  0.12214724523339981  0.4047466497683559  1.0000
  C   C84       1.0  0.4208209335970992  0.3778552718825594  0.9047469383608089  1.0000
  N   N1        1.0  0.4767747313772973  0.7203359344976619  0.8182033711771554  1.0000
  N   N2        1.0  0.023224174640532207  0.779662850511329  0.3182025955236654  1.0000
  N   N3        1.0  0.523225844574327  0.2796636897327004  0.1817965535846255  1.0000
  N   N4        1.0  0.9767747165032434  0.22033744573576544  0.6817990352566952  1.0000
  O   O1        1.0  0.747592578830485  0.6726196492475722  0.9195422133781861  1.0000
  O   O2        1.0  0.7524069728967717  0.8273813028840423  0.419547528891016  1.0000
  O   O3        1.0  0.2524105626321855  0.32737998643003147  0.080458848744307  1.0000
  O   O4        1.0  0.2475918927420864  0.1726183137610633  0.580453533205251  1.0000
  O   O5        1.0  0.2928468204680428  0.5166836972514304  0.029142435381899603  1.0000
  O   O6        1.0  0.20715355903126922  0.9833166593844637  0.5291448269275066  1.0000
  O   O7        1.0  0.7071502583600733  0.4833138730301627  0.9708591953415465  1.0000
  O   O8        1.0  0.79284613627582  0.0166822814790137  0.47085623516240105  1.0000
  O   O9        1.0  0.3840454535135295  0.6254667086107162  0.9585478741359664  1.0000
  O   O10       1.0  0.11595295621368251  0.8745293892973576  0.45854459538580983  1.0000
  O   O11       1.0  0.6159523784932049  0.37452814712488447  0.0414537565462965  1.0000
  O   O12       1.0  0.8840476707310075  0.125471594109257  0.5414553293991845  1.0000
  O   O13       1.0  0.6254287080537752  0.08511162033852318  0.13364951284826532  1.0000
  O   O14       1.0  0.8745696042281068  0.4148878421584712  0.6336493519016032  1.0000
  O   O15       1.0  0.3745701320717886  0.9148873166907165  0.8663504118914247  1.0000
  O   O16       1.0  0.12543097173189469  0.585111782085761  0.3663511415326681  1.0000
  O   O17       1.0  0.7965164180023478  0.0761662774642815  0.1931255791879636  1.0000
  O   O18       1.0  0.7034802775212441  0.42383743016518594  0.693119097436366  1.0000
  O   O19       1.0  0.2034825751359506  0.9238367371491876  0.8068766203113142  1.0000
  O   O20       1.0  0.2965133041582106  0.5761580861260357  0.30688253323127423  1.0000
  O   O21       1.0  0.9666657322585053  0.956394760192765  0.5808157132403124  1.0000
  O   O22       1.0  0.5333321186322025  0.5436053329515573  0.0808144967113407  1.0000
  O   O23       1.0  0.033333209844819606  0.04360689517509541  0.4191836428733211  1.0000
  O   O24       1.0  0.4666667215352618  0.4563936041470314  0.9191882713907803  1.0000
  O   O25       1.0  0.8973508942636883  0.8214949621247882  0.5426232505312143  1.0000
  O   O26       1.0  0.6026492006688784  0.6785019240843155  0.0426262831268431  1.0000
  O   O27       1.0  0.10265227267875333  0.1785053531132021  0.45737667425790823  1.0000
  O   O28       1.0  0.39734702299447383  0.32149564239077927  0.9573753475913593  1.0000
  O   O29       1.0  0.4866426267900152  0.6364548263680874  0.8016746889423559  1.0000
  O   O30       1.0  0.013355792092049502  0.8635431523978665  0.3016760521618238  1.0000
  O   O31       1.0  0.513357144989918  0.36354615323202927  0.1983252358374017  1.0000
  O   O32       1.0  0.9866430480418985  0.1364557846452428  0.6983244412503495  1.0000
  O   O33       1.0  0.5284880409610082  0.7501654734073709  0.8773222414308679  1.0000
  O   O34       1.0  0.9715112489031982  0.7498368207213061  0.3773196367231506  1.0000
  O   O35       1.0  0.4715116797923288  0.24983414696100686  0.122675408635736  1.0000
  O   O36       1.0  0.0284902077264846  0.2501634869314202  0.622681425400458  1.0000
  O   O37       1.0  0.41697330466999455  0.7709580255913266  0.7781585141933576  1.0000
  O   O38       1.0  0.08302701206501693  0.7290394969916322  0.2781584629619189  1.0000
  O   O39       1.0  0.583024731283878  0.22904226680766016  0.2218414105643021  1.0000
  O   O40       1.0  0.9169726832504496  0.2709594438857224  0.7218431678004721  1.0000
  O   O41       1.0  0.6854587251885677  0.5213234186670376  0.8230691181570933  1.0000
  O   O42       1.0  0.8145405484564066  0.9786728385701906  0.3230660689035787  1.0000
  O   O43       1.0  0.31453920877916636  0.47867415537944413  0.1769308065541395  1.0000
  O   O44       1.0  0.18546083165014696  0.021325430262685095  0.6769327184952658  1.0000
