data_image0
_chemical_formula_structural       Zn16H40C112S8Br16O52
_chemical_formula_sum              "Zn16 H40 C112 S8 Br16 O52"
_cell_length_a       18.550178020311094
_cell_length_b       19.718468098221624
_cell_length_c       32.74998488405437
_cell_angle_alpha    85.97152009784413
_cell_angle_beta     73.62956748087863
_cell_angle_gamma    62.07782339569274

_space_group_name_H-M_alt    "P 1"
_space_group_IT_number       1

loop_
  _space_group_symop_operation_xyz
  'x, y, z'

loop_
  _atom_site_type_symbol
  _atom_site_label
  _atom_site_symmetry_multiplicity
  _atom_site_fract_x
  _atom_site_fract_y
  _atom_site_fract_z
  _atom_site_occupancy
  Zn  Zn1       1.0  0.8729344085395992  0.5545780908475848  0.5184656346468869  1.0000
  Zn  Zn2       1.0  0.03857443794581877  0.48392222566104703  0.4387252017522058  1.0000
  Zn  Zn3       1.0  0.043680687918623604  0.39863921561926213  0.5237493225810254  1.0000
  Zn  Zn4       1.0  0.044743949832671534  0.5622534285535324  0.5178891104736819  1.0000
  Zn  Zn5       1.0  0.6256309970566036  0.19244389288697758  0.7331520910705364  1.0000
  Zn  Zn6       1.0  0.4643631486627342  0.3497730884520038  0.7250922280219639  1.0000
  Zn  Zn7       1.0  0.4559751952878557  0.26602207819559714  0.8125798734137817  1.0000
  Zn  Zn8       1.0  0.4557869567877476  0.191484920773064  0.7282341921589293  1.0000
  Zn  Zn9       1.0  0.4632419647985485  0.7619403326466951  0.31267846439605756  1.0000
  Zn  Zn10      1.0  0.4536341745529029  0.6910970619826527  0.23166964981043492  1.0000
  Zn  Zn11      1.0  0.6257061402713971  0.6938883417441489  0.22912961768810194  1.0000
  Zn  Zn12      1.0  0.45585975124475914  0.852168821005634  0.22701223400027706  1.0000
  Zn  Zn13      1.0  0.03609669467472538  0.9001140833995223  0.02505426745335628  1.0000
  Zn  Zn14      1.0  0.0517210118594988  0.05584470278261481  0.018138371800027597  1.0000
  Zn  Zn15      1.0  0.8760731459586353  0.059541374485092995  0.020006259499560038  1.0000
  Zn  Zn16      1.0  0.038312276655361355  0.9838315452984143  0.9371756659389874  1.0000
  H   H1        1.0  0.8108731967291618  0.2431763449230431  0.6541750537928124  1.0000
  H   H2        1.0  0.5453885968794125  0.485699949589133  0.6199967715765522  1.0000
  H   H3        1.0  0.5510758416638453  0.5259306427511206  0.6653020159770405  1.0000
  H   H4        1.0  0.6522588197287433  0.5690105785504613  0.6169223793339994  1.0000
  H   H5        1.0  0.6463802798122628  0.5289266572909385  0.5716653938746745  1.0000
  H   H6        1.0  0.2935768178008615  0.6025591659286675  0.295953530654593  1.0000
  H   H7        1.0  0.34958304209622054  0.673193791058715  0.43497216496359664  1.0000
  H   H8        1.0  0.25956277159659186  0.7615744100502225  0.4319860687785634  1.0000
  H   H9        1.0  0.16202712858705584  0.712125142023062  0.477537607664466  1.0000
  H   H10       1.0  0.2519014650952086  0.6237886864351908  0.4805288744136148  1.0000
  H   H11       1.0  0.8098882167557235  0.6018051471145184  0.2949614071214556  1.0000
  H   H12       1.0  0.5486799750046882  0.7617625305037592  0.43020459541048683  1.0000
  H   H13       1.0  0.5430868639107587  0.6737189287095616  0.4329735838156095  1.0000
  H   H14       1.0  0.6432287467610749  0.6238365955294897  0.4791887187081371  1.0000
  H   H15       1.0  0.649001790498808  0.7117520312849449  0.47641858321702557  1.0000
  H   H16       1.0  0.308410273509466  0.45633408384538393  0.6464517248570515  1.0000
  H   H17       1.0  0.3281896834714217  0.17993028153971125  0.6294875682130012  1.0000
  H   H18       1.0  0.23764478148360987  0.22059987245553708  0.6749035367000643  1.0000
  H   H19       1.0  0.14206264641600097  0.27407805146125946  0.6262832676294038  1.0000
  H   H20       1.0  0.2327749179094027  0.2335221433251959  0.5810133924746166  1.0000
  H   H21       1.0  0.690705525417691  0.14713958351914164  0.9559203553194277  1.0000
  H   H22       1.0  0.954002922598363  0.07767769358785162  0.816442986393433  1.0000
  H   H23       1.0  0.9489076276737263  0.9894153724119762  0.8189565374186786  1.0000
  H   H24       1.0  0.8466170790843464  0.0402939290998745  0.7738474188159258  1.0000
  H   H25       1.0  0.8517711300624525  0.1284720173381189  0.7714360418841935  1.0000
  H   H26       1.0  0.1927563396005567  0.05181608726724819  0.8440056118635509  1.0000
  H   H27       1.0  0.1706712237023068  0.21500807908957853  0.9748523493386966  1.0000
  H   H28       1.0  0.2618000154301612  0.1270725248987787  0.9770655955085985  1.0000
  H   H29       1.0  0.3565653862207654  0.17425929419188438  0.9263827322329659  1.0000
  H   H30       1.0  0.265470925552968  0.262103623561977  0.9242366706974537  1.0000
  H   H31       1.0  0.1930353525575513  0.7943395991640115  0.10323966147296199  1.0000
  H   H32       1.0  0.2614711954318665  0.0316793679754142  0.0748807227043145  1.0000
  H   H33       1.0  0.1703831717289219  0.07186781899076779  0.12010614136418947  1.0000
  H   H34       1.0  0.2653225239419115  0.019382159723043902  0.1688997519583353  1.0000
  H   H35       1.0  0.35640292994435907  0.9792981939036236  0.12376424984909555  1.0000
  H   H36       1.0  0.688954035918897  0.007513804009335  0.09649109318639397  1.0000
  H   H37       1.0  0.9491604734079574  0.7245724630341144  0.08486192568553008  1.0000
  H   H38       1.0  0.9539542005276263  0.7645300984771594  0.13055781935521077  1.0000
  H   H39       1.0  0.8527579797797814  0.721025933214541  0.17814025303460565  1.0000
  H   H40       1.0  0.8481895896917068  0.68065626959347  0.1325670619915939  1.0000
  C   C1        1.0  0.8627633863505794  0.5675493908884164  0.4304421567774739  1.0000
  C   C2        1.0  0.12473910297805446  0.3153041396419667  0.43871934968348103  1.0000
  C   C3        1.0  0.8656710358496298  0.4275060667154094  0.5682886115465208  1.0000
  C   C4        1.0  0.13882150641211416  0.43513337351385667  0.5681667709027279  1.0000
  C   C5        1.0  0.8716890035921452  0.6841488198888116  0.5605080755164805  1.0000
  C   C6        1.0  0.1373307608699578  0.5691078511884482  0.43081743205517836  1.0000
  C   C7        1.0  0.6393249586507679  0.31840917592122503  0.6815352666983543  1.0000
  C   C8        1.0  0.37685428315197095  0.4352961071773577  0.809815831493786  1.0000
  C   C9        1.0  0.6332937686188344  0.18268495296122472  0.8212978743393861  1.0000
  C   C10       1.0  0.36148256763760866  0.18039757061167447  0.8167410222749749  1.0000
  C   C11       1.0  0.6273284926518273  0.06574495052311852  0.6885572898222065  1.0000
  C   C12       1.0  0.36332721618262537  0.3185860122917106  0.680358333565948  1.0000
  C   C13       1.0  0.36298277992028005  0.6805936351349118  0.32000014056052345  1.0000
  C   C14       1.0  0.623173873958784  0.5656669929487704  0.18878398512438824  1.0000
  C   C15       1.0  0.6383504927181392  0.6806775360707463  0.3184469789834737  1.0000
  C   C16       1.0  0.6338283560745736  0.8216168030016533  0.1805668837300374  1.0000
  C   C17       1.0  0.37565406684534275  0.9317522740079266  0.3131996290080181  1.0000
  C   C18       1.0  0.361370829049946  0.8174094909643158  0.18141529751062535  1.0000
  C   C19       1.0  0.13869708174768636  0.9312335134014875  0.0686680539152107  1.0000
  C   C20       1.0  0.8830034254378133  0.18384619089205503  0.06115331088611246  1.0000
  C   C21       1.0  0.8608141274792659  0.9327158024746326  0.06963553251680563  1.0000
  C   C22       1.0  0.8623237416075825  0.0688512360107438  0.9313483731534972  1.0000
  C   C23       1.0  0.12160219222987219  0.8146203032432524  0.9401403341774355  1.0000
  C   C24       1.0  0.13942848068531793  0.06711921499621099  0.9301130614735624  1.0000
  C   C25       1.0  0.7339371451631608  0.8043552171714836  0.6011138727118136  1.0000
  C   C26       1.0  0.7647682408570592  0.9446472161163015  0.6488992559312051  1.0000
  C   C27       1.0  0.8214118389228277  0.7586154868022489  0.585814742160494  1.0000
  C   C28       1.0  0.677289915714013  0.9907334872084591  0.6639030199840691  1.0000
  C   C29       1.0  0.7854946942168082  0.8767693272792698  0.6259716624463747  1.0000
  C   C30       1.0  0.713127523585598  0.8722320137624989  0.6240822556810669  1.0000
  C   C31       1.0  0.2024195903715551  0.22530653107635604  0.369414982907834  1.0000
  C   C32       1.0  0.2980178537378535  0.021422503002128196  0.38280202404337155  1.0000
  C   C33       1.0  0.1739753143966283  0.24107462085112272  0.4134495988326989  1.0000
  C   C34       1.0  0.3264640716223112  0.0057091662960076  0.33877968584615553  1.0000
  C   C35       1.0  0.25280173157653246  0.1014422059026643  0.39407184252554117  1.0000
  C   C36       1.0  0.24765728177424504  0.14523097407989383  0.35827605627196135  1.0000
  C   C37       1.0  0.696623547003  0.34616184737200234  0.6529899251474518  1.0000
  C   C38       1.0  0.8117001230436927  0.39664147519970777  0.5973424388589308  1.0000
  C   C39       1.0  0.6670627315022558  0.41795615269316494  0.6361967958809699  1.0000
  C   C40       1.0  0.8411884155076804  0.3236392284197223  0.6148639469137862  1.0000
  C   C41       1.0  0.7230765409149101  0.4415736156277887  0.6094631309531877  1.0000
  C   C42       1.0  0.7853651307846263  0.299636915387225  0.6416208695235639  1.0000
  C   C43       1.0  0.588663781431599  0.4920197399780547  0.6345892784776977  1.0000
  C   C44       1.0  0.6518940960377789  0.5190458959818403  0.6043207768983407  1.0000
  C   C45       1.0  0.3057964370276948  0.6525490150439949  0.3482263517166259  1.0000
  C   C46       1.0  0.19387197537899686  0.596450385620159  0.40108544520575146  1.0000
  C   C47       1.0  0.2797024299669814  0.6641032155021165  0.3925465239448016  1.0000
  C   C48       1.0  0.22075323986969414  0.5850888819561034  0.3557758134292256  1.0000
  C   C49       1.0  0.2256651950970507  0.6369018844466793  0.41763464338081485  1.0000
  C   C50       1.0  0.2747466630753692  0.6123532823907567  0.3304989668943463  1.0000
  C   C51       1.0  0.28570065504191416  0.698698082475289  0.4305369548163823  1.0000
  C   C52       1.0  0.22458521975961077  0.6677867343261852  0.4590703150874589  1.0000
  C   C53       1.0  0.6952251047754316  0.6523418748740681  0.34680456865785203  1.0000
  C   C54       1.0  0.8091760185833223  0.5953526525366897  0.40039205312732656  1.0000
  C   C55       1.0  0.6650482120640502  0.6638532934557091  0.3911382185350262  1.0000
  C   C56       1.0  0.8393727001513437  0.584225821968282  0.3550739862455998  1.0000
  C   C57       1.0  0.7205434781364846  0.6361554610583298  0.4165778447050029  1.0000
  C   C58       1.0  0.7839604920847163  0.611828669681465  0.3294740903084659  1.0000
  C   C59       1.0  0.5862626310439012  0.6988625892558815  0.4288443212668653  1.0000
  C   C60       1.0  0.6489672949410731  0.6675902110993518  0.457783186986802  1.0000
  C   C61       1.0  0.30564253745161096  0.34821599299746  0.6523873656098614  1.0000
  C   C62       1.0  0.19554823470303256  0.4090948486758208  0.596790610211208  1.0000
  C   C63       1.0  0.27157896203358695  0.30643262302403673  0.6395892418815092  1.0000
  C   C64       1.0  0.23042326130030938  0.45137873829844466  0.6102003925486982  1.0000
  C   C65       1.0  0.21868798314379492  0.3363181261935608  0.612829716244967  1.0000
  C   C66       1.0  0.2833074300552454  0.4217836893220052  0.6370244384975762  1.0000
  C   C67       1.0  0.26727684011851943  0.23137110751629553  0.6427512156971742  1.0000
  C   C68       1.0  0.20745357914605475  0.2649014105643488  0.6124061337415511  1.0000
  C   C69       1.0  0.2980181042816242  0.5844711477026721  0.8205095228054515  1.0000
  C   C70       1.0  0.201599795839229  0.6654068628703911  0.9295345709303574  1.0000
  C   C71       1.0  0.32742984626311505  0.510438978536584  0.8343529292416035  1.0000
  C   C72       1.0  0.17176542889587412  0.7394371970860546  0.9156615318276023  1.0000
  C   C73       1.0  0.24756397674352112  0.6088692964331132  0.8948827691575971  1.0000
  C   C74       1.0  0.2520965858103709  0.6409632725734721  0.8551586301858336  1.0000
  C   C75       1.0  0.804452623669043  0.0972695884243322  0.9033937238983611  1.0000
  C   C76       1.0  0.6878080124249166  0.1548757820990616  0.8510160164419743  1.0000
  C   C77       1.0  0.8331267239490003  0.08637906869380167  0.8590342923952008  1.0000
  C   C78       1.0  0.6592017934287853  0.16516929396521357  0.8963425790325771  1.0000
  C   C79       1.0  0.776405989697004  0.11450560242423792  0.8342004834693028  1.0000
  C   C80       1.0  0.7157206926872632  0.1374849141872261  0.921367716374739  1.0000
  C   C81       1.0  0.9109737435553739  0.0523268317877026  0.8208219843160619  1.0000
  C   C82       1.0  0.8469786843778238  0.08412267446092872  0.7925901408800584  1.0000
  C   C83       1.0  0.1953781077881658  0.09610104336167069  0.9014098096712287  1.0000
  C   C84       1.0  0.3041154266596351  0.15097160003953997  0.8437674140808227  1.0000
  C   C85       1.0  0.2282552490099475  0.13695188821440502  0.9163071748472189  1.0000
  C   C86       1.0  0.2696838354117119  0.10971862509797599  0.8288941223192763  1.0000
  C   C87       1.0  0.2804960314459777  0.1630600247041656  0.8882432797910906  1.0000
  C   C88       1.0  0.2174621537516543  0.08330721515517328  0.8568530091845685  1.0000
  C   C89       1.0  0.2318946601090559  0.16980876476084458  0.9556761153109219  1.0000
  C   C90       1.0  0.29121685014936105  0.19934463628179336  0.9239918391660495  1.0000
  C   C91       1.0  0.6449966328337596  0.44576093481211393  0.1486630602045196  1.0000
  C   C92       1.0  0.8623108966684256  0.3037928982545636  0.10099668567658428  1.0000
  C   C93       1.0  0.6725594260329186  0.49111019825472374  0.16368812718392428  1.0000
  C   C94       1.0  0.834522568392771  0.2585610700374942  0.08603760183742538  1.0000
  C   C95       1.0  0.7933599776187918  0.37215045896182636  0.12379892091728811  1.0000
  C   C96       1.0  0.7141661902445692  0.3775939776601973  0.12579571238951803  1.0000
  C   C97       1.0  0.1953833841129509  0.9025805150869813  0.09706637817297546  1.0000
  C   C98       1.0  0.3046199466960219  0.8432159454233171  0.15293056511053035  1.0000
  C   C99       1.0  0.22846964872474018  0.9451857902763339  0.1099620938918591  1.0000
  C   C100      1.0  0.27050716168250233  0.8001661688548508  0.13953200084325348  1.0000
  C   C101      1.0  0.28086622271128187  0.9160347167447042  0.13695272426105018  1.0000
  C   C102      1.0  0.21782783962360935  0.8292123625155199  0.11261054490994128  1.0000
  C   C103      1.0  0.2317265211142328  0.020742946802968704  0.10694579719636715  1.0000
  C   C104      1.0  0.29117602528481956  0.9879148216178494  0.1375045537959068  1.0000
  C   C105      1.0  0.803337258926476  0.9044246925811449  0.09752577922866115  1.0000
  C   C106      1.0  0.6879683245910756  0.8527919543252053  0.15192576345086903  1.0000
  C   C107      1.0  0.8327464418385307  0.8322212492386071  0.11387197316619078  1.0000
  C   C108      1.0  0.6586125719722703  0.9261222046071467  0.13473103573320344  1.0000
  C   C109      1.0  0.7766318532852736  0.8081085845811485  0.14007707445989576  1.0000
  C   C110      1.0  0.7145228235993527  0.9507436595652834  0.10868087869502568  1.0000
  C   C111      1.0  0.9111280729201283  0.7582450921364624  0.115602124916343  1.0000
  C   C112      1.0  0.8478452880476012  0.730810370961997  0.14539136635645633  1.0000
  S   S1        1.0  0.8784249100803265  0.7986192810245639  0.5996469563741584  1.0000
  S   S2        1.0  0.6202165385235006  0.9507669389717109  0.6500467450941229  1.0000
  S   S3        1.0  0.20266776122517882  0.15790469442656976  0.4412180649884334  1.0000
  S   S4        1.0  0.29781690163873253  0.08895093471993219  0.3111037857745628  1.0000
  S   S5        1.0  0.29897763806078365  0.5100200838433648  0.8898920548554088  1.0000
  S   S6        1.0  0.20020349570165755  0.7398042623294288  0.8601247713614057  1.0000
  S   S7        1.0  0.7832672781887736  0.45029805817062396  0.14971477131667402  1.0000
  S   S8        1.0  0.7238525672724734  0.2997120683005575  0.09993190611250916  1.0000
  Br  Br1       1.0  0.6488026277792541  0.784048557427468  0.5937910896432825  1.0000
  Br  Br2       1.0  0.8499182257073556  0.9650326230571479  0.6560460808022484  1.0000
  Br  Br3       1.0  0.18698507597080288  0.2963527200173388  0.32729950970841765  1.0000
  Br  Br4       1.0  0.31384869149970757  0.9499143600037454  0.4247718450250062  1.0000
  Br  Br5       1.0  0.3130076550585912  0.6124098128161889  0.7639061307450916  1.0000
  Br  Br6       1.0  0.18662382682177991  0.6375557684882407  0.9861460454933065  1.0000
  Br  Br7       1.0  0.5323626334306651  0.4667862912212967  0.15563856794310024  1.0000
  Br  Br8       1.0  0.9753845028391623  0.2820912774651063  0.0936717077212066  1.0000
  Br  Br9       1.0  0.9585083508130338  0.2503110872887788  0.604378969794517  1.0000
  Br  Br10      1.0  0.18596725178824866  0.5338269526672264  0.3242306014783408  1.0000
  Br  Br11      1.0  0.9567299272228169  0.5314465914412522  0.3238826860104138  1.0000
  Br  Br12      1.0  0.21034239464587762  0.5519455266376098  0.5932915682251975  1.0000
  Br  Br13      1.0  0.5420845982060172  0.2170762503649684  0.9281590855331602  1.0000
  Br  Br14      1.0  0.2887204475032589  0.08675650594650357  0.7699466056754715  1.0000
  Br  Br15      1.0  0.29057144030345927  0.6998272065133051  0.1566787814020643  1.0000
  Br  Br16      1.0  0.5412633328301979  0.9988521416319854  0.1445412824465961  1.0000
  O   O1        1.0  0.9980599949337687  0.5007599836538789  0.501102146567689  1.0000
  O   O2        1.0  0.8227590329544867  0.582194686124552  0.4702639617509447  1.0000
  O   O3        1.0  0.10111093973043238  0.37549228279416985  0.4182124401921072  1.0000
  O   O4        1.0  0.9458734480560621  0.3860301406836015  0.5579702491246223  1.0000
  O   O5        1.0  0.942932385275306  0.5317871023114691  0.4146266629909334  1.0000
  O   O6        1.0  0.8250628190702259  0.4946420595001441  0.5560727516235174  1.0000
  O   O7        1.0  0.10993405107686265  0.312457392154876  0.4792963994641751  1.0000
  O   O8        1.0  0.11806414427081796  0.38576661723719496  0.5590836562320048  1.0000
  O   O9        1.0  0.9524625611899539  0.6580109795635919  0.5506478221965381  1.0000
  O   O10       1.0  0.11562977218523672  0.5024108214899955  0.555200101831339  1.0000
  O   O11       1.0  0.83166031506439  0.6529188687287898  0.5508293701443845  1.0000
  O   O12       1.0  0.11763325396569975  0.5249986050353002  0.4153089034853821  1.0000
  O   O13       1.0  0.11363134130081674  0.5921766678886158  0.4702411478581823  1.0000
  O   O14       1.0  0.5007393520443131  0.2497319303027511  0.7499488621799484  1.0000
  O   O15       1.0  0.6740810633267529  0.25236153822318386  0.6957854430744205  1.0000
  O   O16       1.0  0.4001478179673158  0.4353475976957525  0.7693439308320436  1.0000
  O   O17       1.0  0.5530595116318436  0.21995836102744454  0.8367819030738274  1.0000
  O   O18       1.0  0.5596716458520845  0.3639276702006171  0.6891831181511917  1.0000
  O   O19       1.0  0.6737691223228595  0.16598461388005598  0.7815856639098298  1.0000
  O   O20       1.0  0.3918300189076689  0.37638064857831927  0.8318838135765887  1.0000
  O   O21       1.0  0.3792795564502923  0.2215483291511973  0.8367071613545392  1.0000
  O   O22       1.0  0.5465477396011736  0.09492740440119718  0.6958951952445814  1.0000
  O   O23       1.0  0.3885937891285423  0.16250242087570396  0.7768435843780637  1.0000
  O   O24       1.0  0.6674511200011678  0.09481793603220008  0.7002644886841694  1.0000
  O   O25       1.0  0.38861065268375217  0.3635030451646415  0.6903368690098544  1.0000
  O   O26       1.0  0.38270632749141953  0.250328159507113  0.6918078007881616  1.0000
  O   O27       1.0  0.5008363851793478  0.7502847422686826  0.2501353194567599  1.0000
  O   O28       1.0  0.38842844625808226  0.7165051652880265  0.338594067526479  1.0000
  O   O29       1.0  0.5425991238600149  0.5936527537922913  0.2001598844540808  1.0000
  O   O30       1.0  0.6732272644652043  0.6678900712370178  0.27826722879723315  1.0000
  O   O31       1.0  0.38161350114235393  0.6665371635347271  0.27988080076896427  1.0000
  O   O32       1.0  0.558753021371416  0.7156499037119274  0.33741751797138864  1.0000
  O   O33       1.0  0.6663699484011331  0.5954859031375862  0.19694800352646508  1.0000
  O   O34       1.0  0.6741202780194373  0.7530870474574769  0.19127193670889397  1.0000
  O   O35       1.0  0.3912210455457768  0.9358589234248167  0.27267759721168255  1.0000
  O   O36       1.0  0.5537696338194349  0.8641554404268347  0.19217991572728715  1.0000
  O   O37       1.0  0.39822859089863266  0.8709442880157711  0.33327790843406285  1.0000
  O   O38       1.0  0.3874106252973633  0.748899392390932  0.19266740507629979  1.0000
  O   O39       1.0  0.37970980759438067  0.8674446874719736  0.19208984601711174  1.0000
  O   O40       1.0  0.0006794112246596373  0.9999876857457222  0.9997850305278174  1.0000
  O   O41       1.0  0.11069946397777386  0.8873994752897048  0.0602344133824673  1.0000
  O   O42       1.0  0.9637798351393628  0.15328793914896716  0.050709341571575806  1.0000
  O   O43       1.0  0.8263640666349374  0.0005546398639709  0.05732717742323957  1.0000
  O   O44       1.0  0.12300707429000803  0.9977464113023943  0.05527030662261721  1.0000
  O   O45       1.0  0.9403583231848389  0.8859143274765131  0.060466516401191786  1.0000
  O   O46       1.0  0.8382912876527369  0.1563726381893105  0.0522719080368148  1.0000
  O   O47       1.0  0.8278143583162318  0.0853415469376628  0.971406364588681  1.0000
  O   O48       1.0  0.10329137211760316  0.8735255853349457  0.9179343395021033  1.0000
  O   O49       1.0  0.9417897933672137  0.0303395402344506  0.9125617469854815  1.0000
  O   O50       1.0  0.10094600997285846  0.8147210234914511  0.9806513705583911  1.0000
  O   O51       1.0  0.12245817946325127  0.08217659356814978  0.9700268370910762  1.0000
  O   O52       1.0  0.11338781535154399  0.0302256142497015  0.9127304931209322  1.0000
