data_image0
_chemical_formula_structural       Zn2H40C20S4N4O8
_chemical_formula_sum              "Zn2 H40 C20 S4 N4 O8"
_cell_length_a       5.0979140495489546
_cell_length_b       9.391432560458918
_cell_length_c       15.301414992720156
_cell_angle_alpha    110.05921480692226
_cell_angle_beta     90.00110348816047
_cell_angle_gamma    89.99890655737339

_space_group_name_H-M_alt    "P 1"
_space_group_IT_number       1

loop_
  _space_group_symop_operation_xyz
  'x, y, z'

loop_
  _atom_site_type_symbol
  _atom_site_label
  _atom_site_symmetry_multiplicity
  _atom_site_fract_x
  _atom_site_fract_y
  _atom_site_fract_z
  _atom_site_occupancy
  Zn  Zn1       1.0  0.9992435613960566  0.751748199663382  0.01589780053000568  1.0000
  Zn  Zn2       1.0  0.49924253530630125  0.24825417892494528  0.9840978971335088  1.0000
  H   H1        1.0  0.6458149448490786  0.1402144764687918  0.5089103707024805  1.0000
  H   H2        1.0  0.1458016436292198  0.8597919264154897  0.49109713539907307  1.0000
  H   H3        1.0  0.289613728832272  0.6685131450275676  0.8619641481928679  1.0000
  H   H4        1.0  0.7896146130927307  0.3314790139300429  0.13802768198355858  1.0000
  H   H5        1.0  0.894153760480428  0.5590012422528192  0.8051937297787716  1.0000
  H   H6        1.0  0.3941777535162245  0.4410053212896159  0.19480641015186956  1.0000
  H   H7        1.0  0.9816812960817815  0.2853779972099844  0.7292793163083287  1.0000
  H   H8        1.0  0.48170220841009836  0.7146243739597224  0.2707216711852282  1.0000
  H   H9        1.0  0.4022209444495175  0.2873796829785463  0.6545071321316341  1.0000
  H   H10       1.0  0.9022446210801932  0.7126093801070894  0.34549940117532424  1.0000
  H   H11       1.0  0.7993968126011595  0.4381016297030058  0.6182353884700261  1.0000
  H   H12       1.0  0.2993865865929237  0.5618978827173606  0.3817656764785439  1.0000
  H   H13       1.0  0.6160590483930264  0.9427206327301931  0.06537329553751185  1.0000
  H   H14       1.0  0.11607046429128332  0.05727130517692559  0.9346236689079601  1.0000
  H   H15       1.0  0.7863874209509589  0.14471177820473713  0.18762182444959308  1.0000
  H   H16       1.0  0.2864069166870422  0.8552848960593666  0.8123715443016335  1.0000
  H   H17       1.0  0.10675369499377041  0.8921524055126611  0.22067893722435625  1.0000
  H   H18       1.0  0.6067446673999441  0.10785421664341041  0.779322862030817  1.0000
  H   H19       1.0  0.11448743253854589  0.23040333049912937  0.3421684305749011  1.0000
  H   H20       1.0  0.6144623470911127  0.7696053441804765  0.6578272008873327  1.0000
  H   H21       1.0  0.4640103499471521  0.29297471729901053  0.4937012349851527  1.0000
  H   H22       1.0  0.9639959395802007  0.7070295421945544  0.5062982175897089  1.0000
  H   H23       1.0  0.34175628354239507  0.5609652445690898  0.9255427168115844  1.0000
  H   H24       1.0  0.8417617728853202  0.43902669946180595  0.0744508528717205  1.0000
  H   H25       1.0  0.23733911461130217  0.29353720038871955  0.8084924782837601  1.0000
  H   H26       1.0  0.7373700077203366  0.7064672723524269  0.19151499153502977  1.0000
  H   H27       1.0  0.5169554197851198  0.4433494075532209  0.7489840524190894  1.0000
  H   H28       1.0  0.0169636129060038  0.5566269828132776  0.2510246306974863  1.0000
  H   H29       1.0  0.035541901374429606  0.3089569837588257  0.5456175650544991  1.0000
  H   H30       1.0  0.535531541518523  0.6910440563505277  0.45438470813905946  1.0000
  H   H31       1.0  0.9552236080830881  0.4796961044241782  0.5256482848601534  1.0000
  H   H32       1.0  0.45522255839482983  0.5203071186514023  0.474355574293618  1.0000
  H   H33       1.0  0.6316133846236484  0.8680083686383854  0.14687042529977393  1.0000
  H   H34       1.0  0.13160335286241315  0.1319791468328191  0.8531230144437812  1.0000
  H   H35       1.0  0.8423416682206407  0.9926227753698812  0.28933046009208135  1.0000
  H   H36       1.0  0.3423298008479208  0.00738654198819689  0.7106736610265044  1.0000
  H   H37       1.0  0.3745315387443213  0.1341579108188498  0.26853194834573196  1.0000
  H   H38       1.0  0.874519203391344  0.8658414793621961  0.7314655639694009  1.0000
  H   H39       1.0  0.7081394804154258  0.19510704575743892  0.410354210773896  1.0000
  H   H40       1.0  0.20811828393750892  0.8048935694713464  0.5896526137786964  1.0000
  C   C1        1.0  0.0103380167902785  0.4982172545235954  0.842112857790319  1.0000
  C   C2        1.0  0.5103520732356374  0.501787721958607  0.15788634123826029  1.0000
  C   C3        1.0  0.34104239109142753  0.3934432098585673  0.7087028765627463  1.0000
  C   C4        1.0  0.8410574391594496  0.6065482260390525  0.2913030198296624  1.0000
  C   C5        1.0  0.1310807971722525  0.0655285479300645  0.10362789047633209  1.0000
  C   C6        1.0  0.631096299329691  0.9344635920969253  0.8963684072892731  1.0000
  C   C7        1.0  0.0113228154736618  0.003904286782429296  0.2471387689581732  1.0000
  C   C8        1.0  0.5113210148201333  0.9961018715646263  0.7528613091797993  1.0000
  C   C9        1.0  0.555138069599593  0.18245806698221395  0.457556879130628  1.0000
  C   C10       1.0  0.055121989219799196  0.8175444469267958  0.5424462652626403  1.0000
  C   C11       1.0  0.31269337278683196  0.5411063335535715  0.09318231905254486  1.0000
  C   C12       1.0  0.812689140342762  0.45890698425702686  0.9068213709794148  1.0000
  C   C13       1.0  0.13612813833700702  0.35901801837038516  0.7714004241863676  1.0000
  C   C14       1.0  0.6361511290135907  0.6409845658730121  0.22860114596675624  1.0000
  C   C15       1.0  0.9834953066091642  0.42878832108370096  0.5797021920630243  1.0000
  C   C16       1.0  0.48348574788766296  0.5712141787235153  0.4203007755561216  1.0000
  C   C17       1.0  0.9042442253185926  0.0401418642398141  0.16320942009632228  1.0000
  C   C18       1.0  0.40425043789660725  0.9598557258892201  0.8367876411349754  1.0000
  C   C19       1.0  0.20488376492792776  0.11844974494791671  0.3086411685360488  1.0000
  C   C20       1.0  0.7048693772177259  0.8815548159308478  0.6913559695639079  1.0000
  S   S1        1.0  0.24864108117910177  0.5288371777321218  0.6534124167631034  1.0000
  S   S2        1.0  0.748630210856078  0.47115837388246024  0.3465926341433061  1.0000
  S   S3        1.0  0.3175058000753737  0.0424052486958217  0.3963544890519231  1.0000
  S   S4        1.0  0.8174845645623847  0.9576001125323402  0.6036456834542532  1.0000
  N   N1        1.0  0.7459192195046569  0.9098080134650245  0.10629127982184623  1.0000
  N   N2        1.0  0.24591847703042896  0.090185927280281  0.8937049691550598  1.0000
  N   N3        1.0  0.1977687766684255  0.6116015464910659  0.8995454913961608  1.0000
  N   N4        1.0  0.6977687473478936  0.38839947024140997  0.10045033174360896  1.0000
  O   O1        1.0  0.22413484112166773  0.6752518635771381  0.11614721935183776  1.0000
  O   O2        1.0  0.7241477859109295  0.32475333416921615  0.8838565135291104  1.0000
  O   O3        1.0  0.7385535229761402  0.5675068078098136  0.9789131931338131  1.0000
  O   O4        1.0  0.23856050352799937  0.43250281350832154  0.021084807567461887  1.0000
  O   O5        1.0  0.22633292949571168  0.9464990544144315  0.041549524606878684  1.0000
  O   O6        1.0  0.7263377672552521  0.053494780090858285  0.9584506944702722  1.0000
  O   O7        1.0  0.2154907059377393  0.1976701368716434  0.12030077616989127  1.0000
  O   O8        1.0  0.715514265542133  0.8023309905701196  0.8796917379521643  1.0000
