data_image0
_chemical_formula_structural       Cu4H36C36Br4N12
_chemical_formula_sum              "Cu4 H36 C36 Br4 N12"
_cell_length_a       4.021239246831805
_cell_length_b       13.668392570035506
_cell_length_c       17.19189659219571
_cell_angle_alpha    90.00012128073091
_cell_angle_beta     90.72961139166712
_cell_angle_gamma    89.9997637257696

_space_group_name_H-M_alt    "P 1"
_space_group_IT_number       1

loop_
  _space_group_symop_operation_xyz
  'x, y, z'

loop_
  _atom_site_type_symbol
  _atom_site_label
  _atom_site_symmetry_multiplicity
  _atom_site_fract_x
  _atom_site_fract_y
  _atom_site_fract_z
  _atom_site_occupancy
  Cu  Cu1       1.0  0.35515340049737887  0.9419201666458998  0.41730376818096454  1.0000
  Cu  Cu2       1.0  0.6448408346436096  0.44191780783975065  0.08269595991107788  1.0000
  Cu  Cu3       1.0  0.6448248411165665  0.058086214375748575  0.5827031513496832  1.0000
  Cu  Cu4       1.0  0.35515706593807295  0.5580849150805135  0.9172999432724606  1.0000
  H   H1        1.0  0.3822131589662732  0.6714586122449401  0.7209992923520757  1.0000
  H   H2        1.0  0.6177895497899186  0.17145900433011  0.7790028654310247  1.0000
  H   H3        1.0  0.6177798674025895  0.32854118422481077  0.2790012554375067  1.0000
  H   H4        1.0  0.3821986273009444  0.8285364024608126  0.22100349036180936  1.0000
  H   H5        1.0  0.9273979341438617  0.9251537687311283  0.6977842801326657  1.0000
  H   H6        1.0  0.0726235132596216  0.42515782004624464  0.802210772490987  1.0000
  H   H7        1.0  0.0726397579440174  0.07484163801549924  0.3022116949264769  1.0000
  H   H8        1.0  0.9273818482501853  0.5748405131799003  0.19778514416675105  1.0000
  H   H9        1.0  0.84510761867449  0.8043342460455204  0.7330427674142681  1.0000
  H   H10       1.0  0.15490806349869496  0.30433663896886287  0.7669538184772404  1.0000
  H   H11       1.0  0.1549177009103886  0.19565896586778556  0.26695609367609296  1.0000
  H   H12       1.0  0.8450849504429315  0.6956580361956451  0.23304614760893114  1.0000
  H   H13       1.0  0.0367569293213705  0.5489059150762328  0.6506082537698389  1.0000
  H   H14       1.0  0.9632251037496219  0.048902411386485795  0.8493948257791144  1.0000
  H   H15       1.0  0.9632137392330906  0.45110046594308517  0.3493934169901606  1.0000
  H   H16       1.0  0.0367631107032977  0.9510966534813574  0.15061327511434536  1.0000
  H   H17       1.0  0.9800192887058827  0.7327262372747609  0.4450987742978539  1.0000
  H   H18       1.0  0.019985290978972607  0.23272969478742303  0.05490120554025418  1.0000
  H   H19       1.0  0.019971250666856108  0.2672779488860613  0.5549017690027326  1.0000
  H   H20       1.0  0.980025119156828  0.767280344279065  0.9450982103075277  1.0000
  H   H21       1.0  0.8349402125578538  0.5778698793500677  0.5158534734059755  1.0000
  H   H22       1.0  0.16505133344025322  0.0778684484521932  0.9841479265678783  1.0000
  H   H23       1.0  0.16503293051025741  0.422135038437119  0.48414762014621704  1.0000
  H   H24       1.0  0.8349617132553747  0.9221350060876571  0.0158584741575609  1.0000
  H   H25       1.0  0.4077799583566488  0.9877233448546787  0.7614629645623693  1.0000
  H   H26       1.0  0.5922480911970781  0.4877229290136567  0.7385322042565006  1.0000
  H   H27       1.0  0.5922802534662993  0.012278646420980997  0.23853944962684176  1.0000
  H   H28       1.0  0.40774721031736766  0.5122710145221345  0.2614584591343814  1.0000
  H   H29       1.0  0.5624676859571239  0.8002002284928904  0.8565613629297741  1.0000
  H   H30       1.0  0.4375530269380051  0.3001953601058389  0.6434352251541211  1.0000
  H   H31       1.0  0.43756261999703844  0.19979664149276022  0.14343808884800063  1.0000
  H   H32       1.0  0.562439899802051  0.699794193748829  0.35656066903340633  1.0000
  H   H33       1.0  0.3116004237905869  0.9073659151528797  0.8876211875106248  1.0000
  H   H34       1.0  0.6884386890375752  0.40736138690994744  0.6123744490508967  1.0000
  H   H35       1.0  0.6884547517884273  0.09263607612200528  0.11237830919735357  1.0000
  H   H36       1.0  0.31155171335936427  0.5926267037140958  0.3876196955452186  1.0000
  C   C1        1.0  0.296810308472061  0.6844688937991704  0.6615128404857555  1.0000
  C   C2        1.0  0.7031822240068383  0.1844686075737342  0.838486993888665  1.0000
  C   C3        1.0  0.7031852173251851  0.3155309026698204  0.33848829349562937  1.0000
  C   C4        1.0  0.2968008919052779  0.8155282624447077  0.16151528102572846  1.0000
  C   C5        1.0  0.3728676610553451  0.7703845286265504  0.621095225801504  1.0000
  C   C6        1.0  0.6271336400790092  0.2703844436308031  0.8789047675920186  1.0000
  C   C7        1.0  0.6271203789191376  0.22961526784548167  0.37890473130367036  1.0000
  C   C8        1.0  0.3728618981906778  0.729613889609105  0.12109694808736997  1.0000
  C   C9        1.0  0.7306139492905431  0.8729934242767068  0.7131840495259069  1.0000
  C   C10       1.0  0.2694032650275845  0.37299572917095936  0.7868120718773707  1.0000
  C   C11       1.0  0.26941139519902896  0.12700271409783429  0.2868159749652648  1.0000
  C   C12       1.0  0.7305946231469422  0.6269989459843684  0.21318324960036245  1.0000
  C   C13       1.0  0.10389834071234824  0.6165582668239361  0.6213043194337331  1.0000
  C   C14       1.0  0.8960976357535417  0.11655638701937929  0.8786965713408532  1.0000
  C   C15       1.0  0.896089724156788  0.3834459193391735  0.3786968010734596  1.0000
  C   C16       1.0  0.10389793988321833  0.883444872682531  0.12130688943855718  1.0000
  C   C17       1.0  0.06777098915891601  0.7179914209584974  0.5040702601275768  1.0000
  C   C18       1.0  0.9322235826548992  0.21798980887783154  0.9959302154718301  1.0000
  C   C19       1.0  0.9322145762667591  0.28201496005014787  0.49593027418961094  1.0000
  C   C20       1.0  0.06777691704924393  0.7820136456627365  0.0040709274977644  1.0000
  C   C21       1.0  0.2621950803090413  0.7873850299990647  0.543935998047459  1.0000
  C   C22       1.0  0.7378059999322772  0.2873879407264822  0.9560646049576178  1.0000
  C   C23       1.0  0.7377954964709516  0.21261622970435912  0.4560662903483389  1.0000
  C   C24       1.0  0.26219696181811974  0.712614782196098  0.043935379105562285  1.0000
  C   C25       1.0  0.9911053005568392  0.6329472555648505  0.5440601780007126  1.0000
  C   C26       1.0  0.0088954498252107  0.13294521013067845  0.9559419120633095  1.0000
  C   C27       1.0  0.008875353238735798  0.36706058868052327  0.45594325582850087  1.0000
  C   C28       1.0  0.9911224835807675  0.8670560495559768  0.044060425751091294  1.0000
  C   C29       1.0  0.5148753565891795  0.9160703944130758  0.7749441905917606  1.0000
  C   C30       1.0  0.4851361056652835  0.41606641640251496  0.7250432670529604  1.0000
  C   C31       1.0  0.4851498757087782  0.08393013364410958  0.22505059861016716  1.0000
  C   C32       1.0  0.5148542468469657  0.5839267955229344  0.2749485507505369  1.0000
  C   C33       1.0  0.4612409747595835  0.8724911435174504  0.8430651451954104  1.0000
  C   C34       1.0  0.5387812827010166  0.3724927710245395  0.6569338928639396  1.0000
  C   C35       1.0  0.5387693856571972  0.1274998735579301  0.156931943839929  1.0000
  C   C36       1.0  0.4611966972931684  0.6275004409123637  0.3430608109725809  1.0000
  Br  Br1       1.0  0.8613501834925898  0.8850893731429891  0.34378097778008504  1.0000
  Br  Br2       1.0  0.13862999709108692  0.3850885647396962  0.15622270195240154  1.0000
  Br  Br3       1.0  0.13863563120091982  0.11491408142128985  0.6562311905188167  1.0000
  Br  Br4       1.0  0.8613603927430518  0.6149141581820741  0.8437708609565177  1.0000
  N   N1        1.0  0.38074865661464946  0.8771774895377572  0.5210751205436066  1.0000
  N   N2        1.0  0.6192461923662692  0.37717841220641174  0.9789244574893838  1.0000
  N   N3        1.0  0.6192394705764599  0.12282523339933955  0.47892890845840697  1.0000
  N   N4        1.0  0.3807517456075971  0.6228235791012295  0.021073190791170794  1.0000
  N   N5        1.0  0.5540045437537345  0.9156091928657158  0.5796209491647559  1.0000
  N   N6        1.0  0.4459997006891498  0.4156094412385939  0.9203775465333803  1.0000
  N   N7        1.0  0.445981059064124  0.08439645653030677  0.420381330249448  1.0000
  N   N8        1.0  0.5540081851436868  0.5843932816778686  0.07962011971817867  1.0000
  N   N9        1.0  0.552416068475047  0.8518490341596274  0.640455010152557  1.0000
  N   N10       1.0  0.4475965119762932  0.3518505818051734  0.8595433943487689  1.0000
  N   N11       1.0  0.4475869182151797  0.14815149391971252  0.3595461373072339  1.0000
  N   N12       1.0  0.5524064248643866  0.6481499462711041  0.14045542631419744  1.0000
