data_image0
_chemical_formula_structural       Cu2H34C44N4O8
_chemical_formula_sum              "Cu2 H34 C44 N4 O8"
_cell_length_a       9.582884552881197
_cell_length_b       10.197062864055644
_cell_length_c       11.08860018009214
_cell_angle_alpha    114.83753624249078
_cell_angle_beta     102.43201203943582
_cell_angle_gamma    98.31110051320577

_space_group_name_H-M_alt    "P 1"
_space_group_IT_number       1

loop_
  _space_group_symop_operation_xyz
  'x, y, z'

loop_
  _atom_site_type_symbol
  _atom_site_label
  _atom_site_symmetry_multiplicity
  _atom_site_fract_x
  _atom_site_fract_y
  _atom_site_fract_z
  _atom_site_occupancy
  Cu  Cu1       1.0  0.9554035598953946  0.5962661756329837  0.6030062371626315  1.0000
  Cu  Cu2       1.0  0.04460148637600267  0.4037421130634014  0.3970013515631122  1.0000
  H   H1        1.0  0.05317035052120635  0.6010638525770415  0.9043142366968268  1.0000
  H   H2        1.0  0.9468280692457752  0.3989354682656909  0.09568505167435856  1.0000
  H   H3        1.0  0.11428082045493676  0.6821597536252214  0.16102970413828646  1.0000
  H   H4        1.0  0.8857199325125507  0.3178362124475455  0.8389687050773065  1.0000
  H   H5        1.0  0.02762221301355076  0.889893115303309  0.3128983636353553  1.0000
  H   H6        1.0  0.9723717497286228  0.11009722869067667  0.6870993288858855  1.0000
  H   H7        1.0  0.8739587412283711  0.019911526996708093  0.21309739132401262  1.0000
  H   H8        1.0  0.12603114383114186  0.9800754453452002  0.7868991496840323  1.0000
  H   H9        1.0  0.7265281522728202  0.7726954413907446  0.5675656147131746  1.0000
  H   H10       1.0  0.27347346184987487  0.22730389287798394  0.4324315551599796  1.0000
  H   H11       1.0  0.7161073652631343  0.9553374890760719  0.6800666195805575  1.0000
  H   H12       1.0  0.28389154518561094  0.044659590778017795  0.3199327888529169  1.0000
  H   H13       1.0  0.5764906300617625  0.7949116857202795  0.6377205064357979  1.0000
  H   H14       1.0  0.4235108962048812  0.20508316408979244  0.3622767078571982  1.0000
  H   H15       1.0  0.6653416579836318  0.06058454490664637  0.8841688344990287  1.0000
  H   H16       1.0  0.3346584854055976  0.9394091916539227  0.11582318597896801  1.0000
  H   H17       1.0  0.7553441765118194  0.11176272462130037  0.059748704782251104  1.0000
  H   H18       1.0  0.24464878269508705  0.888232111319844  0.9402442382607392  1.0000
  H   H19       1.0  0.5693033846208876  0.8894588030711076  0.03748089935844228  1.0000
  H   H20       1.0  0.43069169528779844  0.11053604580864367  0.9625088276110461  1.0000
  H   H21       1.0  0.4745177390096842  0.8527043673511017  0.866865909807437  1.0000
  H   H22       1.0  0.5254799611512413  0.1472882494906571  0.13312252489231474  1.0000
  H   H23       1.0  0.647951571557222  0.30402000225011966  0.6474529862110928  1.0000
  H   H24       1.0  0.3520502626210628  0.6959882809961753  0.352553113529737  1.0000
  H   H25       1.0  0.7836834481020035  0.9769300151411284  0.33186944348977926  1.0000
  H   H26       1.0  0.21631409589488731  0.023078264161661397  0.6681331678199386  1.0000
  H   H27       1.0  0.5727297326716467  0.7761868972796362  0.29100450908924097  1.0000
  H   H28       1.0  0.427272105940986  0.22382138397269094  0.7090024925223233  1.0000
  H   H29       1.0  0.2831716903923933  0.4655368063595232  0.12454097433118244  1.0000
  H   H30       1.0  0.7168360905933895  0.5344737227936917  0.875470688929397  1.0000
  H   H31       1.0  0.20206846383078406  0.4851389334230658  0.9066367118785051  1.0000
  H   H32       1.0  0.7979362878320088  0.5148559158551861  0.0933646970116158  1.0000
  H   H33       1.0  0.4847837526290705  0.46749683958119437  0.3090840616971279  1.0000
  H   H34       1.0  0.5152247004967663  0.5325080948326004  0.6909237454484868  1.0000
  C   C1        1.0  0.9238163237555668  0.7594187304161932  0.9144991391835192  1.0000
  C   C2        1.0  0.07617859686656198  0.2405794622444617  0.08549907331691027  1.0000
  C   C3        1.0  0.012401032962244976  0.6889780657514918  0.9713869075842538  1.0000
  C   C4        1.0  0.9875980722478346  0.3110156543699105  0.0286112302841772  1.0000
  C   C5        1.0  0.04630004223869115  0.7360857619081216  0.11446084583854339  1.0000
  C   C6        1.0  0.9536948916864888  0.2639124247706092  0.8855400722740898  1.0000
  C   C7        1.0  0.9959549037061208  0.8533907465088645  0.20088273032585138  1.0000
  C   C8        1.0  0.0040390546017050975  0.1465995994790958  0.7991140603246552  1.0000
  C   C9        1.0  0.9071766024509601  0.9245435328153488  0.14598476088857362  1.0000
  C   C10       1.0  0.09281075021235809  0.0754501560231944  0.8540130279693587  1.0000
  C   C11       1.0  0.8690040827005703  0.8724499063309423  0.0021191037125020363  1.0000
  C   C12       1.0  0.13099014935595224  0.1275415683709227  0.9978745682116498  1.0000
  C   C13       1.0  0.7826823458774113  0.8269456948689395  0.7814672488084896  1.0000
  C   C14       1.0  0.217316560136986  0.1730513869791253  0.21853125775425042  1.0000
  C   C15       1.0  0.6961988547377942  0.83828410386036  0.6601477989757782  1.0000
  C   C16       1.0  0.30380218084707866  0.1617129869383618  0.3398492952549291  1.0000
  C   C17       1.0  0.6880613884830427  0.016119029813935995  0.9588381493841427  1.0000
  C   C18       1.0  0.31193341324260615  0.9838746923458784  0.04115379444097304  1.0000
  C   C19       1.0  0.5433580992310496  0.9431097125252563  0.9704957501429166  1.0000
  C   C20       1.0  0.4566353329202285  0.05688289040313779  0.02949370547941038  1.0000
  C   C21       1.0  0.5119345894835519  0.07554629917702729  0.5526860044384138  1.0000
  C   C22       1.0  0.48806488488813915  0.9244653508030817  0.4473155632335802  1.0000
  C   C23       1.0  0.6319850509339134  0.18805690556875015  0.5715995235987352  1.0000
  C   C24       1.0  0.36801734847914963  0.8119536271294621  0.4284039461723168  1.0000
  C   C25       1.0  0.7266588183747655  0.15359397821031  0.4912502600595872  1.0000
  C   C26       1.0  0.273341133375645  0.8464154367630669  0.508748722062485  1.0000
  C   C27       1.0  0.7061161320695746  0.0031344641805688  0.3911737043292761  1.0000
  C   C28       1.0  0.29388277263299056  0.9968749383415839  0.6088295914417543  1.0000
  C   C29       1.0  0.5888062945404259  0.891565644059824  0.36863670576249047  1.0000
  C   C30       1.0  0.41118996773815303  0.1084460004701882  0.6313633729245964  1.0000
  C   C31       1.0  0.842476642460646  0.278350083328462  0.5037458874670051  1.0000
  C   C32       1.0  0.15752636653066784  0.7216626788819481  0.4962639710416497  1.0000
  C   C33       1.0  0.3960676795204989  0.47690580498814217  0.1185687631436352  1.0000
  C   C34       1.0  0.603938626297463  0.5230991284508875  0.8814368488510526  1.0000
  C   C35       1.0  0.42599428484011537  0.4927516178081034  0.004554908003335343  1.0000
  C   C36       1.0  0.5740085218330008  0.5072521874488485  0.9954496281205891  1.0000
  C   C37       1.0  0.31474209952833115  0.4972307235834989  0.9005144794561917  1.0000
  C   C38       1.0  0.6852622581774453  0.5027708471541031  0.09948856869327465  1.0000
  C   C39       1.0  0.3466772914869408  0.5122965491374741  0.7903635939723445  1.0000
  C   C40       1.0  0.6533280342793262  0.48770054560475257  0.20963698868947492  1.0000
  C   C41       1.0  0.22438679540040596  0.5136420217592245  0.6816113549224951  1.0000
  C   C42       1.0  0.7756131394435144  0.48636287685194174  0.31840210155121434  1.0000
  C   C43       1.0  0.5075118064008777  0.47656210667476256  0.22025898136998734  1.0000
  C   C44       1.0  0.492494415995381  0.5234383403116425  0.779747576915284  1.0000
  N   N1        1.0  0.7787618167208591  0.9121908129324577  0.9148623550325751  1.0000
  N   N2        1.0  0.22123573302221902  0.08780514370226197  0.0851363689395868  1.0000
  N   N3        1.0  0.870496308320739  0.7356583438716058  0.7776134773498671  1.0000
  N   N4        1.0  0.12950395839932574  0.26433986119582886  0.22238571367417848  1.0000
  O   O1        1.0  0.21562303431569055  0.4332579619669161  0.5547136738365809  1.0000
  O   O2        1.0  0.7843821725540892  0.5667346622744772  0.4452806401499245  1.0000
  O   O3        1.0  0.13928418216411836  0.5946440177415296  0.7270499054525034  1.0000
  O   O4        1.0  0.8607286148362121  0.40535310035210864  0.27294934153017897  1.0000
  O   O5        1.0  0.9183685578582869  0.24420747934586723  0.41863756793659235  1.0000
  O   O6        1.0  0.0816405452358637  0.7557918702983741  0.5813618737403702  1.0000
  O   O7        1.0  0.850434380984254  0.4092860592748834  0.5958040720143316  1.0000
  O   O8        1.0  0.14957209298896143  0.5907155263952927  0.40419485819089107  1.0000
