data_image0
_chemical_formula_structural       ThH60C48O16
_chemical_formula_sum              "Th1 H60 C48 O16"
_cell_length_a       7.478804273854432
_cell_length_b       12.38507663229463
_cell_length_c       12.383478785970265
_cell_angle_alpha    84.77542402005871
_cell_angle_beta     72.4276155018927
_cell_angle_gamma    72.42380420435303

_space_group_name_H-M_alt    "P 1"
_space_group_IT_number       1

loop_
  _space_group_symop_operation_xyz
  'x, y, z'

loop_
  _atom_site_type_symbol
  _atom_site_label
  _atom_site_symmetry_multiplicity
  _atom_site_fract_x
  _atom_site_fract_y
  _atom_site_fract_z
  _atom_site_occupancy
  Th  Th1       1.0  0.21094149468485995  0.9999831718696234  0.9999842795765872  1.0000
  H   H1        1.0  0.34371246807229006  0.6755224388955272  0.0410298322420672  1.0000
  H   H2        1.0  0.06062016291274817  0.3245432651816815  0.9589377221208224  1.0000
  H   H3        1.0  0.019330028979098333  0.04100767261343922  0.3244694905059617  1.0000
  H   H4        1.0  0.3849158459565623  0.9588830245328529  0.675536167910586  1.0000
  H   H5        1.0  0.8964612234183492  0.7956178010901244  0.9479893562264652  1.0000
  H   H6        1.0  0.6402692281184768  0.20445241418639173  0.0521161643002443  1.0000
  H   H7        1.0  0.6922038138283707  0.9479415671094106  0.20429930632587912  1.0000
  H   H8        1.0  0.8445029822163549  0.052008027715771774  0.7956037575614661  1.0000
  H   H9        1.0  0.7806119502091777  0.8758043166771972  0.8496632472855836  1.0000
  H   H10       1.0  0.5062362101164907  0.12422821066879662  0.1503707029974848  1.0000
  H   H11       1.0  0.6565758192349589  0.8495828208395226  0.12409283567841808  1.0000
  H   H12       1.0  0.6303183769660734  0.15029796995718675  0.8758606340480455  1.0000
  H   H13       1.0  0.9245645514072649  0.5845401479562754  0.9734777519600328  1.0000
  H   H14       1.0  0.48302430368176613  0.4153526980522743  0.0265152351800779  1.0000
  H   H15       1.0  0.5092016132436962  0.9734541109337873  0.41540417891603454  1.0000
  H   H16       1.0  0.8980875063775497  0.02651674621758806  0.5846032081078221  1.0000
  H   H17       1.0  0.8311265617113999  0.51866906678125  0.8906795996243703  1.0000
  H   H18       1.0  0.24086444927040407  0.4813342970152378  0.1091648440482587  1.0000
  H   H19       1.0  0.3497622063880142  0.8907137036468529  0.48124523935131697  1.0000
  H   H20       1.0  0.7219382645587232  0.10924779975675854  0.5186889845968211  1.0000
  H   H21       1.0  0.1932107455803307  0.474162962412379  0.8176868576868727  1.0000
  H   H22       1.0  0.4852567228281685  0.5258755546851647  0.1822646192495938  1.0000
  H   H23       1.0  0.6672424017570793  0.8176767596279009  0.525845599671797  1.0000
  H   H24       1.0  0.01086944111600027  0.18228692937105967  0.4741981952310184  1.0000
  H   H25       1.0  0.004286373763733285  0.48647760251559197  0.679480084907695  1.0000
  H   H26       1.0  0.1704125613707601  0.5135825573870464  0.3204289841494018  1.0000
  H   H27       1.0  0.49068950977806475  0.6794880377916926  0.5133944793678326  1.0000
  H   H28       1.0  0.6837449767937044  0.32036057798573847  0.48655689551634407  1.0000
  H   H29       1.0  0.21433898082754133  0.5332511690850058  0.6151681152994898  1.0000
  H   H30       1.0  0.36282536859390996  0.4669093088906991  0.3848145204948353  1.0000
  H   H31       1.0  0.7475415203063207  0.6151698205611996  0.4666835627513777  1.0000
  H   H32       1.0  0.8294065798608231  0.3847890929230077  0.5332194035163625  1.0000
  H   H33       1.0  0.918828790594709  0.66785750691556  0.5732008359807496  1.0000
  H   H34       1.0  0.15989839270839912  0.33230438215990443  0.4268140035022796  1.0000
  H   H35       1.0  0.5867014977135906  0.5732344222006491  0.3319727670441992  1.0000
  H   H36       1.0  0.49201165987356166  0.42675534388632036  0.6679429539858789  1.0000
  H   H37       1.0  0.9515787670806257  0.8444844088845688  0.6366721881183679  1.0000
  H   H38       1.0  0.43279061714443384  0.15563145082063565  0.36347200652982553  1.0000
  H   H39       1.0  0.7963068646402859  0.6366661143393275  0.15537285054958264  1.0000
  H   H40       1.0  0.5883549083782428  0.3633865720524839  0.844568050258566  1.0000
  H   H41       1.0  0.18290738056327152  0.7434403873959213  0.5903513163173103  1.0000
  H   H42       1.0  0.5167021443441938  0.25671288151437477  0.40975642140070084  1.0000
  H   H43       1.0  0.9264075582553204  0.5903739524089177  0.25652567828095846  1.0000
  H   H44       1.0  0.7733840688066207  0.4095876730108969  0.7434066799932921  1.0000
  H   H45       1.0  0.3474835880495134  0.6281370212355742  0.7349314186272053  1.0000
  H   H46       1.0  0.7106375275621204  0.37193957466256233  0.265148255296431  1.0000
  H   H47       1.0  0.9755665377608764  0.7348357362302027  0.3718895193372235  1.0000
  H   H48       1.0  0.0823778273683757  0.2650772966784204  0.6281918340882626  1.0000
  H   H49       1.0  0.22682662797937095  0.65010209574848  0.8818586986354191  1.0000
  H   H50       1.0  0.7590499297325122  0.34988930762458653  0.11820776621309652  1.0000
  H   H51       1.0  0.8770634130996908  0.8818024561171999  0.3499487968189073  1.0000
  H   H52       1.0  0.10884737002471208  0.11812680047867735  0.6501117349255737  1.0000
  H   H53       1.0  0.6669065220666678  0.6332496580278645  0.7478503312155526  1.0000
  H   H54       1.0  0.04822252011680911  0.3668410084945109  0.2520815020304212  1.0000
  H   H55       1.0  0.30018908961309165  0.7479263075605903  0.3667006156570523  1.0000
  H   H56       1.0  0.41476087077857215  0.25210067760266247  0.6333099866191462  1.0000
  H   H57       1.0  0.6464168851949095  0.7797961749273202  0.7292010204164117  1.0000
  H   H58       1.0  0.15562564587910543  0.2202824751042273  0.2707790176695681  1.0000
  H   H59       1.0  0.4262033708978661  0.7292539076488683  0.22009131177518532  1.0000
  H   H60       1.0  0.3756258400696454  0.2707487050513465  0.7798895641348055  1.0000
  C   C1        1.0  0.0734857385012617  0.7650609242766111  0.7730739316284526  1.0000
  C   C2        1.0  0.6117035091717824  0.2349895591567234  0.2270106599630992  1.0000
  C   C3        1.0  0.8386062645741744  0.7730802437089256  0.23490951492463102  1.0000
  C   C4        1.0  0.8465422094897049  0.2268850591713162  0.7651513245683148  1.0000
  C   C5        1.0  0.87419232339333  0.792119556416971  0.8648334604148433  1.0000
  C   C6        1.0  0.5312917968114305  0.20791730289625585  0.13523573312865272  1.0000
  C   C7        1.0  0.6663997485247177  0.8648033232091451  0.2077956672173826  1.0000
  C   C8        1.0  0.739023243315806  0.13514089519608774  0.7921490006411602  1.0000
  C   C9        1.0  0.7727835723311429  0.7009655597510974  0.8653284121733833  1.0000
  C   C10       1.0  0.33930653115793025  0.29906671049270994  0.13466586258191174  1.0000
  C   C11       1.0  0.4737981966658819  0.8653283972412  0.2989241425488274  1.0000
  C   C12       1.0  0.6381519265969047  0.13463200866099362  0.700997277281843  1.0000
  C   C13       1.0  0.9027571872689037  0.5841979910003662  0.8894513035886789  1.0000
  C   C14       1.0  0.3767443045638856  0.41578221833403733  0.11051220021077773  1.0000
  C   C15       1.0  0.48697318004495543  0.8894572740392026  0.4157172874868423  1.0000
  C   C16       1.0  0.792284064431868  0.11053412665335569  0.5842411301706179  1.0000
  C   C17       1.0  0.10178864145707675  0.5569354502692364  0.7982194754854818  1.0000
  C   C18       1.0  0.45719685506075064  0.44308050931645243  0.2017619649668845  1.0000
  C   C19       1.0  0.6587168791365483  0.798224027632742  0.4430132788740977  1.0000
  C   C20       1.0  0.900054932351651  0.20176164368498933  0.5570206456544967  1.0000
  C   C21       1.0  0.07196616511620123  0.5536066949388359  0.681362238255133  1.0000
  C   C22       1.0  0.30711528983834996  0.44645690359795515  0.3186167049657413  1.0000
  C   C23       1.0  0.6255665262233449  0.6813582174181722  0.4462928593425559  1.0000
  C   C24       1.0  0.7532836057321431  0.3185824804974757  0.5536868904212042  1.0000
  C   C25       1.0  0.9416769596381086  0.6695485807285311  0.6566564773331224  1.0000
  C   C26       1.0  0.26798651931282064  0.33054283340602814  0.34338366436227835  1.0000
  C   C27       1.0  0.6112765165769214  0.6566653075285489  0.330307751815063  1.0000
  C   C28       1.0  0.5982970985464605  0.343308468288271  0.6696536032818514  1.0000
  C   C29       1.0  0.04163056381523904  0.7611386426040814  0.6565825462744216  1.0000
  C   C30       1.0  0.4594601278761417  0.23895587593561637  0.3435121757172652  1.0000
  C   C31       1.0  0.8029080509023387  0.6566011294595173  0.2387506769484773  1.0000
  C   C32       1.0  0.6982844016462904  0.3433905431144171  0.7612135645485126  1.0000
  C   C33       1.0  0.20293929227973667  0.6475173385898858  0.7989273074607156  1.0000
  C   C34       1.0  0.6495858365988524  0.35250558969157464  0.20111634872283451  1.0000
  C   C35       1.0  0.8505097992148547  0.7989096407191172  0.3524761217295662  1.0000
  C   C36       1.0  0.001947765471094099  0.20103572610980086  0.6475912455611947  1.0000
  C   C37       1.0  0.7417999916084597  0.6974635537674844  0.7470921242382786  1.0000
  C   C38       1.0  0.1865585251697298  0.30261387607462353  0.252880099463809  1.0000
  C   C39       1.0  0.439280393894499  0.747127018218976  0.3024306176715115  1.0000
  C   C40       1.0  0.488898145327532  0.2528567402321046  0.6975390550047395  1.0000
  C   C41       1.0  0.18007898523290317  0.8512091586753173  0.7768081105397259  1.0000
  C   C42       1.0  0.8080824619277178  0.14870215000954096  0.22321857935683204  1.0000
  C   C43       1.0  0.03134342558858079  0.776836520853813  0.14875023273791046  1.0000
  C   C44       1.0  0.9568010964659877  0.2231591446511701  0.8513408394082802  1.0000
  C   C45       1.0  0.5718098358144842  0.7303838496351676  0.950553863875193  1.0000
  C   C46       1.0  0.2530150098766128  0.2696313648331029  0.0494011818780749  1.0000
  C   C47       1.0  0.30230446719919235  0.9505895448757614  0.2695041573222667  1.0000
  C   C48       1.0  0.5224287220764694  0.049394349401815425  0.7304415668722158  1.0000
  O   O1        1.0  0.17203723898568782  0.8817019630917218  0.8747202874947675  1.0000
  O   O2        1.0  0.928346100173364  0.11819740570754791  0.12531696038305992  1.0000
  O   O3        1.0  0.05379847367041157  0.8747119183456962  0.118302161802248  1.0000
  O   O4        1.0  0.046867249387482074  0.12523599811765254  0.8816826045428883  1.0000
  O   O5        1.0  0.2763679265419083  0.884762781051862  0.6841504102525704  1.0000
  O   O6        1.0  0.84519937949932  0.11500618159817586  0.31588552864929653  1.0000
  O   O7        1.0  0.16111959043017507  0.68415845047344  0.11513564885409981  1.0000
  O   O8        1.0  0.9601962155041406  0.31578868822204953  0.8850527688914696  1.0000
  O   O9        1.0  0.4852994687066071  0.8305403314424996  0.9853421049636495  1.0000
  O   O10       1.0  0.30094577090447666  0.16943192866641257  0.0148180560264777  1.0000
  O   O11       1.0  0.3158594542125354  0.9854022058861394  0.16938408183504094  1.0000
  O   O12       1.0  0.4706544505324928  0.014637569607039283  0.8306058293509438  1.0000
  O   O13       1.0  0.49318269731323  0.6484708760165676  0.9831764040349144  1.0000
  O   O14       1.0  0.12542329016353895  0.35161527199676373  0.0165893027821866  1.0000
  O   O15       1.0  0.14179221866023534  0.9832530201927911  0.35149480956777523  1.0000
  O   O16       1.0  0.4764168746181312  0.016763038392845424  0.6485148388915434  1.0000
