data_image0
_chemical_formula_structural       Cu4H52C28S4N8
_chemical_formula_sum              "Cu4 H52 C28 S4 N8"
_cell_length_a       6.416012448000498
_cell_length_b       11.338865202123444
_cell_length_c       12.494956346348486
_cell_angle_alpha    107.48118382137497
_cell_angle_beta     89.99996173346449
_cell_angle_gamma    90.00003535256675

_space_group_name_H-M_alt    "P 1"
_space_group_IT_number       1

loop_
  _space_group_symop_operation_xyz
  'x, y, z'

loop_
  _atom_site_type_symbol
  _atom_site_label
  _atom_site_symmetry_multiplicity
  _atom_site_fract_x
  _atom_site_fract_y
  _atom_site_fract_z
  _atom_site_occupancy
  Cu  Cu1       1.0  0.3182241398157117  0.5356161077615553  0.4684853430625396  1.0000
  Cu  Cu2       1.0  0.818231167832721  0.9643756288876801  0.5315150555175663  1.0000
  Cu  Cu3       1.0  0.6817676176769822  0.4643773212944638  0.5315159603647075  1.0000
  Cu  Cu4       1.0  0.18177617566370693  0.03561410962954171  0.4684844144680937  1.0000
  H   H1        1.0  0.04590074176542201  0.3674609285309742  0.3940483297935416  1.0000
  H   H2        1.0  0.5459166460966786  0.13253414495275  0.6059555132910434  1.0000
  H   H3        1.0  0.9540894571301666  0.632537146976304  0.6059518732535666  1.0000
  H   H4        1.0  0.45409069740119895  0.8674592919346865  0.39404499197409143  1.0000
  H   H5        1.0  0.0161845644572054  0.473578790764904  0.33400632733228963  1.0000
  H   H6        1.0  0.5161878015798679  0.0264171924108325  0.6659985811530121  1.0000
  H   H7        1.0  0.9838103102386029  0.5264201858468098  0.6659965290137251  1.0000
  H   H8        1.0  0.4838226591181326  0.9735780701734033  0.3340048362311309  1.0000
  H   H9        1.0  0.3117201820700403  0.38855973234100105  0.208986543200588  1.0000
  H   H10       1.0  0.8117295908099678  0.11144375703155159  0.7910163613124865  1.0000
  H   H11       1.0  0.6882715754294397  0.6114457477364539  0.7910149322453465  1.0000
  H   H12       1.0  0.18828554569543607  0.8885589492710295  0.20898433767052893  1.0000
  H   H13       1.0  0.9444917278897051  0.3494187138792526  0.14607972005752862  1.0000
  H   H14       1.0  0.44449836521307884  0.1505801997756322  0.8539202564201177  1.0000
  H   H15       1.0  0.0555031468104445  0.650582166724476  0.8539180668089159  1.0000
  H   H16       1.0  0.5555136540862692  0.8494159952309064  0.14608262162376923  1.0000
  H   H17       1.0  0.9283226979801213  0.22653947400893767  0.2059085097819704  1.0000
  H   H18       1.0  0.4283279940251036  0.2734557530880721  0.7940888396775778  1.0000
  H   H19       1.0  0.07167373531991221  0.7734586406468721  0.7940877024647435  1.0000
  H   H20       1.0  0.5716715564705909  0.7265367670354339  0.20591060860889607  1.0000
  H   H21       1.0  0.993670223275146  0.14265344645403394  0.0005416953787787058  1.0000
  H   H22       1.0  0.49367223512170727  0.3573482761661921  0.9994566491462322  1.0000
  H   H23       1.0  0.006329327226247001  0.8573483509132486  0.9994571484667746  1.0000
  H   H24       1.0  0.506331991178243  0.6426488825797634  0.0005424969191168255  1.0000
  H   H25       1.0  0.21652869747135386  0.23682399359873332  0.012540547866180408  1.0000
  H   H26       1.0  0.7165302353212442  0.2631785876820842  0.9874581339981674  1.0000
  H   H27       1.0  0.7834708530307142  0.7631768948351122  0.9874564408397009  1.0000
  H   H28       1.0  0.2834833425857469  0.736824149938535  0.012539372345457926  1.0000
  H   H29       1.0  0.3193650384325153  0.022428849108962402  0.004950636380947101  1.0000
  H   H30       1.0  0.8193699292302555  0.4775718761336521  0.9950506913473236  1.0000
  H   H31       1.0  0.6806313948655218  0.9775719923471586  0.9950511412847832  1.0000
  H   H32       1.0  0.18062494547201172  0.5224317939068541  0.004946275658916494  1.0000
  H   H33       1.0  0.15673903700569267  0.029981306065977296  0.12110131298818773  1.0000
  H   H34       1.0  0.656747185132659  0.470023102347227  0.8788987016143965  1.0000
  H   H35       1.0  0.8432558376952387  0.9700241818414032  0.8788993642973965  1.0000
  H   H36       1.0  0.3432430137674772  0.5299787185076141  0.12109774775277767  1.0000
  H   H37       1.0  0.5238081322575283  0.07098977795418193  0.18588891146106332  1.0000
  H   H38       1.0  0.02381202215885741  0.42901274964918196  0.8141106231642112  1.0000
  H   H39       1.0  0.47619297684418177  0.9290129361762781  0.8141109893640391  1.0000
  H   H40       1.0  0.9761766181436046  0.5709909517088222  0.18588315120330637  1.0000
  H   H41       1.0  0.5414204257580623  0.19232562036318512  0.12537036722312683  1.0000
  H   H42       1.0  0.041428775023682404  0.3076787762748907  0.8746280837315581  1.0000
  H   H43       1.0  0.45857289034286464  0.8076771172550251  0.8746271391233762  1.0000
  H   H44       1.0  0.9585738926837666  0.6923295323884278  0.12536858105312385  1.0000
  H   H45       1.0  0.24741837421132837  0.18208178652037083  0.3163744506081017  1.0000
  H   H46       1.0  0.7474156880996858  0.3179207238130105  0.6836322041042351  1.0000
  H   H47       1.0  0.7525874106904525  0.8179227454775314  0.6836291604956842  1.0000
  H   H48       1.0  0.2525729521957986  0.6820782762866315  0.3163682577629601  1.0000
  H   H49       1.0  0.47055857216599867  0.2765834900601121  0.33082526479670094  1.0000
  H   H50       1.0  0.970557354970332  0.2234200762465761  0.6691736039164696  1.0000
  H   H51       1.0  0.5294456541396501  0.7234229459296131  0.6691732768277279  1.0000
  H   H52       1.0  0.029437519731935414  0.7765835937939302  0.3308233630897704  1.0000
  C   C1        1.0  0.6874021561555709  0.6916902803138641  0.4258705818385664  1.0000
  C   C2        1.0  0.18741400824184506  0.8083097387168506  0.5741329813438938  1.0000
  C   C3        1.0  0.31258648413609086  0.30830682362332595  0.5741341513482965  1.0000
  C   C4        1.0  0.812602686859627  0.1916883054753455  0.425870414339066  1.0000
  C   C5        1.0  0.21125585689733845  0.3332257966062713  0.24735267186692772  1.0000
  C   C6        1.0  0.7112653781311453  0.1667748794290773  0.7526510809697627  1.0000
  C   C7        1.0  0.788739017802712  0.6667787588790048  0.7526485447586994  1.0000
  C   C8        1.0  0.288743523971661  0.833225977687647  0.24734910037440022  1.0000
  C   C9        1.0  0.03567953410570371  0.2757727531324932  0.1649920365487887  1.0000
  C   C10       1.0  0.535682781227756  0.22422698785821643  0.8350083145733864  1.0000
  C   C11       1.0  0.9643200163951777  0.7242290364052267  0.8350076054566671  1.0000
  C   C12       1.0  0.4643245622708463  0.775768298214324  0.16499270833148943  1.0000
  C   C13       1.0  0.12198549363743183  0.18540039568359393  0.05727000546563234  1.0000
  C   C14       1.0  0.6219871476537122  0.3145984412465381  0.9427300623847971  1.0000
  C   C15       1.0  0.8780140568630799  0.8146004692615776  0.9427293777199497  1.0000
  C   C16       1.0  0.3780139614456602  0.6853996420915963  0.0572693425008666  1.0000
  C   C17       1.0  0.2564287378684753  0.0858271848242396  0.08300174608366011  1.0000
  C   C18       1.0  0.7564336560525433  0.414175390290076  0.9169985207955804  1.0000
  C   C19       1.0  0.743567695429924  0.9141745812244436  0.917000290401937  1.0000
  C   C20       1.0  0.24356433584858916  0.5858282484325701  0.08300163884982946  1.0000
  C   C21       1.0  0.43190219312649714  0.14323942736056952  0.16517408236408931  1.0000
  C   C22       1.0  0.9319040336258058  0.35675949895780695  0.8348243013612875  1.0000
  C   C23       1.0  0.5681004745766529  0.8567605443106459  0.8348218493615748  1.0000
  C   C24       1.0  0.06809239967743962  0.6432441789124398  0.16517186748483684  1.0000
  C   C25       1.0  0.3446891281760856  0.2334306179584047  0.2726509143855651  1.0000
  C   C26       1.0  0.8446910030744307  0.2665701367971209  0.7273480116886477  1.0000
  C   C27       1.0  0.6553119809271666  0.7665721196607368  0.7273465919598295  1.0000
  C   C28       1.0  0.15530854742587516  0.7334288867924954  0.27265005569729794  1.0000
  S   S1        1.0  0.6338641779623729  0.5436981092104389  0.3749952039540076  1.0000
  S   S2        1.0  0.13386989992092424  0.9562917109056674  0.6250071236988861  1.0000
  S   S3        1.0  0.3661275795271095  0.45628975663113636  0.6250061428738292  1.0000
  S   S4        1.0  0.8661358849747888  0.04370261925590311  0.37499683302594633  1.0000
  N   N1        1.0  0.721978187751688  0.7989666995727233  0.46113541004911707  1.0000
  N   N2        1.0  0.22199152077926956  0.7010296136544696  0.5388687043774213  1.0000
  N   N3        1.0  0.2780135697394641  0.20102670599462166  0.5388682878578308  1.0000
  N   N4        1.0  0.7780251743224728  0.2989730300118296  0.46113837988458783  1.0000
  N   N5        1.0  0.12857364184151981  0.418752243942663  0.353257991461426  1.0000
  N   N6        1.0  0.6285878766091315  0.08125218125940849  0.6467396366403763  1.0000
  N   N7        1.0  0.8714149984574818  0.5812504858454374  0.6467403130456405  1.0000
  N   N8        1.0  0.3714225840907731  0.9187440294060565  0.35326164508392566  1.0000
