data_image0
_chemical_formula_structural       Ba2H12C12S4O18
_chemical_formula_sum              "Ba2 H12 C12 S4 O18"
_cell_length_a       7.236318767372566
_cell_length_b       8.668727829699048
_cell_length_c       9.079710640056728
_cell_angle_alpha    81.91041029223119
_cell_angle_beta     95.31182466102247
_cell_angle_gamma    85.36100447114329

_space_group_name_H-M_alt    "P 1"
_space_group_IT_number       1

loop_
  _space_group_symop_operation_xyz
  'x, y, z'

loop_
  _atom_site_type_symbol
  _atom_site_label
  _atom_site_symmetry_multiplicity
  _atom_site_fract_x
  _atom_site_fract_y
  _atom_site_fract_z
  _atom_site_occupancy
  Ba  Ba1       1.0  0.2733456970218384  0.22362114544305456  0.42525930354082647  1.0000
  Ba  Ba2       1.0  0.7266574779809009  0.7763749445229988  0.5747419058246661  1.0000
  H   H1        1.0  0.2526659963308049  0.2663895417290972  0.019638925222750504  1.0000
  H   H2        1.0  0.7473329365553453  0.7336100208581938  0.9803661132842261  1.0000
  H   H3        1.0  0.09770846429941568  0.8797314837454379  0.35454829730483056  1.0000
  H   H4        1.0  0.9022924265897958  0.1202610817782528  0.645454420203151  1.0000
  H   H5        1.0  0.5884337726113742  0.38936642539630373  0.6498242577550284  1.0000
  H   H6        1.0  0.4115713108373454  0.6106343824752399  0.35017196413878776  1.0000
  H   H7        1.0  0.3955177904316685  0.45158743159910836  0.6847082788404675  1.0000
  H   H8        1.0  0.604487533204299  0.5484133532697796  0.3152912624809331  1.0000
  H   H9        1.0  0.1351679753661443  0.6435291287573431  0.9359674743610708  1.0000
  H   H10       1.0  0.8648347685511409  0.35646931746478566  0.06403120224952367  1.0000
  H   H11       1.0  0.3449413424876155  0.0963388945684756  0.8407948694769014  1.0000
  H   H12       1.0  0.6550485210839271  0.903666511808808  0.15920802893189995  1.0000
  C   C1        1.0  0.14054989526059103  0.7850473402453345  0.11379620140764499  1.0000
  C   C2        1.0  0.8594482370014161  0.21495229901750426  0.8861977723407362  1.0000
  C   C3        1.0  0.1722237931257524  0.7530654461486392  0.9714047120797669  1.0000
  C   C4        1.0  0.8277772698779556  0.24693418317242075  0.02859155265845459  1.0000
  C   C5        1.0  0.25026093344635575  0.8640796611756797  0.8763640052481914  1.0000
  C   C6        1.0  0.7497356965425583  0.13592577402004477  0.12363687530420005  1.0000
  C   C7        1.0  0.28959411479463165  0.0083017667921865  0.9181204975191402  1.0000
  C   C8        1.0  0.710396918542628  0.9917048204098006  0.08188117353127208  1.0000
  C   C9        1.0  0.2548720983141166  0.04023777238398909  0.05962724289435778  1.0000
  C   C10       1.0  0.7451252337208628  0.9597629656346812  0.9403764902161096  1.0000
  C   C11       1.0  0.18992327682893526  0.9245726553523635  0.16237679271162617  1.0000
  C   C12       1.0  0.8100717464479955  0.07542340309857562  0.837626395491213  1.0000
  S   S1        1.0  0.02434381280583151  0.6494199492934952  0.22843718154405213  1.0000
  S   S2        1.0  0.975657496513982  0.350576183981218  0.7715573499472154  1.0000
  S   S3        1.0  0.2863027205605916  0.8221729199350278  0.6951927813530073  1.0000
  S   S4        1.0  0.7137011069311398  0.17783018782306206  0.3048086140978723  1.0000
  O   O1        1.0  0.168044059428432  0.5238814287713964  0.2995178517409584  1.0000
  O   O2        1.0  0.8319573853716945  0.4761135340428239  0.7004768396518981  1.0000
  O   O3        1.0  0.9477913193260576  0.7384096534705761  0.3402110476000215  1.0000
  O   O4        1.0  0.05220531093089417  0.26158175650529364  0.6597883933247882  1.0000
  O   O5        1.0  0.8789708630496235  0.5946777233836612  0.13065507981770705  1.0000
  O   O6        1.0  0.12103332159399827  0.40531956274220693  0.869342689237676  1.0000
  O   O7        1.0  0.40507082347733103  0.6733745240954859  0.7112961771814239  1.0000
  O   O8        1.0  0.5949277583857864  0.32662738708033595  0.28870743504651836  1.0000
  O   O9        1.0  0.10155294441180018  0.8148391371299581  0.6168162223073919  1.0000
  O   O10       1.0  0.8984502918696505  0.18516634221931838  0.3831804274368763  1.0000
  O   O11       1.0  0.38404639767916393  0.9526185036617317  0.6245404833174956  1.0000
  O   O12       1.0  0.6159604960345887  0.04738342369409309  0.37546336302482064  1.0000
  O   O13       1.0  0.2807495410087241  0.1813200930775523  0.10650386911904516  1.0000
  O   O14       1.0  0.7192449957648606  0.818679484422404  0.8934977329031635  1.0000
  O   O15       1.0  0.1746064558035059  0.9569137728230003  0.30251540198268856  1.0000
  O   O16       1.0  0.8253898419460698  0.043084613910472996  0.69748971838775  1.0000
  O   O17       1.0  0.4587343614326045  0.36355652569174873  0.6458541899241792  1.0000
  O   O18       1.0  0.5412692812897787  0.6364454422760629  0.3541429395248555  1.0000
