data_image0
_chemical_formula_structural       Co2H24C10N2O16
_chemical_formula_sum              "Co2 H24 C10 N2 O16"
_cell_length_a       7.111473765268198
_cell_length_b       7.2189347115689655
_cell_length_c       9.573513096291565
_cell_angle_alpha    88.76110802304049
_cell_angle_beta     96.41856824767693
_cell_angle_gamma    111.16064605294211

_space_group_name_H-M_alt    "P 1"
_space_group_IT_number       1

loop_
  _space_group_symop_operation_xyz
  'x, y, z'

loop_
  _atom_site_type_symbol
  _atom_site_label
  _atom_site_symmetry_multiplicity
  _atom_site_fract_x
  _atom_site_fract_y
  _atom_site_fract_z
  _atom_site_occupancy
  Co  Co1       1.0  0.24870801521485927  0.291570474963116  0.2797596226502961  1.0000
  Co  Co2       1.0  0.7512885809763005  0.708425153686285  0.7202473981786925  1.0000
  H   H1        1.0  0.7307329695016448  0.06811152531229678  0.2519108044232255  1.0000
  H   H2        1.0  0.2692591660347219  0.9318842137533776  0.748082310312903  1.0000
  H   H3        1.0  0.4616443455802681  0.9603860227802058  0.25871255790728753  1.0000
  H   H4        1.0  0.5383516743901849  0.039620090641662394  0.7412838852524718  1.0000
  H   H5        1.0  0.9860898684102679  0.27556465291694815  0.4713723318840054  1.0000
  H   H6        1.0  0.0139099557963362  0.7244325375375594  0.5286255084845665  1.0000
  H   H7        1.0  0.18738175178404504  0.2648523675648491  0.5483477614860564  1.0000
  H   H8        1.0  0.812616085434435  0.7351507319563453  0.451654062808288  1.0000
  H   H9        1.0  0.42933408992318084  0.639380874500084  0.3915888714589003  1.0000
  H   H10       1.0  0.5706682281446477  0.3606192957177682  0.6084080803359557  1.0000
  H   H11       1.0  0.2687696238706819  0.6362516973020643  0.2587249102799661  1.0000
  H   H12       1.0  0.7312293907933451  0.36373956729193674  0.7412708322129122  1.0000
  H   H13       1.0  0.03689547209251039  0.8805948406182297  0.23517688338923656  1.0000
  H   H14       1.0  0.9631116550339911  0.11940680657182406  0.7648214503481443  1.0000
  H   H15       1.0  0.1368950757296331  0.942915521563364  0.3859906566131813  1.0000
  H   H16       1.0  0.8631071135229292  0.05708014067368339  0.6140125921156356  1.0000
  H   H17       1.0  0.6590126011488167  0.5028146387330777  0.217527188220835  1.0000
  H   H18       1.0  0.3409991320639207  0.4971913975460678  0.782479800623449  1.0000
  H   H19       1.0  0.6729493470638275  0.4887652674219396  0.03492635771455352  1.0000
  H   H20       1.0  0.32706770977317495  0.5112437484634995  0.965079948401922  1.0000
  H   H21       1.0  0.7305020695352056  0.12130595244975946  0.005302776058940113  1.0000
  H   H22       1.0  0.269490415636234  0.8787061379208222  0.9946891805196434  1.0000
  H   H23       1.0  0.531880008700206  0.19433864051741515  0.917646758953957  1.0000
  H   H24       1.0  0.46811140641520405  0.8056778477317933  0.08235239509169653  1.0000
  C   C1        1.0  0.5933130017558667  0.09929859240660478  0.2619474205240807  1.0000
  C   C2        1.0  0.40668409238471526  0.9006985473523271  0.7380564896865709  1.0000
  C   C3        1.0  0.6114219855172961  0.19647628019450275  0.4046036697550265  1.0000
  C   C4        1.0  0.38857617098682345  0.8035238478817347  0.5953982030109517  1.0000
  C   C5        1.0  0.7033690724055361  0.42611457490902177  0.13686679951936045  1.0000
  C   C6        1.0  0.2966249468435436  0.5738781163542299  0.8631358801433539  1.0000
  C   C7        1.0  0.9300465802824363  0.4610199854397762  0.16542091678729076  1.0000
  C   C8        1.0  0.06994836359123009  0.5389638084394832  0.8345798163943174  1.0000
  C   C9        1.0  0.5718036608482605  0.10803816663262468  0.003609740666171014  1.0000
  C   C10       1.0  0.42818751683117995  0.8919664867679131  0.996383228655056  1.0000
  N   N1        1.0  0.5560399844645048  0.21273556046474337  0.13420030033089608  1.0000
  N   N2        1.0  0.443953927395043  0.7872645678470673  0.865801263666214  1.0000
  O   O1        1.0  0.488078181066939  0.279760467110833  0.4287907806554899  1.0000
  O   O2        1.0  0.5119207760560798  0.7202382091054175  0.5712069840157811  1.0000
  O   O3        1.0  0.7437255632481055  0.17691894802618444  0.49729561251493254  1.0000
  O   O4        1.0  0.2562782604746019  0.8230737935400184  0.502701511920485  1.0000
  O   O5        1.0  0.9858893233123567  0.31282728194514675  0.16763738911406997  1.0000
  O   O6        1.0  0.014104264451980035  0.6871638643068251  0.8323725849589824  1.0000
  O   O7        1.0  0.04585211648770842  0.6414393479829669  0.18580664072165837  1.0000
  O   O8        1.0  0.9541612540780805  0.3585444279245919  0.8141975223543912  1.0000
  O   O9        1.0  0.3551454067913297  0.21599207453442654  0.12168700741827372  1.0000
  O   O10       1.0  0.6448627085415309  0.7840199810706208  0.8783102651048299  1.0000
  O   O11       1.0  0.1366239431855973  0.33122618158360956  0.47160107028523174  1.0000
  O   O12       1.0  0.863375047169761  0.668772477681763  0.528398786282047  1.0000
  O   O13       1.0  0.39247806985352435  0.6019042464650821  0.28978543931611983  1.0000
  O   O14       1.0  0.6075256298634812  0.39809594062512577  0.7102095235056896  1.0000
  O   O15       1.0  0.055782555248214336  0.9823916854467496  0.3086068067536517  1.0000
  O   O16       1.0  0.9442218827371106  0.01760250790091789  0.6913945286994194  1.0000
