data_image0
_chemical_formula_structural       Ca2H48C68N8O16
_chemical_formula_sum              "Ca2 H48 C68 N8 O16"
_cell_length_a       7.96609350690014
_cell_length_b       10.638028841236979
_cell_length_c       17.9955
_cell_angle_alpha    73.50297391348543
_cell_angle_beta     79.93968004669642
_cell_angle_gamma    85.07388734001927

_space_group_name_H-M_alt    "P 1"
_space_group_IT_number       1

loop_
  _space_group_symop_operation_xyz
  'x, y, z'

loop_
  _atom_site_type_symbol
  _atom_site_label
  _atom_site_symmetry_multiplicity
  _atom_site_fract_x
  _atom_site_fract_y
  _atom_site_fract_z
  _atom_site_occupancy
  Ca  Ca1       1.0  0.23024755697133512  0.4219392875878398  0.4858508563101934  1.0000
  Ca  Ca2       1.0  0.7697550996736736  0.578061680469304  0.5141493314472925  1.0000
  H   H1        1.0  0.6126320378877568  0.2874041667345537  0.5432479193838302  1.0000
  H   H2        1.0  0.38737071677985574  0.712594839110892  0.4567537015715004  1.0000
  H   H3        1.0  0.8495518517576884  0.1268324588211485  0.519827802476449  1.0000
  H   H4        1.0  0.15045217783307413  0.8731665470242902  0.48017316419714706  1.0000
  H   H5        1.0  0.825539164380892  0.9913839153723528  0.4270217434336844  1.0000
  H   H6        1.0  0.1744597655172555  0.0086150904730857  0.5729790618944577  1.0000
  H   H7        1.0  0.6618967826993014  0.9392106684553809  0.3360136723192682  1.0000
  H   H8        1.0  0.3381008232643836  0.060789318495906686  0.6639870706916895  1.0000
  H   H9        1.0  0.403446383547049  0.9794683848182402  0.2689200280910669  1.0000
  H   H10       1.0  0.5965499474934861  0.0205316021330546  0.7310830362850567  1.0000
  H   H11       1.0  0.12978062436831553  0.1000983055013478  0.24643842232089241  1.0000
  H   H12       1.0  0.8702220812879987  0.899901681449947  0.7535630377299896  1.0000
  H   H13       1.0  0.9095711408845377  0.2709824170091721  0.2753954001151299  1.0000
  H   H14       1.0  0.09043024083731409  0.7290185510479715  0.7246048862296064  1.0000
  H   H15       1.0  0.9517876859633817  0.386849055739475  0.37427842262931676  1.0000
  H   H16       1.0  0.04821237182402174  0.6131528934235176  0.6257218013982352  1.0000
  H   H17       1.0  0.8967992394265067  0.3756909389019398  0.7168433039289681  1.0000
  H   H18       1.0  0.10320351524110552  0.6243080669435059  0.2831572056374085  1.0000
  H   H19       1.0  0.7735568109696163  0.25363646557264014  0.7079630307306104  1.0000
  H   H20       1.0  0.22644461976354086  0.7463635213786545  0.2920379722130519  1.0000
  H   H21       1.0  0.0096581846065362  0.0836461414946044  0.7469844676205708  1.0000
  H   H22       1.0  0.9903432951379187  0.9163528643508414  0.2530150291441018  1.0000
  H   H23       1.0  0.1319929376350188  0.20853208630839498  0.7561031157380995  1.0000
  H   H24       1.0  0.8680073652088824  0.7914649573253455  0.24389680142271428  1.0000
  H   H25       1.0  0.9777039233027696  0.2354644230099936  0.05464206632132828  1.0000
  H   H26       1.0  0.022301283188554115  0.7645365450471431  0.9453557014837202  1.0000
  H   H27       1.0  0.7961292175235002  0.0982136011625698  0.1706812605887862  1.0000
  H   H28       1.0  0.2038798627485932  0.9017863857887248  0.8293174837478999  1.0000
  H   H29       1.0  0.61468541587319  0.9300167255305141  0.15643214561295335  1.0000
  H   H30       1.0  0.3853223894757463  0.0699832614207807  0.8435678086999445  1.0000
  H   H31       1.0  0.6068249661347238  0.8998359473579639  0.02492534540436964  1.0000
  H   H32       1.0  0.3931750916526795  0.1001660018050288  0.9750748786231824  1.0000
  H   H33       1.0  0.6362503207475214  0.6605707202831965  0.24986788682870303  1.0000
  H   H34       1.0  0.36374605930431153  0.3394282855622492  0.7501314485905154  1.0000
  H   H35       1.0  0.7903209824978106  0.530334805266719  0.2674418984605111  1.0000
  H   H36       1.0  0.20967672148847782  0.46966321947287065  0.7325558321924532  1.0000
  H   H37       1.0  0.5759091917360238  0.3725170614756266  0.2660752912616431  1.0000
  H   H38       1.0  0.4240833145350393  0.6274829254756682  0.7339241790148918  1.0000
  H   H39       1.0  0.4134487343687212  0.500089274108042  0.2600642522150522  1.0000
  H   H40       1.0  0.5865475476605084  0.4999116939491017  0.7399347613952756  1.0000
  H   H41       1.0  0.46179377438639346  0.7824328968657994  0.9551914759200529  1.0000
  H   H42       1.0  0.5382025076428363  0.2175680711913444  0.04480698199579789  1.0000
  H   H43       1.0  0.6301888416953787  0.7438823046827849  0.8329011129572165  1.0000
  H   H44       1.0  0.36980131077457673  0.2561137578451067  0.1670975310281761  1.0000
  H   H45       1.0  0.8563099979856761  0.5670291451806264  0.8394396245556095  1.0000
  H   H46       1.0  0.1436814294074296  0.4329669173472652  0.16056003223148707  1.0000
  H   H47       1.0  0.9171814045241008  0.42410556930570914  0.9674389814174659  1.0000
  H   H48       1.0  0.0828161034169881  0.5758963798572836  0.0325625511735552  1.0000
  C   C1        1.0  0.6060154872338401  0.2280354895101411  0.5033290629728526  1.0000
  C   C2        1.0  0.3939872674337722  0.7719635163352975  0.49667255798247817  1.0000
  C   C3        1.0  0.7393756082471229  0.1374480241233726  0.4898224429210316  1.0000
  C   C4        1.0  0.26062587149733213  0.862550981722066  0.5101787209270796  1.0000
  C   C5        1.0  0.7271910830844208  0.0644586543767147  0.4386854486094833  1.0000
  C   C6        1.0  0.2728102496261329  0.9355432947862781  0.5613146768308114  1.0000
  C   C7        1.0  0.5824069741991877  0.0839061345449821  0.4004118572181525  1.0000
  C   C8        1.0  0.4175920047102508  0.9160918901946076  0.5995902204033925  1.0000
  C   C9        1.0  0.4538541712987154  0.17746242623530858  0.41788124664000037  1.0000
  C   C10       1.0  0.5461473084457398  0.82253657961013  0.582120472902588  1.0000
  C   C11       1.0  0.5621395185959273  0.0122677475544322  0.3462533717398699  1.0000
  C   C12       1.0  0.4378581853903611  0.9877302771851575  0.6537488044689255  1.0000
  C   C13       1.0  0.42052333367026756  0.0330985869718816  0.3103399680483747  1.0000
  C   C14       1.0  0.5794731444041619  0.9668984566618589  0.6896635790410884  1.0000
  C   C15       1.0  0.3041081803609487  0.19974039678221797  0.3796490153202967  1.0000
  C   C16       1.0  0.695891975449051  0.8002595901690696  0.6203531975995773  1.0000
  C   C17       1.0  0.28879313512067034  0.1269413615705517  0.3260587035106255  1.0000
  C   C18       1.0  0.7112032449311627  0.873057644274887  0.6739445217699468  1.0000
  C   C19       1.0  0.14199976142315052  0.152922025597185  0.2889187477825103  1.0000
  C   C20       1.0  0.8579978445405418  0.8470779613541026  0.7110831066173944  1.0000
  C   C21       1.0  0.0212254682936504  0.24678049788946047  0.304964610801683  1.0000
  C   C22       1.0  0.9787746875163494  0.7532194890618271  0.6950359350347526  1.0000
  C   C23       1.0  0.046506730235769615  0.3134260372069022  0.3592178739584995  1.0000
  C   C24       1.0  0.9534946514860823  0.6865749308502416  0.6407824123862369  1.0000
  C   C25       1.0  0.99451537045978  0.2997209695815073  0.6191525033324794  1.0000
  C   C26       1.0  0.005486109284675006  0.7002780362639314  0.38084754912667057  1.0000
  C   C27       1.0  0.906013601084034  0.28035884562223146  0.7036244507945568  1.0000
  C   C28       1.0  0.09398787866042109  0.7196401602232072  0.296375601664586  1.0000
  C   C29       1.0  0.0015126238516601008  0.1779235459850383  0.7611329277925731  1.0000
  C   C30       1.0  0.9984876299809361  0.8220744787545513  0.23886627276931452  1.0000
  C   C31       1.0  0.9769244876342711  0.214928896453543  0.8950532271788062  1.0000
  C   C32       1.0  0.023080571823150813  0.7850750149211477  0.1049435022184326  1.0000
  C   C33       1.0  0.8855949626192654  0.1488367008357798  0.9743610374740826  1.0000
  C   C34       1.0  0.11440769402574352  0.851164267221364  0.025636927505480862  1.0000
  C   C35       1.0  0.8955053292512929  0.1646011096413318  0.0473608156264689  1.0000
  C   C36       1.0  0.10449855330557511  0.835400839521661  0.9526357784724339  1.0000
  C   C37       1.0  0.7945330358399689  0.08519726984421538  0.11290300226868058  1.0000
  C   C38       1.0  0.20547344557451197  0.9148036982129284  0.8870957783380716  1.0000
  C   C39       1.0  0.6917122891003515  0.9911435444389838  0.10489086137683765  1.0000
  C   C40       1.0  0.3082929173909648  0.00885742361816  0.8951085735116564  1.0000
  C   C41       1.0  0.6850090114129728  0.9741919975543424  0.03095770005690926  1.0000
  C   C42       1.0  0.3149936452320362  0.025808970502801298  0.9690419320060925  1.0000
  C   C43       1.0  0.7816817112298936  0.05533927549647899  0.9662863137835913  1.0000
  C   C44       1.0  0.2183197195032633  0.9446607114548158  0.033712466382155526  1.0000
  C   C45       1.0  0.8052636395424387  0.0600417158378406  0.8817001191515459  1.0000
  C   C46       1.0  0.1947367123127606  0.9399543466900511  0.1182982918302784  1.0000
  C   C47       1.0  0.5951418620004176  0.5360232569878178  0.3667266534179419  1.0000
  C   C48       1.0  0.40486079464459834  0.4639777110693259  0.633273534339537  1.0000
  C   C49       1.0  0.6538281816908552  0.5554383606630181  0.27921449173425833  1.0000
  C   C50       1.0  0.34616947328413533  0.4445606451824204  0.7207841894032185  1.0000
  C   C51       1.0  0.5500984400923983  0.4786079615117202  0.24438509695720967  1.0000
  C   C52       1.0  0.4498978419368314  0.5213930065454235  0.7556150280420724  1.0000
  C   C53       1.0  0.51584140128643  0.6216777221583598  0.11055778404895023  1.0000
  C   C54       1.0  0.4841548807427999  0.37832324589878397  0.8894417852558546  1.0000
  C   C55       1.0  0.5954507914646572  0.623706649057162  0.02929747030839279  1.0000
  C   C56       1.0  0.4045441176188191  0.3762962812116868  0.970701875774779  1.0000
  C   C57       1.0  0.5603416981392186  0.704614524123066  0.9581284007968308  1.0000
  C   C58       1.0  0.43965458389001805  0.2953864439340776  0.041871168507974225  1.0000
  C   C59       1.0  0.6555245005289976  0.6820108264337961  0.889630155054462  1.0000
  C   C60       1.0  0.3444706045996783  0.3179881794116497  0.11036872325752968  1.0000
  C   C61       1.0  0.7822771022577442  0.5820999121498858  0.8933344668762332  1.0000
  C   C62       1.0  0.21771677695907957  0.4178981125897039  0.10666467092746501  1.0000
  C   C63       1.0  0.8173874604366418  0.5007838970501837  0.9656788948483168  1.0000
  C   C64       1.0  0.18260882159258784  0.4992170710069601  0.03432178584544232  1.0000
  C   C65       1.0  0.7213231733763906  0.5224790907219087  0.03332365361380603  1.0000
  C   C66       1.0  0.27867938524602204  0.4775238395469401  0.9666756566403052  1.0000
  C   C67       1.0  0.7212262123542246  0.4521946298050281  0.11772045369724542  1.0000
  C   C68       1.0  0.2787711485529627  0.5478102626755188  0.8822783734025207  1.0000
  N   N1        1.0  0.4670180585075627  0.24748689410181154  0.46906789999268034  1.0000
  N   N2        1.0  0.5329846471487514  0.7525130928494831  0.5309341157526858  1.0000
  N   N3        1.0  0.18302549019605155  0.2910950869440683  0.3954010638821472  1.0000
  N   N4        1.0  0.8169732926681874  0.7089068622189245  0.6045992587326622  1.0000
  N   N5        1.0  0.9256385379181752  0.1549715557188449  0.843139051106128  1.0000
  N   N6        1.0  0.07436166690312261  0.8450274501265936  0.1568605442457951  1.0000
  N   N7        1.0  0.5911951263027646  0.5135559330117658  0.1596183296645819  1.0000
  N   N8        1.0  0.40880238163832433  0.48644601615122696  0.840381535843001  1.0000
  O   O1        1.0  0.11804860289580431  0.22403355874602227  0.6029135376592905  1.0000
  O   O2        1.0  0.8819516019254936  0.7759654470994164  0.39708605769263977  1.0000
  O   O3        1.0  0.942835186654797  0.39723602337853947  0.5663298020923406  1.0000
  O   O4        1.0  0.05716501816650071  0.6027629824669063  0.43366979325958244  1.0000
  O   O5        1.0  0.0789761196264038  0.30307144606091185  0.8760279946757379  1.0000
  O   O6        1.0  0.9210241832174975  0.6969255975728288  0.1239702554016446  1.0000
  O   O7        1.0  0.7394595538191384  0.9939230173133992  0.8494014713146497  1.0000
  O   O8        1.0  0.2605418769140186  0.0060769696378884  0.15059897593453542  1.0000
  O   O9        1.0  0.43588195848731454  0.5446049898619946  0.39013278738742946  1.0000
  O   O10       1.0  0.564122120114753  0.4553930348776021  0.60986945157957  1.0000
  O   O11       1.0  0.7099423286585493  0.5146106218010331  0.4102332377429647  1.0000
  O   O12       1.0  0.2900641037446263  0.4853913273619597  0.5897642705703845  1.0000
  O   O13       1.0  0.40720028718721585  0.6968598634808529  0.13384735230055608  1.0000
  O   O14       1.0  0.5927984466657322  0.303143066787996  0.8661528094098044  1.0000
  O   O15       1.0  0.8108858142268432  0.35851864320093796  0.1482649369499285  1.0000
  O   O16       1.0  0.18911792129612348  0.641486249279609  0.8517339529080346  1.0000
