data_image0
_chemical_formula_structural       Cu4H40C44S8Br8N8
_chemical_formula_sum              "Cu4 H40 C44 S8 Br8 N8"
_cell_length_a       8.648730973618747
_cell_length_b       12.557656424333373
_cell_length_c       13.992864028357538
_cell_angle_alpha    90.00054414013678
_cell_angle_beta     100.93493605909511
_cell_angle_gamma    90.00063807545453

_space_group_name_H-M_alt    "P 1"
_space_group_IT_number       1

loop_
  _space_group_symop_operation_xyz
  'x, y, z'

loop_
  _atom_site_type_symbol
  _atom_site_label
  _atom_site_symmetry_multiplicity
  _atom_site_fract_x
  _atom_site_fract_y
  _atom_site_fract_z
  _atom_site_occupancy
  Cu  Cu1       1.0  0.29517064412253546  0.8508532528405933  0.22383577973730692  1.0000
  Cu  Cu2       1.0  0.7048675391328914  0.3508502499114101  0.2761731040448723  1.0000
  Cu  Cu3       1.0  0.7048332131160108  0.1491535031394449  0.7761653083748711  1.0000
  Cu  Cu4       1.0  0.29513887421032337  0.6491469501996293  0.7238346872623536  1.0000
  H   H1        1.0  0.5795682369104683  0.19796577301335105  0.0992995260863054  1.0000
  H   H2        1.0  0.42044619079569406  0.6979657073996532  0.4007158438968402  1.0000
  H   H3        1.0  0.4204353741393234  0.8020346122980939  0.9006936734101314  1.0000
  H   H4        1.0  0.5795489183554067  0.302032289086398  0.5993057627636346  1.0000
  H   H5        1.0  0.6933726540217292  0.09580991450594917  0.055345530591054556  1.0000
  H   H6        1.0  0.30664915966389134  0.5958015946241275  0.4446663717942129  1.0000
  H   H7        1.0  0.30663100174132296  0.9041864891805032  0.9446491031770774  1.0000
  H   H8        1.0  0.6933468583088357  0.4041876422130385  0.5553467535641089  1.0000
  H   H9        1.0  0.7758119510116545  0.946442805721709  0.07485075205977408  1.0000
  H   H10       1.0  0.22420278997602588  0.4464508296702334  0.4251398447928451  1.0000
  H   H11       1.0  0.2241869950587159  0.053547227327939595  0.9251433838079774  1.0000
  H   H12       1.0  0.7757788530444144  0.5535463703190259  0.5748638983922731  1.0000
  H   H13       1.0  0.8638811010898308  0.761850539665474  0.0688761443993968  1.0000
  H   H14       1.0  0.136136278888678  0.26185637466787165  0.4311206604592925  1.0000
  H   H15       1.0  0.1361157810287068  0.2381379007824478  0.9311270654021866  1.0000
  H   H16       1.0  0.863859224518414  0.7381400290005402  0.5688759706086585  1.0000
  H   H17       1.0  0.6899060455933539  0.612033205378026  0.11420521143582356  1.0000
  H   H18       1.0  0.31012187089702786  0.11203977477460107  0.38580458414588037  1.0000
  H   H19       1.0  0.310097305385149  0.3879616058376739  0.8858172664887433  1.0000
  H   H20       1.0  0.6898687215290948  0.8879598141366924  0.6141850947631581  1.0000
  H   H21       1.0  0.4493274883955252  0.6625341457935718  0.17489234809418255  1.0000
  H   H22       1.0  0.5507003795581298  0.16254653497394853  0.32512349403596363  1.0000
  H   H23       1.0  0.550674506239389  0.337467832320506  0.8251242682377296  1.0000
  H   H24       1.0  0.4492844154107943  0.8374618135262177  0.6748684311470325  1.0000
  H   H25       1.0  0.0670888624254076  0.10510044492774989  0.14495199195585676  1.0000
  H   H26       1.0  0.932920926957806  0.6051108721844399  0.35504511989564236  1.0000
  H   H27       1.0  0.9329217459699708  0.8949023293820203  0.855039802927159  1.0000
  H   H28       1.0  0.0670737348360788  0.39490305074359355  0.6449621439452784  1.0000
  H   H29       1.0  0.26034525734885255  0.2450721531949184  0.11265020798597897  1.0000
  H   H30       1.0  0.739664563705553  0.7450878964456109  0.38733996881311566  1.0000
  H   H31       1.0  0.7396557751385513  0.7549290283844597  0.8873355711333912  1.0000
  H   H32       1.0  0.2603296953694851  0.25493000803010085  0.6126543864457403  1.0000
  H   H33       1.0  0.2073901649676344  0.4351331014068123  0.14438280211845717  1.0000
  H   H34       1.0  0.792632112958522  0.9351464417297276  0.35559279170016106  1.0000
  H   H35       1.0  0.7926049581034464  0.5648680801410392  0.8556016375152493  1.0000
  H   H36       1.0  0.20736898678971727  0.0648690737489019  0.6443951389139712  1.0000
  H   H37       1.0  0.9654923311244875  0.4813958827845894  0.21186176383650948  1.0000
  H   H38       1.0  0.0345499238322731  0.9813977380309207  0.28812482458551597  1.0000
  H   H39       1.0  0.03452443275615019  0.5186005209944111  0.788139259093185  1.0000
  H   H40       1.0  0.9654569510352715  0.018612999488652793  0.7118601426273654  1.0000
  C   C1        1.0  0.6363161642071731  0.11978272143055334  0.11575266290857661  1.0000
  C   C2        1.0  0.36370016869504707  0.6197883734094134  0.3842573888489226  1.0000
  C   C3        1.0  0.36368162689775124  0.8802144785609652  0.8842420656661074  1.0000
  C   C4        1.0  0.6363005142945468  0.3802151973241975  0.6157548001551872  1.0000
  C   C5        1.0  0.5651959810649955  0.9046766124567824  0.1306430495055082  1.0000
  C   C6        1.0  0.4348123781474698  0.404675957294195  0.36935588904648836  1.0000
  C   C7        1.0  0.43480307703937643  0.09533014348257748  0.8693546721560637  1.0000
  C   C8        1.0  0.5651670219183488  0.5953196500546837  0.6306511909172697  1.0000
  C   C9        1.0  0.7050747592217235  0.8829682612219613  0.09752917434308728  1.0000
  C   C10       1.0  0.29493765523881166  0.38297095320002933  0.40246218701880565  1.0000
  C   C11       1.0  0.29492189921820966  0.11702814244694787  0.9024668640487121  1.0000
  C   C12       1.0  0.7050509626994385  0.6170230614942083  0.5975394343845506  1.0000
  C   C13       1.0  0.7535193030118991  0.7778476882086308  0.09305560369413972  1.0000
  C   C14       1.0  0.24649364581288322  0.2778516605513488  0.40694012356523496  1.0000
  C   C15       1.0  0.2464763570151476  0.222147919166666  0.9069460473811758  1.0000
  C   C16       1.0  0.7534913952099913  0.722148724732655  0.5930596901719338  1.0000
  C   C17       1.0  0.6608193941057933  0.6959731523178758  0.11919333640494048  1.0000
  C   C18       1.0  0.33920510059591175  0.19597908236267614  0.38080735952354416  1.0000
  C   C19       1.0  0.3391835988820944  0.3040232514743764  0.8808176672160994  1.0000
  C   C20       1.0  0.6607786064063036  0.8040228955360288  0.6191873097414201  1.0000
  C   C21       1.0  0.5250418516910429  0.7232295306894441  0.15256137741992853  1.0000
  C   C22       1.0  0.4749809574012359  0.2232296897871677  0.3474443237083804  1.0000
  C   C23       1.0  0.4749610742007562  0.276770058396032  0.8474474747815887  1.0000
  C   C24       1.0  0.5250122136097417  0.7767714918369819  0.6525527755879849  1.0000
  C   C25       1.0  0.9183528923943526  0.2216034944025012  0.19640110263769367  1.0000
  C   C26       1.0  0.08167912636976378  0.7216027305650384  0.3035998431087633  1.0000
  C   C27       1.0  0.0816602721730888  0.7783968909806446  0.8035973954711505  1.0000
  C   C28       1.0  0.9183223983977913  0.2784008401014333  0.6964017131976304  1.0000
  C   C29       1.0  0.049075054334586796  0.1892300192675833  0.15887459918246796  1.0000
  C   C30       1.0  0.9509503567487485  0.6892411967744535  0.3411218604424419  1.0000
  C   C31       1.0  0.9509332886634283  0.8107639954545928  0.8411198153040115  1.0000
  C   C32       1.0  0.0490558777489341  0.3107727261634778  0.6588801937814279  1.0000
  C   C33       1.0  0.15460565564035275  0.2668713775655505  0.13986435906844719  1.0000
  C   C34       1.0  0.8454127725813337  0.7668939421902435  0.36012544201869184  1.0000
  C   C35       1.0  0.8453944455377425  0.7331266187539143  0.8601291841573653  1.0000
  C   C36       1.0  0.1545826863221791  0.2331287402572215  0.6398697548733379  1.0000
  C   C37       1.0  0.12511961762685084  0.37346292454304114  0.15724534869993076  1.0000
  C   C38       1.0  0.8749087886006066  0.8734743366585815  0.34273763357625586  1.0000
  C   C39       1.0  0.8748862810758453  0.6265334791299253  0.8427459482827118  1.0000
  C   C40       1.0  0.12508886840947755  0.1265395861694998  0.6572527922038701  1.0000
  C   C41       1.0  0.9916366800467526  0.3996481303948584  0.19445210335829438  1.0000
  C   C42       1.0  0.008386644852272702  0.8996563861570476  0.3055405215328904  1.0000
  C   C43       1.0  0.008373086533225703  0.6003506623474024  0.8055503242053419  1.0000
  C   C44       1.0  0.9916074574829921  0.10034957338087476  0.6944488136638681  1.0000
  S   S1        1.0  0.481750212856447  0.0319131458765227  0.13383781117491364  1.0000
  S   S2        1.0  0.5182854594314391  0.5319245218835248  0.36616727187831083  1.0000
  S   S3        1.0  0.5182593075872007  0.9680848504856456  0.8661567277969195  1.0000
  S   S4        1.0  0.4817185991927389  0.4680830304669357  0.6338402705368722  1.0000
  S   S5        1.0  0.7815307459883982  0.13031306499874515  0.2293852777005441  1.0000
  S   S6        1.0  0.21848818448691534  0.6303137102440743  0.2706265477233813  1.0000
  S   S7        1.0  0.21846713465536277  0.8696881166467632  0.7706123194688315  1.0000
  S   S8        1.0  0.7815136311751588  0.36969145313907603  0.729384331467031  1.0000
  Br  Br1       1.0  0.12199293952252081  0.9052128532504398  0.07372558589020169  1.0000
  Br  Br2       1.0  0.8780299391387274  0.40522112861904697  0.4262870423806219  1.0000
  Br  Br3       1.0  0.878017511983309  0.0947620495829256  0.9262611888623126  1.0000
  Br  Br4       1.0  0.1219603035499546  0.5947553669846924  0.573729046303704  1.0000
  Br  Br5       1.0  0.45831155675161034  0.9024728117947659  0.37821397394126416  1.0000
  Br  Br6       1.0  0.5417169109707133  0.40244740237803694  0.1217913643989874  1.0000
  Br  Br7       1.0  0.5416785742250738  0.09752120297729046  0.6217985290963242  1.0000
  Br  Br8       1.0  0.45830673810916533  0.5975227226056176  0.8782046680721647  1.0000
  N   N1        1.0  0.4793592273429396  0.8251544751175217  0.16017744913660434  1.0000
  N   N2        1.0  0.5206665643392653  0.3251620506948356  0.339825666372576  1.0000
  N   N3        1.0  0.5206388770767774  0.17484909555709993  0.8398273194870142  1.0000
  N   N4        1.0  0.479330317959004  0.674845501599428  0.6601775435110965  1.0000
  N   N5        1.0  0.8912720879730216  0.3250025788260231  0.21421861667732855  1.0000
  N   N6        1.0  0.1087513907229294  0.825003379482233  0.2857856828501538  1.0000
  N   N7        1.0  0.10873779046872302  0.6749946212865365  0.7857873966014564  1.0000
  N   N8        1.0  0.891245178312957  0.17500337641745733  0.7142074870085224  1.0000
