data_image0
_chemical_formula_structural       Cu2H48C24N4O8
_chemical_formula_sum              "Cu2 H48 C24 N4 O8"
_cell_length_a       5.097763461673151
_cell_length_b       10.307360753924495
_cell_length_c       18.63659620195842
_cell_angle_alpha    90.02924879693543
_cell_angle_beta     90.03139001730659
_cell_angle_gamma    125.07967927110798

_space_group_name_H-M_alt    "P 1"
_space_group_IT_number       1

loop_
  _space_group_symop_operation_xyz
  'x, y, z'

loop_
  _atom_site_type_symbol
  _atom_site_label
  _atom_site_symmetry_multiplicity
  _atom_site_fract_x
  _atom_site_fract_y
  _atom_site_fract_z
  _atom_site_occupancy
  Cu  Cu1       1.0  0.9999642112812236  0.9999825240006003  2.2657793295000233e-06  1.0000
  Cu  Cu2       1.0  0.5000296677652473  0.5000210008332077  0.49999811269184846  1.0000
  H   H1        1.0  0.051792803402619686  0.8444464992566906  0.3030116387659945  1.0000
  H   H2        1.0  0.4481864757571257  0.6554607924772639  0.8030730115362771  1.0000
  H   H3        1.0  0.9481951857894015  0.15555645842644591  0.6969974541535179  1.0000
  H   H4        1.0  0.5518034827688539  0.34451887254278557  0.19693071265357528  1.0000
  H   H5        1.0  0.280119427517853  0.6894619885303185  0.3097981034419419  1.0000
  H   H6        1.0  0.21953518063031646  0.8103074892578944  0.8098619478095299  1.0000
  H   H7        1.0  0.7199125699740064  0.31055276969201623  0.6901997260836125  1.0000
  H   H8        1.0  0.7804264300642458  0.1896693714220348  0.19013211553164663  1.0000
  H   H9        1.0  0.6622242011217592  0.8560245295261806  0.2865802589611022  1.0000
  H   H10       1.0  0.8374944969173937  0.6436534341980291  0.7864942275791122  1.0000
  H   H11       1.0  0.33779846630841354  0.1440095914592376  0.713420791923795  1.0000
  H   H12       1.0  0.16246757784768565  0.35630533570029144  0.2135089552387157  1.0000
  H   H13       1.0  0.7270437987071504  0.9845980551566244  0.4024981817122608  1.0000
  H   H14       1.0  0.7730402511480816  0.5152982316991909  0.9023547778996388  1.0000
  H   H15       1.0  0.27292239559637466  0.015428360915485896  0.5975012543130943  1.0000
  H   H16       1.0  0.22701097528365485  0.48467146397162975  0.09764841284210488  1.0000
  H   H17       1.0  0.3129908145937959  0.8478994881306859  0.4221977038938931  1.0000
  H   H18       1.0  0.18718455232241382  0.6520180713480243  0.9221933968984358  1.0000
  H   H19       1.0  0.6869718093144499  0.15210415537158178  0.5777952899106964  1.0000
  H   H20       1.0  0.81287831040904  0.3479954615059525  0.07780497128592857  1.0000
  H   H21       1.0  0.4112431162517607  0.9932510061350256  0.06896370649213418  1.0000
  H   H22       1.0  0.08882325799062572  0.5066833485864634  0.5688712006059546  1.0000
  H   H23       1.0  0.5886703764404969  0.006697632896283792  0.9310357154030626  1.0000
  H   H24       1.0  0.9112556921053494  0.49336058923562826  0.43112717277422524  1.0000
  H   H25       1.0  0.06716873363894361  0.81551363667252  0.0646676112114051  1.0000
  H   H26       1.0  0.43281410316439656  0.6844206447642874  0.5647655394839787  1.0000
  H   H27       1.0  0.9327180969291219  0.18443878692259827  0.9353420042446245  1.0000
  H   H28       1.0  0.5672606797405492  0.315620751435489  0.4352371258869567  1.0000
  H   H29       1.0  0.23589502328222517  0.0655386222739978  0.1698030958287404  1.0000
  H   H30       1.0  0.2643278656226471  0.43444171208783183  0.6697023620540462  1.0000
  H   H31       1.0  0.7641057282624216  0.9344559751416952  0.8301925824414907  1.0000
  H   H32       1.0  0.7357622252693972  0.5655873079435026  0.3302895712144789  1.0000
  H   H33       1.0  0.8646107075794445  0.877671383834297  0.16693110597893218  1.0000
  H   H34       1.0  0.6355242310280856  0.6222651633428952  0.6670541417451759  1.0000
  H   H35       1.0  0.1353587672586443  0.12234255546347579  0.8330769138924907  1.0000
  H   H36       1.0  0.3645586179953709  0.3777716874484582  0.3329442309795993  1.0000
  H   H37       1.0  0.13076852497949418  0.7421081751634873  0.1860221386140282  1.0000
  H   H38       1.0  0.3694174623392568  0.7578305053928388  0.6861168716128103  1.0000
  H   H39       1.0  0.8691272226862167  0.25786861157639146  0.8139896270317378  1.0000
  H   H40       1.0  0.6306373458208085  0.24218757851807737  0.31389061842820337  1.0000
  H   H41       1.0  0.5112715966968434  0.9223101447404287  0.17729039150650283  1.0000
  H   H42       1.0  0.9889016306846655  0.5776449768400552  0.677113293256653  1.0000
  H   H43       1.0  0.4886604139843129  0.07765312458081301  0.822704741041633  1.0000
  H   H44       1.0  0.011158866609051184  0.422370454970654  0.3228823921135414  1.0000
  H   H45       1.0  0.4336123501818959  0.021887575062770278  0.29147232839086  1.0000
  H   H46       1.0  0.066486444265209  0.47795652020565893  0.7912755253883645  1.0000
  H   H47       1.0  0.5663569929669235  0.9781145972988555  0.7085217388645616  1.0000
  H   H48       1.0  0.9335081183649694  0.5220331924969629  0.2087147859976142  1.0000
  C   C1        1.0  0.12178839364645463  0.9403557645277657  0.15589523652798926  1.0000
  C   C2        1.0  0.37837948956290973  0.559578129215957  0.6558829531614165  1.0000
  C   C3        1.0  0.8781693335167873  0.05962819071424967  0.8441052664159159  1.0000
  C   C4        1.0  0.6216995385498407  0.44045193916081626  0.3441138086511586  1.0000
  C   C5        1.0  0.26810487922161025  0.8698329833312285  0.19836029613759368  1.0000
  C   C6        1.0  0.2320369259532097  0.6300911776624074  0.6983271875184656  1.0000
  C   C7        1.0  0.7318320641289232  0.13014999182340858  0.8016423514816253  1.0000
  C   C8        1.0  0.7680301155163888  0.3699249024623867  0.3016717178856254  1.0000
  C   C9        1.0  0.2896856220476779  0.8939976726563049  0.2795285053142322  1.0000
  C   C10       1.0  0.21024102578643064  0.6058476666879998  0.779489589886708  1.0000
  C   C11       1.0  0.7102951712171901  0.10599923065121432  0.7204720010203542  1.0000
  C   C12       1.0  0.7897628094168708  0.3941365627386517  0.22050769697062828  1.0000
  C   C13       1.0  0.4415317841715449  0.8190360969210743  0.3156612127194975  1.0000
  C   C14       1.0  0.05831704724493389  0.6807409876303795  0.8156377836713345  1.0000
  C   C15       1.0  0.5584877805688323  0.18098277261745468  0.6843371530261279  1.0000
  C   C16       1.0  0.9416595533827063  0.3192277514808453  0.1843632552071313  1.0000
  C   C17       1.0  0.5199622703442157  0.8612057573123336  0.3953243943339969  1.0000
  C   C18       1.0  0.9801723637167186  0.6386725886647966  0.8952625469146936  1.0000
  C   C19       1.0  0.4800379634903961  0.1388208122549202  0.6046739710271041  1.0000
  C   C20       1.0  0.01985863724063113  0.3613153948941559  0.10474332767370238  1.0000
  C   C21       1.0  0.5909484589150154  0.7546930379693534  0.43394213968715434  1.0000
  C   C22       1.0  0.9092712333804013  0.7452199275297884  0.9338804965384854  1.0000
  C   C23       1.0  0.40910134475989673  0.24534482271327107  0.5660551576131211  1.0000
  C   C24       1.0  0.09062520064495767  0.2547227644657397  0.0661237525386298  1.0000
  N   N1        1.0  0.1667435127809825  0.9313720549170768  0.07821197539614388  1.0000
  N   N2        1.0  0.3334275528956139  0.5685985050359006  0.5781939352076079  1.0000
  N   N3        1.0  0.8331690866256736  0.06858717260124787  0.9217906673091747  1.0000
  N   N4        1.0  0.6666515786801098  0.4314433164695329  0.42180497448421755  1.0000
  O   O1        1.0  0.35775704619077703  0.6028455680045682  0.433259582312246  1.0000
  O   O2        1.0  0.14216180769600603  0.8971185705705625  0.9332331854012778  1.0000
  O   O3        1.0  0.6422890528665378  0.39719726966826135  0.566743617744514  1.0000
  O   O4        1.0  0.8577534331100195  0.10284839040974697  0.0667710682565144  1.0000
  O   O5        1.0  0.34975465183994464  0.30772350407178817  0.0345601328455203  1.0000
  O   O6        1.0  0.14968038103959458  0.19233430411112806  0.5344940190189857  1.0000
  O   O7        1.0  0.6502078446562007  0.6922171543337113  0.9654344623438572  1.0000
  O   O8        1.0  0.8503888210796828  0.8077075920982891  0.4654904023346803  1.0000
