data_image0
_chemical_formula_structural       ZnH24PtC24N4O12
_chemical_formula_sum              "Zn1 H24 Pt1 C24 N4 O12"
_cell_length_a       7.777658050332728
_cell_length_b       9.104958199680706
_cell_length_c       9.637489264841687
_cell_angle_alpha    85.09928128192242
_cell_angle_beta     80.45221220744024
_cell_angle_gamma    80.63356540379601

_space_group_name_H-M_alt    "P 1"
_space_group_IT_number       1

loop_
  _space_group_symop_operation_xyz
  'x, y, z'

loop_
  _atom_site_type_symbol
  _atom_site_label
  _atom_site_symmetry_multiplicity
  _atom_site_fract_x
  _atom_site_fract_y
  _atom_site_fract_z
  _atom_site_occupancy
  Zn  Zn1       1.0  0.5000016631403881  0.4999977958838854  0.5000049472659712  1.0000
  H   H1        1.0  0.9437236434018672  0.2606531042278348  0.7921113001436456  1.0000
  H   H2        1.0  0.05628129689994677  0.7393505708024151  0.20788024125560164  1.0000
  H   H3        1.0  0.07270312657649211  0.32245708342897217  0.5394663208668151  1.0000
  H   H4        1.0  0.9272953656783329  0.6775465669734758  0.46052388280485007  1.0000
  H   H5        1.0  0.2580709950249584  0.11924564318630358  0.39890546316683395  1.0000
  H   H6        1.0  0.7419230541760343  0.8807534581480284  0.60108865616661  1.0000
  H   H7        1.0  0.19262159386475727  0.8197346149226377  0.7684144974624733  1.0000
  H   H8        1.0  0.8073886147648963  0.18026244821331258  0.2315737551578821  1.0000
  H   H9        1.0  0.5704820166079043  0.6972444069587383  0.3128229789254393  1.0000
  H   H10       1.0  0.42951437066980713  0.3027545805782167  0.6871802228401055  1.0000
  H   H11       1.0  0.6846222537360661  0.5471622326967137  0.23714056031225544  1.0000
  H   H12       1.0  0.31537580823987094  0.45283328508411086  0.7628720165288245  1.0000
  H   H13       1.0  0.7134632685280806  0.47038295126292695  0.7182781935664624  1.0000
  H   H14       1.0  0.2865364504997672  0.5296182237512356  0.2817296763015734  1.0000
  H   H15       1.0  0.8033635289217855  0.4250796357079308  0.5651142603807815  1.0000
  H   H16       1.0  0.19663483394150214  0.5749148123096293  0.4348952371327855  1.0000
  H   H17       1.0  0.06677856419362632  0.31761953802539716  0.9629192633371847  1.0000
  H   H18       1.0  0.933216041590235  0.6823749525159997  0.037085470576897726  1.0000
  H   H19       1.0  0.5198231218468337  0.32930711880283775  0.1642108743121257  1.0000
  H   H20       1.0  0.4801704862406027  0.6706917563452278  0.8357988804013208  1.0000
  H   H21       1.0  0.5356384023857573  0.0512260255398687  0.2136171438980058  1.0000
  H   H22       1.0  0.46435986142016367  0.9487762836757906  0.7863887429021621  1.0000
  H   H23       1.0  0.316767613562476  0.9211032608127211  0.13615601067935765  1.0000
  H   H24       1.0  0.6832367946144302  0.07889467746688439  0.8638463424469767  1.0000
  Pt  Pt1       1.0  0.9999997409908443  1.6622381408941833e-06  0.9999973773659865  1.0000
  C   C1        1.0  0.16748598654588417  0.9293715795700593  0.7139503116372199  1.0000
  C   C2        1.0  0.8325220994603485  0.0706299476898735  0.28603685702844234  1.0000
  C   C3        1.0  0.23601288059545308  0.9540879804455217  0.5723530142296911  1.0000
  C   C4        1.0  0.7639865465176499  0.04591794107333409  0.4276348598297022  1.0000
  C   C5        1.0  0.20112205455914992  0.09698298138103921  0.5082377071639359  1.0000
  C   C6        1.0  0.7988782594317456  0.9030172746606979  0.4917566597899283  1.0000
  C   C7        1.0  0.09591517620926743  0.2092557283740604  0.586262213273827  1.0000
  C   C8        1.0  0.9040823811872798  0.7907456509119868  0.4137303200101032  1.0000
  C   C9        1.0  0.030235842272233516  0.17786779227294858  0.7268171914623596  1.0000
  C   C10       1.0  0.969759024156751  0.8221335198614526  0.27317876769348  1.0000
  C   C11       1.0  0.350992217202709  0.8269806145120028  0.49502478985657233  1.0000
  C   C12       1.0  0.6490111140276653  0.17302533987843555  0.504962636008962  1.0000
  C   C13       1.0  0.4363470432527308  0.11558381376856626  0.15663260319421116  1.0000
  C   C14       1.0  0.5636482847247705  0.8844140628897605  0.8433697533591061  1.0000
  C   C15       1.0  0.17481439059397264  0.26275076229170924  0.016119555195864214  1.0000
  C   C16       1.0  0.825180489458326  0.7372481087344624  0.9838910924782954  1.0000
  C   C17       1.0  0.314121025351831  0.0406059240899097  0.11427375697351044  1.0000
  C   C18       1.0  0.6858760253043742  0.9593964194058131  0.8857291521485995  1.0000
  C   C19       1.0  0.4254970542830563  0.2691827000058851  0.13007049757730735  1.0000
  C   C20       1.0  0.5745000619999416  0.730818453093896  0.8699376710866392  1.0000
  C   C21       1.0  0.29268168415071477  0.3443050115744839  0.057028693887268424  1.0000
  C   C22       1.0  0.7073150108260082  0.6556916856450955  0.9429787728099304  1.0000
  C   C23       1.0  0.27004759412963614  0.5110556001015069  0.023133369050370313  1.0000
  C   C24       1.0  0.7299592991618411  0.4889422997761415  0.9768728547147352  1.0000
  N   N1        1.0  0.18449263005170022  0.11406347651634968  0.045484569020651115  1.0000
  N   N2        1.0  0.8155049703757271  0.8859354767405564  0.9545216104229443  1.0000
  N   N3        1.0  0.0700053839723722  0.040546184048793094  0.7898228322011394  1.0000
  N   N4        1.0  0.929995989318741  0.9594551828715792  0.21017237996494495  1.0000
  O   O1        1.0  0.4207901014002573  0.8524894427751587  0.3694906834090761  1.0000
  O   O2        1.0  0.5792177385107563  0.1475198702874536  0.6304980863365162  1.0000
  O   O3        1.0  0.36597874928537516  0.7025670942542063  0.5678411858616388  1.0000
  O   O4        1.0  0.6340276982418516  0.297436697286834  0.4321429096289863  1.0000
  O   O5        1.0  0.6475214851548685  0.600155830447676  0.32671782395477345  1.0000
  O   O6        1.0  0.35247345371256245  0.39984307073667213  0.6732907390020559  1.0000
  O   O7        1.0  0.726373838096336  0.5057331482975798  0.614625663128024  1.0000
  O   O8        1.0  0.27362209846751995  0.4942613682800924  0.3853778790294415  1.0000
  O   O9        1.0  0.23405055410916023  0.5574359493306105  0.90197572426834  1.0000
  O   O10       1.0  0.7659589165426014  0.4425552715011065  0.09803063658976906  1.0000
  O   O11       1.0  0.2870439040236903  0.5929307282819779  0.11917611502161667  1.0000
  O   O12       1.0  0.712963286132137  0.4070727877136449  0.8808276358857373  1.0000
