data_image0
_chemical_formula_structural       Cd6P4H52C28N4O24
_chemical_formula_sum              "Cd6 P4 H52 C28 N4 O24"
_cell_length_a       9.848763483853281
_cell_length_b       10.755212767007594
_cell_length_c       12.545311467430741
_cell_angle_alpha    115.39670587820099
_cell_angle_beta     101.1167613240251
_cell_angle_gamma    90.02504977926036

_space_group_name_H-M_alt    "P 1"
_space_group_IT_number       1

loop_
  _space_group_symop_operation_xyz
  'x, y, z'

loop_
  _atom_site_type_symbol
  _atom_site_label
  _atom_site_symmetry_multiplicity
  _atom_site_fract_x
  _atom_site_fract_y
  _atom_site_fract_z
  _atom_site_occupancy
  Cd  Cd1       1.0  0.9244165452778574  0.526357261028508  0.21709623345573442  1.0000
  Cd  Cd2       1.0  0.575615430683868  0.3091422465650098  0.783034682242473  1.0000
  Cd  Cd3       1.0  0.0755831332499284  0.4736423675747048  0.7829080164270151  1.0000
  Cd  Cd4       1.0  0.424383866455166  0.6908533362369339  0.21696398258464455  1.0000
  Cd  Cd5       1.0  0.7500806282800312  0.6335762852908076  6.329247093364672e-05  1.0000
  Cd  Cd6       1.0  0.24992134962050022  0.3664151261540951  0.9999349979358383  1.0000
  P   P1        1.0  0.5939547021954966  0.40414449948475806  0.08948396843803154  1.0000
  P   P2        1.0  0.9059425389895637  0.31463581019102804  0.9105000057787436  1.0000
  P   P3        1.0  0.4060446919687592  0.5958520992039738  0.9105158952923061  1.0000
  P   P4        1.0  0.09405872269418582  0.6853587262579952  0.08949856557379127  1.0000
  H   H1        1.0  0.9112121430106441  0.7170217801345373  0.9014069882962232  1.0000
  H   H2        1.0  0.5889046080060467  0.8155731884151578  0.09860841894379034  1.0000
  H   H3        1.0  0.0887838541753183  0.2829821149153561  0.09859353080021549  1.0000
  H   H4        1.0  0.41109668052627774  0.18442141901748238  0.9013869946377893  1.0000
  H   H5        1.0  0.7913799501748926  0.6431846177529152  0.7900101709395244  1.0000
  H   H6        1.0  0.7086750115369825  0.8532504304666515  0.21005440305182083  1.0000
  H   H7        1.0  0.20861916285848278  0.35681929370844767  0.20998924325029825  1.0000
  H   H8        1.0  0.2913251490617199  0.14675351012640894  0.7899435902454783  1.0000
  H   H9        1.0  0.7281077907965354  0.22473077957801732  0.09885233773882622  1.0000
  H   H10       1.0  0.7716944900476576  0.1256456429145842  0.901066402713347  1.0000
  H   H11       1.0  0.2718949199777327  0.7752678850416788  0.901148029448599  1.0000
  H   H12       1.0  0.22830554344459125  0.8743468681209664  0.0989296128397825  1.0000
  H   H13       1.0  0.59778633657789  0.2511518521074905  0.18452736385356155  1.0000
  H   H14       1.0  0.9020027514237725  0.0665944139126182  0.8153499963805614  1.0000
  H   H15       1.0  0.402215022131081  0.7488437002283205  0.8154724064022004  1.0000
  H   H16       1.0  0.09799658598812039  0.9334012753647585  0.18464393179012012  1.0000
  H   H17       1.0  0.6684611738317016  0.5467062801133481  0.3471199862122845  1.0000
  H   H18       1.0  0.8309666598003673  0.19968847657037972  0.6527473565613846  1.0000
  H   H19       1.0  0.33154484684042973  0.45329443269140773  0.6528816738749794  1.0000
  H   H20       1.0  0.1690301506276057  0.8003133093621884  0.3472540804925116  1.0000
  H   H21       1.0  0.8251902633182269  0.5472398821114127  0.4449763503684353  1.0000
  H   H22       1.0  0.6743253217370011  0.10192307504377851  0.5550093691685731  1.0000
  H   H23       1.0  0.1748155498791633  0.45275876342794424  0.5550244907978622  1.0000
  H   H24       1.0  0.325675645391577  0.8980787386860601  0.44499033152892764  1.0000
  H   H25       1.0  0.5581463087150098  0.35559331098865943  0.369756304349707  1.0000
  H   H26       1.0  0.9416862597560965  0.9860586459452494  0.630039954453011  1.0000
  H   H27       1.0  0.44185774741240647  0.644408448169024  0.6302454492121398  1.0000
  H   H28       1.0  0.0583148245341363  0.013944236909097203  0.36995857681949923  1.0000
  H   H29       1.0  0.626216664938994  0.49194008996750677  0.513112269352547  1.0000
  H   H30       1.0  0.8734342669259192  0.979024359348351  0.48674720616610045  1.0000
  H   H31       1.0  0.37378244138223243  0.5080638037479517  0.48688793428001276  1.0000
  H   H32       1.0  0.12656930059587526  0.0209826453165576  0.5132532789342575  1.0000
  H   H33       1.0  0.6753501200379333  0.2547753354473912  0.4948243008572603  1.0000
  H   H34       1.0  0.8245224662680288  0.7599394686802013  0.5048762941176506  1.0000
  H   H35       1.0  0.32464925722253923  0.7452315526907328  0.5051818678131994  1.0000
  H   H36       1.0  0.1754794983856556  0.2400614825158698  0.49511526068492623  1.0000
  H   H37       1.0  0.7128968178397201  0.14024501598206737  0.2891140772157996  1.0000
  H   H38       1.0  0.7871235702337884  0.8509769438218413  0.7106400993369276  1.0000
  H   H39       1.0  0.2870989047500601  0.859756634343377  0.7108935173870635  1.0000
  H   H40       1.0  0.2128754626781415  0.14901566230334143  0.28935181100955276  1.0000
  H   H41       1.0  0.8699736942765526  0.1455463085371633  0.3867165803552623  1.0000
  H   H42       1.0  0.6300395438862836  0.7584950424089244  0.6130456141038465  1.0000
  H   H43       1.0  0.1300239092570123  0.8544533150403736  0.6132881429843166  1.0000
  H   H44       1.0  0.36996191550484525  0.24150077611546555  0.38694231451082567  1.0000
  H   H45       1.0  0.9681872670065275  0.3518202900399956  0.37684142668383197  1.0000
  H   H46       1.0  0.5316162068588071  0.9745520330452282  0.6231855926827592  1.0000
  H   H47       1.0  0.03181200328393168  0.648175221778331  0.6231603959142402  1.0000
  H   H48       1.0  0.46838320072973255  0.025444601135319503  0.37681269216209756  1.0000
  H   H49       1.0  0.914545957526208  0.2168610751643669  0.2291411635484479  1.0000
  H   H50       1.0  0.5854675488546661  0.9872958616304076  0.7708341199981633  1.0000
  H   H51       1.0  0.0854501902046891  0.7831344024965787  0.7708625533989775  1.0000
  H   H52       1.0  0.4145345596318109  0.012696654430818896  0.22916142209813728  1.0000
  C   C1        1.0  0.6796964468643693  0.30418320804852067  0.1659487101006007  1.0000
  C   C2        1.0  0.8200955127440751  0.1381541416533594  0.8340254201855968  1.0000
  C   C3        1.0  0.320305112607194  0.6958143938067849  0.8340526685188648  1.0000
  C   C4        1.0  0.1799040052939773  0.861843543905792  0.16597248467700615  1.0000
  C   C5        1.0  0.7349502990956864  0.48119236409986854  0.3770841360576256  1.0000
  C   C6        1.0  0.7647043832259824  0.10402010188165177  0.6228606418046282  1.0000
  C   C7        1.0  0.2650525019916614  0.5188072986607181  0.622918219475771  1.0000
  C   C8        1.0  0.2352965839025956  0.8959817118481864  0.37713905889287247  1.0000
  C   C9        1.0  0.6555279541409149  0.4120250254342039  0.43304395144247104  1.0000
  C   C10       1.0  0.8442483578164967  0.97906159335821  0.5668146462759933  1.0000
  C   C11       1.0  0.3444728891138595  0.5879757014252149  0.5669577081227644  1.0000
  C   C12       1.0  0.15575325187273137  0.020946475405530404  0.4331851428561959  1.0000
  C   C13       1.0  0.7433167217384379  0.3121204758191282  0.4675687195346042  1.0000
  C   C14       1.0  0.7565493195852397  0.8444735763972491  0.5322580230692893  1.0000
  C   C15       1.0  0.2566824547594422  0.6878843627995082  0.5324358407721377  1.0000
  C   C16       1.0  0.24345191542737143  0.15553046431112702  0.46773539156453126  1.0000
  C   C17       1.0  0.7992352595764985  0.21040014450287  0.3594336365367852  1.0000
  C   C18       1.0  0.700747612262056  0.8507589111515015  0.6403914029914615  1.0000
  C   C19       1.0  0.2007646264260288  0.7896015513657417  0.6405714322669382  1.0000
  C   C20       1.0  0.29925493802247866  0.1492378104241396  0.35960261917582403  1.0000
  C   C21       1.0  0.8768202274983636  0.2882619821918198  0.3086541995390135  1.0000
  C   C22       1.0  0.6230713495169978  0.9792937971563518  0.6913062232453626  1.0000
  C   C23       1.0  0.12317914652945917  0.7117345632592064  0.6913480325195422  1.0000
  C   C24       1.0  0.3769296278032144  0.0206977093781973  0.3086879619547672  1.0000
  C   C25       1.0  0.8588602557469188  0.38721017356193943  0.5802821516480137  1.0000
  C   C26       1.0  0.6409113741283932  0.8067604363064831  0.4195913975828772  1.0000
  C   C27       1.0  0.14113828142296106  0.6127987527098854  0.41972625683593623  1.0000
  C   C28       1.0  0.3590897670916462  0.1932529312022027  0.5804047547596197  1.0000
  N   N1        1.0  0.790287836872821  0.3831181744267412  0.2729412023893687  1.0000
  N   N2        1.0  0.7094963729320086  0.10999780771641808  0.7270243094430952  1.0000
  N   N3        1.0  0.2097136188613717  0.6168783937958653  0.7270597667696136  1.0000
  N   N4        1.0  0.2905018967781174  0.8899977991915478  0.27297340794832786  1.0000
  O   O1        1.0  0.6972207428229424  0.5279370225231474  0.11869472713890161  1.0000
  O   O2        1.0  0.8028802381482052  0.40926936690498644  0.8812960679723431  1.0000
  O   O3        1.0  0.3027799966944613  0.47206267070357194  0.8813065229658504  1.0000
  O   O4        1.0  0.1971200095309271  0.5907252291418601  0.1186999770590234  1.0000
  O   O5        1.0  0.46034722695281965  0.45644899190554594  0.13664872365794875  1.0000
  O   O6        1.0  0.039535182986405494  0.319548672244224  0.8632201219978056  1.0000
  O   O7        1.0  0.5396530841908174  0.5435465312985669  0.8633524674903368  1.0000
  O   O8        1.0  0.9604642111778502  0.6804479264445149  0.13677974173253202  1.0000
  O   O9        1.0  0.55704387493833  0.2964554963212365  0.9561551194283452  1.0000
  O   O10       1.0  0.942845720198541  0.34045883612186867  0.04384157401447911  1.0000
  O   O11       1.0  0.44295653323053585  0.7035410427696718  0.04384727062316781  1.0000
  O   O12       1.0  0.05715202063310441  0.6595419098178896  0.9561596115718913  1.0000
  O   O13       1.0  0.9702829015696606  0.3269040774561773  0.5895553326623355  1.0000
  O   O14       1.0  0.529399814123785  0.7372888063155756  0.4104266253076572  1.0000
  O   O15       1.0  0.029712506328522185  0.6731047969123694  0.4104557596137042  1.0000
  O   O16       1.0  0.4706058554876548  0.26269760673033454  0.5895615658983785  1.0000
  O   O17       1.0  0.8411832114439334  0.5021758325927052  0.6633316748864074  1.0000
  O   O18       1.0  0.6586739606118002  0.8384972892617171  0.3364785596434031  1.0000
  O   O19       1.0  0.1588103759197708  0.49783522823688736  0.3366751836682623  1.0000
  O   O20       1.0  0.3413174679098958  0.16153345377551181  0.6635346572459325  1.0000
  O   O21       1.0  0.8100093738716794  0.7202015715321011  0.8721475790005043  1.0000
  O   O22       1.0  0.6901167611029492  0.8481314238661212  0.12793857270103348  1.0000
  O   O23       1.0  0.189988366959966  0.27979917440765684  0.127853606585866  1.0000
  O   O24       1.0  0.309884540853659  0.1518632190583276  0.872055261995065  1.0000
