data_image0
_chemical_formula_structural       Cu4Mo12H32C32S8N8O40
_chemical_formula_sum              "Cu4 Mo12 H32 C32 S8 N8 O40"
_cell_length_a       7.646273073004274
_cell_length_b       10.560426254370212
_cell_length_c       20.200666708685098
_cell_angle_alpha    90.0009471674865
_cell_angle_beta     89.99994704842328
_cell_angle_gamma    89.99988583333312

_space_group_name_H-M_alt    "P 1"
_space_group_IT_number       1

loop_
  _space_group_symop_operation_xyz
  'x, y, z'

loop_
  _atom_site_type_symbol
  _atom_site_label
  _atom_site_symmetry_multiplicity
  _atom_site_fract_x
  _atom_site_fract_y
  _atom_site_fract_z
  _atom_site_occupancy
  Cu  Cu1       1.0  0.1681709558489786  0.6523647619471901  0.18787977409982654  1.0000
  Cu  Cu2       1.0  0.16817057321358675  0.34763498542260146  0.8121202231651449  1.0000
  Cu  Cu3       1.0  0.8318163859015897  0.15235423740242737  0.31210656191434066  1.0000
  Cu  Cu4       1.0  0.8318149094444748  0.8476455287099037  0.687893219246156  1.0000
  Mo  Mo1       1.0  0.44792049959732333  0.6561784234002911  0.043100365197695084  1.0000
  Mo  Mo2       1.0  0.4479210576733834  0.3438190388339918  0.9568990459283949  1.0000
  Mo  Mo3       1.0  0.5520537530292202  0.15617947245652175  0.45690481526504795  1.0000
  Mo  Mo4       1.0  0.5520500497549393  0.8438178441531574  0.5430955520182293  1.0000
  Mo  Mo5       1.0  0.1982030819264153  0.39447104891776513  0.08361030806106837  1.0000
  Mo  Mo6       1.0  0.1982030035057392  0.605528656432625  0.9163886893578874  1.0000
  Mo  Mo7       1.0  0.8017731105330341  0.8944727230255791  0.41638357696723455  1.0000
  Mo  Mo8       1.0  0.8017740110444506  0.10552613818840229  0.5836172040383544  1.0000
  Mo  Mo9       1.0  0.9253497187743349  0.34546552357105736  0.9635616267321081  1.0000
  Mo  Mo10      1.0  0.9253478749312762  0.6545322178762871  0.036439114028460985  1.0000
  Mo  Mo11      1.0  0.0746174604903445  0.8454704687371687  0.5364369458130083  1.0000
  Mo  Mo12      1.0  0.0746172275846533  0.15453130333374784  0.4635625868916548  1.0000
  H   H1        1.0  0.36819209945791437  0.7860919609164793  0.41489263185266606  1.0000
  H   H2        1.0  0.3681913808658307  0.21390750670718003  0.5851077953108613  1.0000
  H   H3        1.0  0.6317844003630526  0.28610866587793987  0.08509882646550437  1.0000
  H   H4        1.0  0.6317657089217406  0.7138923269160812  0.9148990397074425  1.0000
  H   H5        1.0  0.25788949408001116  0.37710677705891965  0.24214805961715763  1.0000
  H   H6        1.0  0.2578963193931116  0.6228918979230967  0.7578538885593458  1.0000
  H   H7        1.0  0.7421704485997579  0.8770950254246869  0.25781102214419593  1.0000
  H   H8        1.0  0.7421669624017683  0.12290675992507255  0.7421882931838935  1.0000
  H   H9        1.0  0.1975777202896722  0.3288884585275439  0.3237862545645028  1.0000
  H   H10       1.0  0.197583314130263  0.6711103008243381  0.6762167033183955  1.0000
  H   H11       1.0  0.8024640495574644  0.8288929934327525  0.17616547785062406  1.0000
  H   H12       1.0  0.8024628291800155  0.17110586678520429  0.8238333227976538  1.0000
  H   H13       1.0  0.4210970897495017  0.3362579296805777  0.30215280579101017  1.0000
  H   H14       1.0  0.42110264802575864  0.6637376762264537  0.6978480991602748  1.0000
  H   H15       1.0  0.5789472748626139  0.8362426252994121  0.19781087136477984  1.0000
  H   H16       1.0  0.5789448239968706  0.16376222913950755  0.8021889921604595  1.0000
  H   H17       1.0  0.1108879706894896  0.8669805415729355  0.08967207601704527  1.0000
  H   H18       1.0  0.1108918638495808  0.13302307362148713  0.9103269498509119  1.0000
  H   H19       1.0  0.8890752215050168  0.3669607156549687  0.4103185998635651  1.0000
  H   H20       1.0  0.8890654552875077  0.6330427581055387  0.5896811626690378  1.0000
  H   H21       1.0  0.24813122621372227  0.0031999030954921  0.08534418638934937  1.0000
  H   H22       1.0  0.24813265826584535  0.996801626278362  0.9146542997458762  1.0000
  H   H23       1.0  0.7518643855411822  0.5031959107904526  0.4146428337323583  1.0000
  H   H24       1.0  0.751856324825347  0.496804914088443  0.5853574685019749  1.0000
  H   H25       1.0  0.0253703635249636  0.021163650396154296  0.10451396502777745  1.0000
  H   H26       1.0  0.02537058873443949  0.9788391375073855  0.8954870688171963  1.0000
  H   H27       1.0  0.974640891218705  0.5211379112881217  0.3954841018085914  1.0000
  H   H28       1.0  0.9746354470292147  0.47886544277190507  0.6045141477602981  1.0000
  H   H29       1.0  0.31663484480058907  0.004733260843792699  0.34678406783474697  1.0000
  H   H30       1.0  0.3166251932319284  0.9952672257878203  0.6532139009575598  1.0000
  H   H31       1.0  0.6834392321988644  0.5047353456132128  0.15320247059033673  1.0000
  H   H32       1.0  0.6834618812179016  0.4952646280526378  0.8468003290826044  1.0000
  C   C1        1.0  0.3376911154480807  0.7132903796687343  0.3790331080484604  1.0000
  C   C2        1.0  0.3376900967730023  0.28670818367525186  0.62096683401014  1.0000
  C   C3        1.0  0.6623065160961089  0.21329964729336828  0.12095128225000447  1.0000
  C   C4        1.0  0.6622955587042584  0.7867022497611483  0.8790480590861018  1.0000
  C   C5        1.0  0.29376572025309844  0.3822740323408451  0.294434964338869  1.0000
  C   C6        1.0  0.2937713888856095  0.6177245924646683  0.7055669721551252  1.0000
  C   C7        1.0  0.7062732825366638  0.8822673149317805  0.2055246573777793  1.0000
  C   C8        1.0  0.7062696745198592  0.11773357369319365  0.7944746696357253  1.0000
  C   C9        1.0  0.13860065906733604  0.9588805693665844  0.11177669168949217  1.0000
  C   C10       1.0  0.13859833144034883  0.041121113225216284  0.8882233152132596  1.0000
  C   C11       1.0  0.8613988916211923  0.458865768594478  0.3882167628335863  1.0000
  C   C12       1.0  0.8613919440200063  0.5411367969413374  0.611783008706922  1.0000
  C   C13       1.0  0.27405200980580696  0.9695875315544809  0.2989561817919365  1.0000
  C   C14       1.0  0.2740475855098267  0.030413961593417603  0.70104378100293  1.0000
  C   C15       1.0  0.7259959000945387  0.4695840778219491  0.20103192043757181  1.0000
  C   C16       1.0  0.7260094194887685  0.5304167832298956  0.7989688852501966  1.0000
  C   C17       1.0  0.3000247598582959  0.5166969733776766  0.3161239403796116  1.0000
  C   C18       1.0  0.3000282506988512  0.48330164267532877  0.683877994076546  1.0000
  C   C19       1.0  0.6999917388662523  0.0166939626715887  0.18384488078811495  1.0000
  C   C20       1.0  0.6999843115335836  0.9833059877945229  0.8161534582010855  1.0000
  C   C21       1.0  0.24781328210154638  0.8465477113742702  0.2800419193532021  1.0000
  C   C22       1.0  0.24781238295166466  0.1534528715533483  0.7199590420476552  1.0000
  C   C23       1.0  0.7522009732652322  0.3465448158301995  0.21994511382527543  1.0000
  C   C24       1.0  0.7522063461132831  0.6534560085685398  0.7800551882972611  1.0000
  C   C25       1.0  0.1817706404780921  0.9427544655331273  0.18276189547167115  1.0000
  C   C26       1.0  0.1817697602444923  0.05724620974766029  0.8172380973689068  1.0000
  C   C27       1.0  0.8182394185578374  0.44274317410471997  0.31722943881702986  1.0000
  C   C28       1.0  0.8182348555795899  0.5572575579302992  0.682770346769267  1.0000
  C   C29       1.0  0.27970344680645104  0.730058633024157  0.3156545891005535  1.0000
  C   C30       1.0  0.2796983867604794  0.26994190529627093  0.6843458668831415  1.0000
  C   C31       1.0  0.7203111389446162  0.23005560890653234  0.18432994683647044  1.0000
  C   C32       1.0  0.7203069336512513  0.7699471539637056  0.8156703656804251  1.0000
  S   S1        1.0  0.366527587762107  0.5563016840334923  0.39511060354306676  1.0000
  S   S2        1.0  0.3665287814629323  0.44369778592464115  0.6048903191953413  1.0000
  S   S3        1.0  0.6334665655574057  0.0563114331177701  0.10486450219608656  1.0000
  S   S4        1.0  0.6334538131042178  0.9436905042586399  0.8951338584653922  1.0000
  S   S5        1.0  0.23352513119161236  0.06869581526537867  0.23373066487662428  1.0000
  S   S6        1.0  0.23352321287144653  0.9313047876233324  0.7662688160776836  1.0000
  S   S7        1.0  0.7665226078731422  0.5686890294621064  0.2662603895324693  1.0000
  S   S8        1.0  0.7665326551387396  0.4313108279868913  0.733740897987843  1.0000
  N   N1        1.0  0.2579688799352197  0.6179944360365749  0.28043744634777557  1.0000
  N   N2        1.0  0.2579686414344806  0.38200518574747355  0.7195630167086404  1.0000
  N   N3        1.0  0.7420551784506699  0.11798775434453994  0.21953819534637375  1.0000
  N   N4        1.0  0.7420533628808884  0.8820130842415846  0.7804616150480324  1.0000
  N   N5        1.0  0.19301021623713407  0.8334203600888226  0.21482917212866673  1.0000
  N   N6        1.0  0.1930104174511271  0.16658029947127762  0.7851708170516927  1.0000
  N   N7        1.0  0.8069883824487362  0.33340996965279146  0.285159727092548  1.0000
  N   N8        1.0  0.8069860413213232  0.6665917250481069  0.7148400621612863  1.0000
  O   O1        1.0  0.20381384730596605  0.23969357042371078  0.10705836575521485  1.0000
  O   O2        1.0  0.20381469895140464  0.7603042332157411  0.8929406298282809  1.0000
  O   O3        1.0  0.7961667076025803  0.7396926211268562  0.3929411049066473  1.0000
  O   O4        1.0  0.7961671079379042  0.2603062479442854  0.6070606679910211  1.0000
  O   O5        1.0  0.9618103809800047  0.42863533051040986  0.053595976254825886  1.0000
  O   O6        1.0  0.9618129367583065  0.5713633068550478  0.946403762569801  1.0000
  O   O7        1.0  0.038157867612334  0.9286428043802314  0.4464006808097805  1.0000
  O   O8        1.0  0.038157635562072294  0.07135901869947497  0.553599853833873  1.0000
  O   O9        1.0  0.984088281539307  0.3230408095038014  0.8786252141887514  1.0000
  O   O10       1.0  0.9840822288985149  0.676955902854132  0.12137501240766815  1.0000
  O   O11       1.0  0.015884192642417395  0.8230399857768729  0.6213716783888115  1.0000
  O   O12       1.0  0.015882810004441698  0.17696470924274613  0.37862836848737647  1.0000
  O   O13       1.0  0.41992110100682106  0.6748030766413249  0.12782537706540603  1.0000
  O   O14       1.0  0.4199180095951433  0.32519347781685315  0.8721735481416882  1.0000
  O   O15       1.0  0.5800844866154692  0.1748175196730059  0.37218244044071  1.0000
  O   O16       1.0  0.5800845385245452  0.8251769169351987  0.6278179177017191  1.0000
  O   O17       1.0  0.1800083781887594  0.4792718567349821  0.15913788959738887  1.0000
  O   O18       1.0  0.18000873743766016  0.5207259801996854  0.840861113738178  1.0000
  O   O19       1.0  0.8199558033440509  0.9792626074996275  0.3408512868313237  1.0000
  O   O20       1.0  0.8199567471588054  0.02073717523062869  0.6591504783237097  1.0000
  O   O21       1.0  0.9106695412310158  0.1943944283286285  0.9920506265633331  1.0000
  O   O22       1.0  0.9106647276434713  0.8056023867213536  0.007950118974044096  1.0000
  O   O23       1.0  0.08930460563249198  0.6944041383909222  0.5079392078889382  1.0000
  O   O24       1.0  0.08929733075434848  0.3055985600668336  0.4920598250051141  1.0000
  O   O25       1.0  0.4279306648065102  0.4345370343880644  0.05700340210135828  1.0000
  O   O26       1.0  0.4279293227377536  0.5654614027450433  0.9429965105717881  1.0000
  O   O27       1.0  0.5720467218397401  0.9345398666800544  0.44299429628620146  1.0000
  O   O28       1.0  0.5720464976249816  0.06546026275898947  0.5570060644983669  1.0000
  O   O29       1.0  0.4708412942379923  0.807080001465422  0.013932177784276693  1.0000
  O   O30       1.0  0.4708422041534845  0.19291648178737827  0.9860677209069021  1.0000
  O   O31       1.0  0.5291312225786057  0.30707442466126617  0.48608272935581426  1.0000
  O   O32       1.0  0.5291214842999992  0.6929219770811342  0.5139176453887939  1.0000
  O   O33       1.0  0.6916881135352212  0.39132643548025897  0.9578566067718763  1.0000
  O   O34       1.0  0.6916876927010094  0.608667845029103  0.04214321999498338  1.0000
  O   O35       1.0  0.30828939828300855  0.8913217640126444  0.5421458294347161  1.0000
  O   O36       1.0  0.30828669466644226  0.10867968126443366  0.45785511227717973  1.0000
  O   O37       1.0  0.19689019940031469  0.37059591359911065  0.9771158626035824  1.0000
  O   O38       1.0  0.19688846221941955  0.6293981120153942  0.022884125284818393  1.0000
  O   O39       1.0  0.8030834477351975  0.8705956258556281  0.522879958069751  1.0000
  O   O40       1.0  0.8030845585353319  0.12939944577627926  0.4771193373931481  1.0000
