data_image0
_chemical_formula_structural       Zn2H20C29N2O9
_chemical_formula_sum              "Zn2 H20 C29 N2 O9"
_cell_length_a       9.676939963729826
_cell_length_b       11.08659287891496
_cell_length_c       13.214517029018827
_cell_angle_alpha    89.24132447901228
_cell_angle_beta     81.46831351418818
_cell_angle_gamma    90.83485800644245

_space_group_name_H-M_alt    "P 1"
_space_group_IT_number       1

loop_
  _space_group_symop_operation_xyz
  'x, y, z'

loop_
  _atom_site_type_symbol
  _atom_site_label
  _atom_site_symmetry_multiplicity
  _atom_site_fract_x
  _atom_site_fract_y
  _atom_site_fract_z
  _atom_site_occupancy
  Zn  Zn1       1.0  0.6376247473259654  0.504880912163017  0.49521845080172255  1.0000
  Zn  Zn2       1.0  0.35238993577436173  0.49790323214196514  0.5101235444184766  1.0000
  H   H1        1.0  0.31893321133294  0.47725061537383345  0.1888719096163101  1.0000
  H   H2        1.0  0.7647912299352627  0.5099469198348031  0.16503408962424265  1.0000
  H   H3        1.0  0.20557263010792334  0.48111736307080116  0.030653361740149893  1.0000
  H   H4        1.0  0.7867218440036369  0.526677919101303  0.9745696362083792  1.0000
  H   H5        1.0  0.22784114390538696  0.49688404950607173  0.8401786611678759  1.0000
  H   H6        1.0  0.6732753985690466  0.5320208028218827  0.8167146421495914  1.0000
  H   H7        1.0  0.2757892296307177  0.10391088136205441  0.5701823699340949  1.0000
  H   H8        1.0  0.27878175071400346  0.880462368230823  0.5556873123921804  1.0000
  H   H9        1.0  0.8388146979844466  0.898505111903944  0.4691143806451237  1.0000
  H   H10       1.0  0.005159748655323404  0.1979694672398864  0.3637768968060869  1.0000
  H   H11       1.0  0.037898343078921905  0.05007493785023339  0.41088390125646873  1.0000
  H   H12       1.0  0.7898889681812664  0.9027462560395488  0.34342506125173594  1.0000
  H   H13       1.0  0.06784709525081921  0.1797223598151589  0.48409964889883383  1.0000
  H   H14       1.0  0.7782330118939954  0.1294159747286798  0.352131269494727  1.0000
  H   H15       1.0  0.15948827654200673  0.6195779896837053  0.38150544682081744  1.0000
  H   H16       1.0  0.89977868223032  0.6215206978539883  0.3744022776892209  1.0000
  H   H17       1.0  0.8011220382977983  0.3854417159421003  0.7216873783597181  1.0000
  H   H18       1.0  0.8298554793551389  0.26388960663630456  0.63272055015527  1.0000
  H   H19       1.0  0.062207145124915514  0.3946852286468713  0.7320981656422705  1.0000
  H   H20       1.0  0.08778385665769413  0.26825034746314463  0.649724673826249  1.0000
  C   C1        1.0  0.4886454659175643  0.26539752065016126  0.5176158584395623  1.0000
  C   C2        1.0  0.3743033324126089  0.9335899231733079  0.5328747036134445  1.0000
  C   C3        1.0  0.49710500035305955  0.8718345893761779  0.49498344490453416  1.0000
  C   C4        1.0  0.4644199993686159  0.5163341487121399  0.7034634139299741  1.0000
  C   C5        1.0  0.6169190397500375  0.943571704184457  0.46849746973097695  1.0000
  C   C6        1.0  0.7690058359580975  0.9401612381778931  0.42073188904698366  1.0000
  C   C7        1.0  0.7670345695901731  0.08316848489518243  0.4277617653349068  1.0000
  C   C8        1.0  0.048065601618688406  0.43903487121602314  0.5713637128030983  1.0000
  C   C9        1.0  0.08569965032172182  0.5670466837157945  0.4356848901591022  1.0000
  C   C10       1.0  0.9425577783843552  0.5677257600569945  0.4316377335092342  1.0000
  C   C11       1.0  0.9049729779533922  0.4386468306532548  0.5667271439034209  1.0000
  C   C12       1.0  0.563600198122991  0.5111436258675398  0.9719984600721928  1.0000
  C   C13       1.0  0.8703517545519053  0.35095140287045007  0.6554554721918534  1.0000
  C   C14       1.0  0.033292101704667204  0.3540256430586268  0.6627081058052013  1.0000
  C   C15       1.0  0.49782701448351946  0.7375827495681265  0.4886768639577427  1.0000
  C   C16       1.0  0.5284344247837113  0.4890350304768987  0.3016768045071814  1.0000
  C   C17       1.0  0.5396424981892025  0.49358456795898314  0.18730812083200027  1.0000
  C   C18       1.0  0.4528607508625839  0.513349415035762  0.8178656813950556  1.0000
  C   C19       1.0  0.30803143336417804  0.49178821545355333  0.9837978145656976  1.0000
  C   C20       1.0  0.3196329953288526  0.5002128321963112  0.8788966300683256  1.0000
  C   C21       1.0  0.5717923412474876  0.5198614160964893  0.8643793301789842  1.0000
  C   C22       1.0  0.9996453762482604  0.14066727318722635  0.433421783672074  1.0000
  C   C23       1.0  0.42873399398563083  0.49636322710249914  0.033365324152740114  1.0000
  C   C24       1.0  0.4204847153379775  0.48796960874133066  0.1410018748450739  1.0000
  C   C25       1.0  0.6729610662478507  0.506686267045204  0.12633473487480984  1.0000
  C   C26       1.0  0.6843443107800696  0.5156691164552143  0.02146971674510923  1.0000
  C   C27       1.0  0.6159088836707481  0.0687816941809487  0.4783996219357222  1.0000
  C   C28       1.0  0.49422422445342573  0.130932915777386  0.5139239107314566  1.0000
  C   C29       1.0  0.3729169455320048  0.0588734264657589  0.5416545705917315  1.0000
  N   N1        1.0  0.14127730423135892  0.501413815984641  0.5069319738161298  1.0000
  N   N2        1.0  0.8487509917620174  0.5022843616679111  0.49799956229985304  1.0000
  O   O1        1.0  0.6052519296439204  0.32179424021908426  0.5111207206523929  1.0000
  O   O2        1.0  0.3685755717705561  0.31324750395632606  0.5246670762352394  1.0000
  O   O3        1.0  0.5867663176295679  0.5236975419570629  0.6522824986520419  1.0000
  O   O4        1.0  0.35072822053230374  0.509312000810077  0.6657457674842391  1.0000
  O   O5        1.0  0.6172468048466585  0.6881227757992504  0.4767646305317045  1.0000
  O   O6        1.0  0.37994945002115804  0.6826670328666964  0.4975338789438127  1.0000
  O   O7        1.0  0.642367896389068  0.48995070416844305  0.3392285684140291  1.0000
  O   O8        1.0  0.4058551710627755  0.4860047090530131  0.3530330185055561  1.0000
  O   O9        1.0  0.8610911831757948  0.1355219210634502  0.48806936303812176  1.0000
