data_image0
_chemical_formula_structural       Nd4H32C40N4O36
_chemical_formula_sum              "Nd4 H32 C40 N4 O36"
_cell_length_a       9.63675235751909
_cell_length_b       11.131921421093194
_cell_length_c       13.52428199739971
_cell_angle_alpha    65.8035046367091
_cell_angle_beta     69.12609184839779
_cell_angle_gamma    64.3489560025685

_space_group_name_H-M_alt    "P 1"
_space_group_IT_number       1

loop_
  _space_group_symop_operation_xyz
  'x, y, z'

loop_
  _atom_site_type_symbol
  _atom_site_label
  _atom_site_symmetry_multiplicity
  _atom_site_fract_x
  _atom_site_fract_y
  _atom_site_fract_z
  _atom_site_occupancy
  Nd  Nd1       1.0  0.0661528685849221  0.9262541305249101  0.8125703831037684  1.0000
  Nd  Nd2       1.0  0.8050077774651573  0.5737088369201545  0.6874490107668692  1.0000
  Nd  Nd3       1.0  0.9338464555785392  0.07374649199951482  0.18742947673055702  1.0000
  Nd  Nd4       1.0  0.194987534175624  0.42629069395991354  0.31255554465325025  1.0000
  H   H1        1.0  0.5858119653023552  0.30369272035680694  0.920445276692064  1.0000
  H   H2        1.0  0.8100851092795126  0.19620120635326546  0.5795924873639464  1.0000
  H   H3        1.0  0.4141908265862782  0.6963089650545271  0.07955267568467413  1.0000
  H   H4        1.0  0.18991411957220825  0.8037994267315227  0.42040634921683323  1.0000
  H   H5        1.0  0.10410621053176074  0.35003860927619  0.9607369536479667  1.0000
  H   H6        1.0  0.41503657287236695  0.14985353905300514  0.5392557613146566  1.0000
  H   H7        1.0  0.8958966459424929  0.6499609768503732  0.03926223206799053  1.0000
  H   H8        1.0  0.5849597450214857  0.8501491522092905  0.46074583166495126  1.0000
  H   H9        1.0  0.4804720118973053  0.011606443417029802  0.8495393903248712  1.0000
  H   H10       1.0  0.3416767651681026  0.48825908561680376  0.6504883223417437  1.0000
  H   H11       1.0  0.5195316107240731  0.9883952390706625  0.1504588436842837  1.0000
  H   H12       1.0  0.6583230850365426  0.5117425692476375  0.3495125965194888  1.0000
  H   H13       1.0  0.37102389254304313  0.48486661666485287  0.9840597420585765  1.0000
  H   H14       1.0  0.8400466535496706  0.0150444039056481  0.5159151458891317  1.0000
  H   H15       1.0  0.6289766623564718  0.5151329571119092  0.01594064526720737  1.0000
  H   H16       1.0  0.1599499383096231  0.9849551633685895  0.4840858797816523  1.0000
  H   H17       1.0  0.20156736360252836  0.4515645232928308  0.05012609048048939  1.0000
  H   H18       1.0  0.7032796968521212  0.0484250819385252  0.4498758232930913  1.0000
  H   H19       1.0  0.7984334314029342  0.5484361145050302  0.9498722861115853  1.0000
  H   H20       1.0  0.2967183658491735  0.9515745006091553  0.550123719135442  1.0000
  H   H21       1.0  0.22077793811074295  0.5545635458175154  0.9176707527706116  1.0000
  H   H22       1.0  0.693118178345834  0.9453269554459993  0.582307185864572  1.0000
  H   H23       1.0  0.779225349092947  0.4454370832094342  0.08232846871871405  1.0000
  H   H24       1.0  0.3068779181984027  0.0546736682126223  0.4176925706936246  1.0000
  H   H25       1.0  0.11019307421896922  0.18847130962094383  0.595919916936758  1.0000
  H   H26       1.0  0.8945262419314022  0.31152508861762845  0.9040918943526679  1.0000
  H   H27       1.0  0.8898059452529314  0.8115303481671389  0.4040807202920576  1.0000
  H   H28       1.0  0.10547568849836625  0.6884745109929397  0.09590598647731953  1.0000
  H   H29       1.0  0.9369311563142165  0.22316458737330444  0.6570989736839794  1.0000
  H   H30       1.0  0.8171484562165079  0.2767791438911544  0.8429356828186699  1.0000
  H   H31       1.0  0.06306930327355799  0.776834996963821  0.34290039038826586  1.0000
  H   H32       1.0  0.18285166795357102  0.7232193869852281  0.15706466873373873  1.0000
  C   C1        1.0  0.72371675355879  0.07252048908431874  0.8520588612609571  1.0000
  C   C2        1.0  0.6482947971959168  0.4273756720343727  0.648013741518149  1.0000
  C   C3        1.0  0.2762867737508473  0.9274812039637299  0.14793834949465887  1.0000
  C   C4        1.0  0.35170692385403163  0.5726249522794973  0.35198593995988153  1.0000
  C   C5        1.0  0.5511356434615211  0.15077401924469314  0.8794794084582165  1.0000
  C   C6        1.0  0.5814595294472654  0.3490647786677101  0.620578823611382  1.0000
  C   C7        1.0  0.448868283851425  0.8492266279793413  0.12051804815644115  1.0000
  C   C8        1.0  0.41854126555819704  0.6509358591301507  0.3794195529806927  1.0000
  C   C9        1.0  0.500824078189517  0.2694349696218765  0.9131003496077099  1.0000
  C   C10       1.0  0.6835063218183705  0.2304076197127003  0.5869894870912448  1.0000
  C   C11       1.0  0.4991778829663787  0.7305667187130923  0.08689732113660398  1.0000
  C   C12       1.0  0.31649333776277894  0.7695940562724675  0.4130093852629102  1.0000
  C   C13       1.0  0.3405374239419815  0.3418467816604007  0.9380067313052721  1.0000
  C   C14       1.0  0.6204889837029769  0.1580148133269503  0.5621163711910953  1.0000
  C   C15       1.0  0.6594665033709574  0.6581538655636338  0.061990725309378436  1.0000
  C   C16       1.0  0.3795092696217993  0.8419847481000106  0.4378852177445226  1.0000
  C   C17       1.0  0.2294229860545444  0.29605129924747337  0.9354786438701056  1.0000
  C   C18       1.0  0.4610635806793014  0.20382523594141594  0.564562306704879  1.0000
  C   C19       1.0  0.7705810365701423  0.703949337416198  0.06451983599809805  1.0000
  C   C20       1.0  0.5389339679505982  0.7961764065732171  0.4354398137661946  1.0000
  C   C21       1.0  0.2793478126994629  0.17572327797322632  0.9048831897551466  1.0000
  C   C22       1.0  0.3599709123903951  0.3241280632537027  0.5951770279760282  1.0000
  C   C23       1.0  0.7206550437747908  0.824276308153337  0.09511599596080335  1.0000
  C   C24       1.0  0.6400288425025025  0.6758736021711016  0.40482286763166553  1.0000
  C   C25       1.0  0.4403891313861976  0.10510541556356404  0.8740573030760147  1.0000
  C   C26       1.0  0.41961210339309946  0.3946981103102801  0.6260371842618825  1.0000
  C   C27       1.0  0.5596147959267483  0.8948952316604706  0.1259401535386431  1.0000
  C   C28       1.0  0.5803877468115388  0.605303544554161  0.3739637345993572  1.0000
  C   C29       1.0  0.1563718532718568  0.12061640904109791  0.9144235088980681  1.0000
  C   C30       1.0  0.19146916466178254  0.3792898840634892  0.58556208088055  1.0000
  C   C31       1.0  0.843632969359447  0.8793821359745241  0.08557546268822584  1.0000
  C   C32       1.0  0.8085286391772258  0.6207096380456606  0.41444331943682045  1.0000
  C   C33       1.0  0.44070866091567484  0.7226080255742674  0.8256704635679882  1.0000
  C   C34       1.0  0.9889953716334503  0.7773694480711343  0.6743210425435039  1.0000
  C   C35       1.0  0.5592862726115018  0.2773852708136815  0.17433165234851342  1.0000
  C   C36       1.0  0.011003091071152897  0.22262908865252481  0.32567874574407096  1.0000
  C   C37       1.0  0.4573986844959637  0.8257495694407242  0.7064401109076072  1.0000
  C   C38       1.0  0.9897483848183413  0.6742184453943595  0.7935222056379629  1.0000
  C   C39       1.0  0.5425961656892612  0.17424682981456394  0.29356461882481005  1.0000
  C   C40       1.0  0.010253545611426782  0.32578115421620885  0.20647567519202434  1.0000
  N   N1        1.0  0.2828451977007376  0.4661000067672562  0.9728269829879537  1.0000
  N   N2        1.0  0.7218493668922292  0.0338191406521773  0.5271895503989228  1.0000
  N   N3        1.0  0.7171560926197742  0.5338995746462276  0.02717266271670841  1.0000
  N   N4        1.0  0.27814725569319193  0.9661825153464676  0.4728112651861808  1.0000
  O   O1        1.0  0.8205022490944528  0.12044193661245829  0.8568637805965128  1.0000
  O   O2        1.0  0.7978331365416411  0.379556531920933  0.6430997997076633  1.0000
  O   O3        1.0  0.17950063810592107  0.8795597382385126  0.14313519503376423  1.0000
  O   O4        1.0  0.20216845847043874  0.6204420142288927  0.3568990686025018  1.0000
  O   O5        1.0  0.7743053808529368  0.9609175968828155  0.8264295130872982  1.0000
  O   O6        1.0  0.5615848574475423  0.53893739310368  0.6736947067414506  1.0000
  O   O7        1.0  0.22569605426178194  0.039083059112137206  0.17356709863010883  1.0000
  O   O8        1.0  0.43841603286966097  0.46106323413382455  0.3263046931041629  1.0000
  O   O9        1.0  0.026360938614516344  0.15310138450242758  0.9853264861584279  1.0000
  O   O10       1.0  0.16487241422650104  0.3468031048134251  0.5146507456875257  1.0000
  O   O11       1.0  0.9736441241227354  0.8468982245343002  0.014670474694149588  1.0000
  O   O12       1.0  0.8351219526134627  0.6531974431332159  0.4853563520017588  1.0000
  O   O13       1.0  0.1869470500004057  0.04773960903806081  0.8536579100696003  1.0000
  O   O14       1.0  0.08837200760859087  0.45219881848573357  0.6462948292806986  1.0000
  O   O15       1.0  0.8130601387912505  0.9522568490425986  0.14634109324607167  1.0000
  O   O16       1.0  0.9116287837436874  0.5477996384681063  0.35371268504651  1.0000
  O   O17       1.0  0.3303392384514513  0.9094746738384172  0.6744571445034923  1.0000
  O   O18       1.0  0.9144951946418304  0.5904453599979435  0.8255162404936842  1.0000
  O   O19       1.0  0.6696550549664695  0.09051860435243952  0.3255467362876843  1.0000
  O   O20       1.0  0.08550093262853417  0.4095573523850789  0.1744833059788391  1.0000
  O   O21       1.0  0.3029611062879881  0.741265857525626  0.8859272447100395  1.0000
  O   O22       1.0  0.9301464294471626  0.758607652666342  0.6141303068540722  1.0000
  O   O23       1.0  0.697033427235887  0.2587284846863441  0.11407462534742054  1.0000
  O   O24       1.0  0.06985893798164972  0.24139092110672786  0.3858658766040008  1.0000
  O   O25       1.0  0.565975763022316  0.6265952611905448  0.8519876737245158  1.0000
  O   O26       1.0  0.044414524867655014  0.8734709045542743  0.6479702189545621  1.0000
  O   O27       1.0  0.43401733038567875  0.37340115447238287  0.1480154694895219  1.0000
  O   O28       1.0  0.9555857440966308  0.12652870090357032  0.35202709861059134  1.0000
  O   O29       1.0  0.5959963471908911  0.8174195875239649  0.6494760400603711  1.0000
  O   O30       1.0  0.06308181151797501  0.682537160984353  0.8504704284404668  1.0000
  O   O31       1.0  0.4039996811145557  0.1825809545753998  0.35053162089375434  1.0000
  O   O32       1.0  0.9369150204472663  0.31746347031099015  0.14952858649660075  1.0000
  O   O33       1.0  0.03633572411646918  0.1412506571765633  0.6519630930400099  1.0000
  O   O34       1.0  0.8294792326338795  0.35869950574532083  0.8480634069478228  1.0000
  O   O35       1.0  0.9636639047385599  0.8587489300842039  0.34803598939981123  1.0000
  O   O36       1.0  0.17051902069090383  0.6413000556816328  0.15193818198779502  1.0000
