data_image0
_chemical_formula_structural       Na2P2H16C24N4O16
_chemical_formula_sum              "Na2 P2 H16 C24 N4 O16"
_cell_length_a       7.051102999524494
_cell_length_b       9.752344632127452
_cell_length_c       11.271260083140186
_cell_angle_alpha    104.62920454404797
_cell_angle_beta     107.07740578124172
_cell_angle_gamma    104.74126018329193

_space_group_name_H-M_alt    "P 1"
_space_group_IT_number       1

loop_
  _space_group_symop_operation_xyz
  'x, y, z'

loop_
  _atom_site_type_symbol
  _atom_site_label
  _atom_site_symmetry_multiplicity
  _atom_site_fract_x
  _atom_site_fract_y
  _atom_site_fract_z
  _atom_site_occupancy
  Na  Na1       1.0  0.7567322176279915  0.41030589420868324  0.3892275006794677  1.0000
  Na  Na2       1.0  0.2431800911833548  0.5896485227483339  0.6107530497623658  1.0000
  P   P1        1.0  0.19404666145061356  0.368609303871466  0.29383473783739333  1.0000
  P   P2        1.0  0.8059297848115604  0.631352183062859  0.7061391908968204  1.0000
  H   H1        1.0  0.15472665753576104  0.5738422548233757  0.004636822412713625  1.0000
  H   H2        1.0  0.8452297469247368  0.4262357257728554  0.9953603408160917  1.0000
  H   H3        1.0  0.3162551275685673  0.8465865032569514  0.042516861354450056  1.0000
  H   H4        1.0  0.6837351354163274  0.15334166977111613  0.9574426048647809  1.0000
  H   H5        1.0  0.5970199946520294  0.9384595988212895  0.4622636122526488  1.0000
  H   H6        1.0  0.403041505635592  0.061510447193150235  0.5377574145417228  1.0000
  H   H7        1.0  0.4393090466481552  0.6661127088007249  0.42616844984194563  1.0000
  H   H8        1.0  0.5606213115698893  0.33391681403276857  0.573837642776823  1.0000
  H   H9        1.0  0.793503538902584  0.948330029982273  0.9916368944243814  1.0000
  H   H10       1.0  0.2064762266814384  0.0516740335913539  0.00838492000901429  1.0000
  H   H11       1.0  0.6929809438024535  0.6961767107169693  0.017107521968128467  1.0000
  H   H12       1.0  0.3070896621763666  0.3038252139237941  0.9829272900087673  1.0000
  H   H13       1.0  0.06381345283699597  0.9074672490524094  0.43655443511007525  1.0000
  H   H14       1.0  0.9362021247348622  0.09253917762119812  0.5634156797662371  1.0000
  H   H15       1.0  0.16545700270073377  0.16167220595428947  0.41284144353636526  1.0000
  H   H16       1.0  0.8345100548931014  0.8383315434379384  0.5871390075151268  1.0000
  C   C1        1.0  0.2817074535150041  0.6031688602613557  0.2123217138167278  1.0000
  C   C2        1.0  0.7183337031034611  0.39679511090498204  0.7876429355214043  1.0000
  C   C3        1.0  0.24828348436064118  0.6546471823980371  0.10470309814590456  1.0000
  C   C4        1.0  0.7517242733930728  0.3453492636225093  0.8952803445252898  1.0000
  C   C5        1.0  0.3386538981627395  0.806665310396518  0.12557357355345292  1.0000
  C   C6        1.0  0.6613020817951065  0.19333733554067586  0.8743975765557367  1.0000
  C   C7        1.0  0.46310959275258756  0.9075796394852703  0.25542545304665504  1.0000
  C   C8        1.0  0.5368605378915132  0.09241514270190981  0.7445695889686021  1.0000
  C   C9        1.0  0.49826319313876144  0.8573420203493854  0.3629945251125974  1.0000
  C   C10       1.0  0.5016849907563453  0.1426645164491944  0.6370097944241166  1.0000
  C   C11       1.0  0.4085312191467452  0.7050863653250233  0.3423424915701432  1.0000
  C   C12       1.0  0.5914663098967452  0.2948988121906808  0.6576384908807499  1.0000
  C   C13       1.0  0.9871496342161804  0.06967130096079902  0.19985605856215474  1.0000
  C   C14       1.0  0.012915285486492675  0.9303406359090118  0.8001532756237496  1.0000
  C   C15       1.0  0.8552749828119485  0.9384678922458319  0.08829120215073526  1.0000
  C   C16       1.0  0.14478095760358656  0.0615260875160146  0.9117286539149632  1.0000
  C   C17       1.0  0.7983483786205666  0.798223320051534  0.10213925128449834  1.0000
  C   C18       1.0  0.20163100666075448  0.20177071421328216  0.8978998624520428  1.0000
  C   C19       1.0  0.8739998232483825  0.790692876667066  0.22891797039786607  1.0000
  C   C20       1.0  0.12604587932313646  0.20929554390458094  0.7711015371542446  1.0000
  C   C21       1.0  0.007730691828385344  0.91977249409522  0.34041839245696087  1.0000
  C   C22       1.0  0.9923300498226693  0.08019961477391044  0.6595834222051025  1.0000
  C   C23       1.0  0.0650583467854062  0.05989190722095121  0.3263856961373719  1.0000
  C   C24       1.0  0.9349197858471568  0.9400949541333218  0.6736214869523637  1.0000
  N   N1        1.0  0.5630218297514062  0.06596861983064173  0.2793021018962564  1.0000
  N   N2        1.0  0.43680953160771446  0.9340610434684039  0.7207059753529778  1.0000
  N   N3        1.0  0.8046085204498966  0.648501386919243  0.24837828185227562  1.0000
  N   N4        1.0  0.1953111615930041  0.3515329417894791  0.7516384832496287  1.0000
  O   O1        1.0  0.5334766218502551  0.1116480745098727  0.1839576530814142  1.0000
  O   O2        1.0  0.4665526706739838  0.8883788449721451  0.8160299436017483  1.0000
  O   O3        1.0  0.6790340573646886  0.15275309452883332  0.3962329990535949  1.0000
  O   O4        1.0  0.320999416522035  0.8472760906325406  0.6037584879959397  1.0000
  O   O5        1.0  0.702015640850284  0.5293428284191891  0.15005347695931448  1.0000
  O   O6        1.0  0.2980706454891759  0.47067251466634735  0.8499790131949824  1.0000
  O   O7        1.0  0.8481389383875707  0.6517579246117151  0.3651910118439475  1.0000
  O   O8        1.0  0.15186148216425716  0.3482320572055784  0.6348154723439876  1.0000
  O   O9        1.0  0.18613935109914334  0.45159011206759914  0.18190208440807962  1.0000
  O   O10       1.0  0.8139536188016407  0.5483938128748846  0.8180751563220454  1.0000
  O   O11       1.0  0.02946399995207826  0.20333478454949724  0.1778194037504051  1.0000
  O   O12       1.0  0.9705759005797674  0.7966937441574374  0.8222209966358491  1.0000
  O   O13       1.0  0.40801429288532626  0.36130159279581875  0.35219872549365766  1.0000
  O   O14       1.0  0.5919972746834715  0.638743496957858  0.6477674456065686  1.0000
  O   O15       1.0  0.08681779059963905  0.4284810616736296  0.38042466650632184  1.0000
  O   O16       1.0  0.9131646612805964  0.5714762823587949  0.6195911411005782  1.0000
