data_image0
_chemical_formula_structural       Ag2GeH14C12O16
_chemical_formula_sum              "Ag2 Ge1 H14 C12 O16"
_cell_length_a       6.248177457595187
_cell_length_b       8.043255225170752
_cell_length_c       9.36316290792712
_cell_angle_alpha    107.00111953220845
_cell_angle_beta     77.88103828289174
_cell_angle_gamma    94.61309768721996

_space_group_name_H-M_alt    "P 1"
_space_group_IT_number       1

loop_
  _space_group_symop_operation_xyz
  'x, y, z'

loop_
  _atom_site_type_symbol
  _atom_site_label
  _atom_site_symmetry_multiplicity
  _atom_site_fract_x
  _atom_site_fract_y
  _atom_site_fract_z
  _atom_site_occupancy
  Ag  Ag1       1.0  0.286190047048855  0.08999291570073348  0.5314352193940979  1.0000
  Ag  Ag2       1.0  0.7137944787895375  0.9100171575249831  0.46857464413368194  1.0000
  Ge  Ge1       1.0  0.4999967532885066  0.4999990008716182  0.5000064714310499  1.0000
  H   H1        1.0  0.26593131272141335  0.7994390377111673  0.02930268587679309  1.0000
  H   H2        1.0  0.7340719453847484  0.2005639666129682  0.9706981284792566  1.0000
  H   H3        1.0  0.11815688777655707  0.16047431895224656  0.8377862252369612  1.0000
  H   H4        1.0  0.8818122609234891  0.8395166817594628  0.16222385944142556  1.0000
  H   H5        1.0  0.3694285131371657  0.1299659923132097  0.8191696375369093  1.0000
  H   H6        1.0  0.6305515435608625  0.8700443656494343  0.1808242929487989  1.0000
  H   H7        1.0  0.2011845619284642  0.5462091895403701  0.16399926260263703  1.0000
  H   H8        1.0  0.7988190791298633  0.4537925182616149  0.8359990521649866  1.0000
  H   H9        1.0  0.9871800040256248  0.5218402473247323  0.3125480338843333  1.0000
  H   H10       1.0  0.012818221267913479  0.4781564828048914  0.6874427931618002  1.0000
  H   H11       1.0  0.9891234650211727  0.19349142777311104  0.2787501028121541  1.0000
  H   H12       1.0  0.010880898664545712  0.8065102841802914  0.721244942584214  1.0000
  H   H13       1.0  0.1039013474361994  0.22543739703867524  0.10124019608223023  1.0000
  H   H14       1.0  0.8961138929631218  0.7745613453796522  0.8987547197494765  1.0000
  C   C1        1.0  0.271445340038639  0.3668968359651359  0.2827261617206035  1.0000
  C   C2        1.0  0.7285589681245952  0.6331009795027783  0.7172668338625814  1.0000
  C   C3        1.0  0.5132268884529623  0.3705319783322095  0.19984078056952376  1.0000
  C   C4        1.0  0.4867812622965315  0.629468270408317  0.800158055692407  1.0000
  C   C5        1.0  0.16583595775467333  0.53294281978998  0.2805730294348053  1.0000
  C   C6        1.0  0.8341707618926648  0.46705358664483027  0.7194227499863575  1.0000
  C   C7        1.0  0.23712049897886087  0.7008985656065292  0.3833309297479276  1.0000
  C   C8        1.0  0.7628657083568982  0.2991232678611055  0.6166709987067877  1.0000
  C   C9        1.0  0.14646390964579584  0.20733640199938463  0.20353550732453135  1.0000
  C   C10       1.0  0.853547177616349  0.7926598432799139  0.7964622033889415  1.0000
  C   C11       1.0  0.2698055254227397  0.04037998666754559  0.15625219580955024  1.0000
  C   C12       1.0  0.7301917363676083  0.9596167379268508  0.8437429903982621  1.0000
  O   O1        1.0  0.2652088396053855  0.3661407274931817  0.4363335912088645  1.0000
  O   O2        1.0  0.7347968441375129  0.6338570337949605  0.5636604114018982  1.0000
  O   O3        1.0  0.6525323210741049  0.4262810166223403  0.29027597406043537  1.0000
  O   O4        1.0  0.3474655239933995  0.5737155871582473  0.7097310343162989  1.0000
  O   O5        1.0  0.5632344753901891  0.3325752972669278  0.05854610651762469  1.0000
  O   O6        1.0  0.4367866747710636  0.667434919272587  0.9414578970735125  1.0000
  O   O7        1.0  0.384876725858156  0.7041018720300017  0.4645126524658353  1.0000
  O   O8        1.0  0.6151149930627042  0.29589624360800576  0.5354939171794373  1.0000
  O   O9        1.0  0.15353397408753014  0.8394208336733585  0.38794618936220365  1.0000
  O   O10       1.0  0.8464810611006116  0.16055706592895544  0.6120446133756802  1.0000
  O   O11       1.0  0.4526850775267164  0.0316204739919286  0.18332218042579745  1.0000
  O   O12       1.0  0.5473136613688608  0.9683760728412737  0.8166880145593469  1.0000
  O   O13       1.0  0.16321963719388316  0.9046870490546509  0.07914479554032988  1.0000
  O   O14       1.0  0.8367789277748725  0.0953109817485469  0.9208452617229744  1.0000
  O   O15       1.0  0.26449417230805483  0.19687480799138507  0.7930191201321792  1.0000
  O   O16       1.0  0.7354835480332508  0.8031341757446029  0.20699184422980474  1.0000
