data_image0
_chemical_formula_structural       Nd4H36C32N4O36
_chemical_formula_sum              "Nd4 H36 C32 N4 O36"
_cell_length_a       6.502106997443846
_cell_length_b       12.65067161154415
_cell_length_c       14.9021
_cell_angle_alpha    107.40993009846527
_cell_angle_beta     97.12676477439128
_cell_angle_gamma    103.85149060481193

_space_group_name_H-M_alt    "P 1"
_space_group_IT_number       1

loop_
  _space_group_symop_operation_xyz
  'x, y, z'

loop_
  _atom_site_type_symbol
  _atom_site_label
  _atom_site_symmetry_multiplicity
  _atom_site_fract_x
  _atom_site_fract_y
  _atom_site_fract_z
  _atom_site_occupancy
  Nd  Nd1       1.0  0.1456013035294035  0.8375345986364379  0.3033838093809891  1.0000
  Nd  Nd2       1.0  0.8544104779299957  0.1624702039484589  0.6966209337399292  1.0000
  Nd  Nd3       1.0  0.3488627039920047  0.6632487105820744  0.6959545156457951  1.0000
  Nd  Nd4       1.0  0.6511235918522402  0.3367491624908467  0.3040410483565665  1.0000
  H   H1        1.0  0.8891993443317716  0.6883439381985497  0.06343965861526604  1.0000
  H   H2        1.0  0.11080628408520003  0.3116496039293892  0.9365585360204778  1.0000
  H   H3        1.0  0.9072755590709248  0.6853529875924592  0.8951647557227533  1.0000
  H   H4        1.0  0.09272137303572948  0.3146388221574838  0.1048331991816411  1.0000
  H   H5        1.0  0.3308340685616784  0.0334305643330737  0.020998285558682998  1.0000
  H   H6        1.0  0.669154510540821  0.9665629777948579  0.9789969730204575  1.0000
  H   H7        1.0  0.5975983839305029  0.8156702559781761  0.9414474916414906  1.0000
  H   H8        1.0  0.4024189106673219  0.18432761709473766  0.05855444771726331  1.0000
  H   H9        1.0  0.5775737387144987  0.8166299933866767  0.10897147804529082  1.0000
  H   H10       1.0  0.42244295256756453  0.18336961206423297  0.8910315397279903  1.0000
  H   H11       1.0  0.17459254664432677  0.46421580288796344  0.9809578272955408  1.0000
  H   H12       1.0  0.8253866861238065  0.5357889996969263  0.019043811799207257  1.0000
  H   H13       1.0  0.745686670705403  0.9301328009657224  0.3196015359608353  1.0000
  H   H14       1.0  0.25433165381086537  0.06987546637515858  0.6804044414043561  1.0000
  H   H15       1.0  0.8416249118401637  0.9813912672317784  0.2421737431681876  1.0000
  H   H16       1.0  0.1583868696192354  0.0186135353531114  0.7578296578600074  1.0000
  H   H17       1.0  0.9246909551127372  0.8571650398718447  0.46859565857096896  1.0000
  H   H18       1.0  0.07531867309322139  0.14284149509104077  0.5314080659237845  1.0000
  H   H19       1.0  0.7237987346076549  0.8057506595863585  0.38682878381687397  1.0000
  H   H20       1.0  0.27621257354078915  0.1942532768095404  0.6131737005300765  1.0000
  H   H21       1.0  0.30980327724065393  0.6616783099307993  0.36813005930955717  1.0000
  H   H22       1.0  0.6901920582200416  0.3383247602761017  0.6318733535256841  1.0000
  H   H23       1.0  0.057905111319790606  0.6300104402062985  0.363160951453871  1.0000
  H   H24       1.0  0.9420886742032195  0.36999263000060256  0.6368403643406922  1.0000
  H   H25       1.0  0.664170643894856  0.525726482120632  0.7586886517361222  1.0000
  H   H26       1.0  0.3358311513261754  0.4742713909522891  0.24131043546761793  1.0000
  H   H27       1.0  0.7577345377623388  0.5794189394678071  0.6813170721815923  1.0000
  H   H28       1.0  0.24225391133534654  0.42057720122711817  0.31868018149329913  1.0000
  H   H29       1.0  0.6264683120297149  0.6304322742477595  0.5430958294858286  1.0000
  H   H30       1.0  0.37352255033103876  0.36955693693519  0.4568984526237189  1.0000
  H   H31       1.0  0.7919309595502355  0.7347110351994457  0.6238500695511604  1.0000
  H   H32       1.0  0.208056672930347  0.2652807745504973  0.37614201357278193  1.0000
  H   H33       1.0  0.4128050152640128  0.8593937441607123  0.6262322200352202  1.0000
  H   H34       1.0  0.5871909235124447  0.14060759366819298  0.3737667591536891  1.0000
  H   H35       1.0  0.2686028146433869  0.7607027684276487  0.5292541670748818  1.0000
  H   H36       1.0  0.7313942007597943  0.2392977032122587  0.47074397933438666  1.0000
  C   C1        1.0  0.9887122657261712  0.7618669264394029  0.04997321308939456  1.0000
  C   C2        1.0  0.011282039816087809  0.238125749499531  0.9500241486003277  1.0000
  C   C3        1.0  0.9970622875689868  0.761629590654266  0.9569398470092525  1.0000
  C   C4        1.0  0.0029334379061367946  0.23836568385166146  0.043058251585087186  1.0000
  C   C5        1.0  0.12450590677362781  0.860392460074074  0.9455807696016836  1.0000
  C   C6        1.0  0.8754831456398192  0.1396019482428557  0.054415405658687604  1.0000
  C   C7        1.0  0.2327113489289515  0.9554168577835112  0.028271132242458828  1.0000
  C   C8        1.0  0.7672791234173673  0.0445801491004119  0.9717277930616177  1.0000
  C   C9        1.0  0.21945332523644367  0.9476791914747267  0.11852865750051216  1.0000
  C   C10       1.0  0.7805419269277251  0.052315216842203  0.8814678533662389  1.0000
  C   C11       1.0  0.150543917078366  0.8671444033044438  0.8478872649943201  1.0000
  C   C12       1.0  0.8494512883775156  0.13286126546944388  0.1521141166584954  1.0000
  C   C13       1.0  0.3362672533008463  0.04640867407274379  0.2100660727888197  1.0000
  C   C14       1.0  0.6637350152311469  0.9535900651891751  0.7899305758643466  1.0000
  C   C15       1.0  0.5023882234267488  0.7402754333151477  0.9539292288012078  1.0000
  C   C16       1.0  0.49762166478883074  0.2597259045137577  0.046072518641125305  1.0000
  C   C17       1.0  0.49228132503578326  0.7397851703429337  0.046835007414742204  1.0000
  C   C18       1.0  0.5077291664955581  0.2602144351079758  0.9531683457985239  1.0000
  C   C19       1.0  0.36992189012124743  0.6392041702187682  0.05740328462107406  1.0000
  C   C20       1.0  0.6300807217168937  0.3607980337991349  0.9425996310408992  1.0000
  C   C21       1.0  0.2692003831597631  0.5434608356419517  0.9742744522628686  1.0000
  C   C22       1.0  0.7307913791146134  0.4565413683759516  0.025727876087948676  1.0000
  C   C23       1.0  0.2853904164112393  0.5518585379663249  0.8844197928065399  1.0000
  C   C24       1.0  0.7146018191740922  0.44814453224057615  0.1155821101327916  1.0000
  C   C25       1.0  0.3411033982632148  0.6298683852108126  0.15411751637827817  1.0000
  C   C26       1.0  0.6589015801297009  0.3701381497520727  0.8458879695507876  1.0000
  C   C27       1.0  0.17463378927783418  0.4518873348959289  0.7931063203398951  1.0000
  C   C28       1.0  0.825359522934221  0.5481148691219744  0.20689676295888404  1.0000
  C   C29       1.0  0.4105496287522357  0.0251238118533692  0.5195476771241303  1.0000
  C   C30       1.0  0.5894711090271016  0.9748775259755362  0.4804553286757169  1.0000
  C   C31       1.0  0.09071096651052808  0.4787660456568972  0.4780454225861562  1.0000
  C   C32       1.0  0.9092521269768028  0.5212205669590588  0.5219326043180743  1.0000
  N   N1        1.0  0.10161269821557534  0.8506564957495825  0.12936830571813823  1.0000
  N   N2        1.0  0.8983876770725914  0.1493387787563449  0.8706307156273427  1.0000
  N   N3        1.0  0.3977674274836502  0.6503390297731569  0.8739532851792263  1.0000
  N   N4        1.0  0.6022295879195313  0.3496614418667505  0.1260482164618537  1.0000
  O   O1        1.0  0.1277451945502861  0.7720273233723489  0.7810238943390075  1.0000
  O   O2        1.0  0.8722445444754567  0.22797401445655643  0.21897005191899413  1.0000
  O   O3        1.0  0.19500815582785694  0.9672602599373121  0.8420527199132977  1.0000
  O   O4        1.0  0.8049898061972341  0.0327419440805841  0.15795128613662265  1.0000
  O   O5        1.0  0.4023259594584728  0.1467783240816871  0.2051542540100044  1.0000
  O   O6        1.0  0.5976753624516036  0.853218682802236  0.794842574419775  1.0000
  O   O7        1.0  0.35933452031465407  0.021943165856974593  0.2871982995629807  1.0000
  O   O8        1.0  0.6406651216529295  0.9780564395939421  0.7127984269218715  1.0000
  O   O9        1.0  0.36556474929015786  0.7236004289369616  0.22310868335409137  1.0000
  O   O10       1.0  0.6344389391747001  0.27640090889194363  0.7768947416209573  1.0000
  O   O11       1.0  0.2925785757946286  0.5289729584807858  0.1582612658877949  1.0000
  O   O12       1.0  0.7074348856072632  0.4710292455371174  0.8417435791780508  1.0000
  O   O13       1.0  0.1081746083392687  0.35174635878215094  0.7983390677431361  1.0000
  O   O14       1.0  0.8918227503700606  0.6482575776137479  0.2016619904431209  1.0000
  O   O15       1.0  0.15356858555882266  0.47537058478928157  0.7153961232459382  1.0000
  O   O16       1.0  0.846426619897059  0.5246350839846059  0.2846045873605121  1.0000
  O   O17       1.0  0.2242479474006486  0.9878166572103452  0.46640542887180897  1.0000
  O   O18       1.0  0.7757830366266701  0.012186412996555897  0.5336046110246074  1.0000
  O   O19       1.0  0.467056345284611  0.1014264005850904  0.6034137426169368  1.0000
  O   O20       1.0  0.5329767452878683  0.8985861977007729  0.39659144994991646  1.0000
  O   O21       1.0  0.2769907637613613  0.5122659051097216  0.5315352814967866  1.0000
  O   O22       1.0  0.7230125813973485  0.4877319679631995  0.4684632185621851  1.0000
  O   O23       1.0  0.03744107181573501  0.4123042301182878  0.3909710833336889  1.0000
  O   O24       1.0  0.9625499571380658  0.5877023048445977  0.6090296212028647  1.0000
  O   O25       1.0  0.8636412291871665  0.9341259322411587  0.28452169431701435  1.0000
  O   O26       1.0  0.1363735221427831  0.06588146891072448  0.7154831985637529  1.0000
  O   O27       1.0  0.8656248345451374  0.7947405312475126  0.4062900516401414  1.0000
  O   O28       1.0  0.13438337372794956  0.20526340514838637  0.5937129359499951  1.0000
  O   O29       1.0  0.19913219206874544  0.6931928642028636  0.3953806484924982  1.0000
  O   O30       1.0  0.8008661132624937  0.3068128045710239  0.6046209009635107  1.0000
  O   O31       1.0  0.633527693359511  0.5669648740712318  0.7128209346041531  1.0000
  O   O32       1.0  0.36646553555602407  0.4330286680567069  0.2871732335870334  1.0000
  O   O33       1.0  0.6383712263973107  0.7047356987747689  0.5925957098149723  1.0000
  O   O34       1.0  0.3616159327723167  0.29525524478617626  0.4073967987204554  1.0000
  O   O35       1.0  0.2773416607455488  0.7941454594066784  0.5991077709342463  1.0000
  O   O36       1.0  0.7226548813466849  0.2058541460442314  0.40089080088651496  1.0000
