data_image0
_chemical_formula_structural       Zr6H42C88Cl10O32
_chemical_formula_sum              "Zr6 H42 C88 Cl10 O32"
_cell_length_a       19.266815252125628
_cell_length_b       19.245237398415263
_cell_length_c       19.245964777949442
_cell_angle_alpha    59.224146082097306
_cell_angle_beta     59.96057617670958
_cell_angle_gamma    59.96749543985218

_space_group_name_H-M_alt    "P 1"
_space_group_IT_number       1

loop_
  _space_group_symop_operation_xyz
  'x, y, z'

loop_
  _atom_site_type_symbol
  _atom_site_label
  _atom_site_symmetry_multiplicity
  _atom_site_fract_x
  _atom_site_fract_y
  _atom_site_fract_z
  _atom_site_occupancy
  Zr  Zr1       1.0  0.9080881674395584  0.40686388051257405  0.5931214261405133  1.0000
  Zr  Zr2       1.0  0.09189944520651479  0.5926528221190493  0.40735854317743747  1.0000
  Zr  Zr3       1.0  0.09173579478985519  0.4065719275511767  0.5934365567835301  1.0000
  Zr  Zr4       1.0  0.9082958824780861  0.5929659570331793  0.4070524775309892  1.0000
  Zr  Zr5       1.0  0.908703748039869  0.5910447290512052  0.5915130768997655  1.0000
  Zr  Zr6       1.0  0.0912421395246313  0.4084728528956487  0.4089626122539087  1.0000
  H   H1        1.0  0.9278795692680362  0.42529881964960464  0.7185273586277744  1.0000
  H   H2        1.0  0.9283022562039562  0.7180427814850673  0.42577111237520887  1.0000
  H   H3        1.0  0.216565741026784  0.4276469931279508  0.42851112725995216  1.0000
  H   H4        1.0  0.9272515251989261  0.4280125716191491  0.4281290503891242  1.0000
  H   H5        1.0  0.31814405758743186  0.6138535824806296  0.1779539289952012  1.0000
  H   H6        1.0  0.6785084140237884  0.3892018305275541  0.8190253087487065  1.0000
  H   H7        1.0  0.6782437025624688  0.6118810378952728  0.8188108391978304  1.0000
  H   H8        1.0  0.5535338648295252  0.6084128456213163  0.9457839130332812  1.0000
  H   H9        1.0  0.3185629790779174  0.3910040431303087  0.17839416854436504  1.0000
  H   H10       1.0  0.4460000412551821  0.39164718109624636  0.05426740790242942  1.0000
  H   H11       1.0  0.11321842243796  0.818634492789485  0.38945637508553693  1.0000
  H   H12       1.0  0.8899961878221133  0.17749416688315742  0.6142278461164494  1.0000
  H   H13       1.0  0.11190767963866223  0.17810987955509458  0.3912363342934384  1.0000
  H   H14       1.0  0.10775857812193833  0.054208654774051  0.3916388204960768  1.0000
  H   H15       1.0  0.890882495032635  0.8185979831073027  0.6119909438109374  1.0000
  H   H16       1.0  0.8919172970349437  0.9457587316205716  0.6082962262020286  1.0000
  H   H17       1.0  0.31504864830576207  0.18078265322827744  0.39175968793665567  1.0000
  H   H18       1.0  0.6817156708672769  0.8154221794054949  0.6119765642052429  1.0000
  H   H19       1.0  0.6753765924542492  0.8218066259198052  0.38954880255211316  1.0000
  H   H20       1.0  0.5507851124710611  0.9488731654864323  0.3916037829819317  1.0000
  H   H21       1.0  0.3218640409035132  0.17465494554488717  0.6138036653571531  1.0000
  H   H22       1.0  0.4496206442003228  0.050947487961913354  0.6083522674841363  1.0000
  H   H23       1.0  0.8910537929175036  0.6117674185219427  0.8156471963707048  1.0000
  H   H24       1.0  0.11245601679567585  0.3914985677303306  0.1811351582860681  1.0000
  H   H25       1.0  0.8897767646847399  0.6135779253392142  0.1749776553119063  1.0000
  H   H26       1.0  0.8913225891541146  0.608301454622257  0.05109501375519438  1.0000
  H   H27       1.0  0.11342691655264049  0.3893696299738707  0.8221152340702461  1.0000
  H   H28       1.0  0.10896026187241135  0.3916062761445715  0.9490475831303867  1.0000
  H   H29       1.0  0.11304073816447871  0.8199385010202249  0.17710761659945015  1.0000
  H   H30       1.0  0.17692332075795042  0.9348147714490479  0.06518552565891145  1.0000
  H   H31       1.0  0.8901399443506648  0.819779134163575  0.17728948851468815  1.0000
  H   H32       1.0  0.8231872494095214  0.9345574386217875  0.06542346883595937  1.0000
  H   H33       1.0  0.8898362867381167  0.17668360005029624  0.820512465362576  1.0000
  H   H34       1.0  0.823067437448266  0.06475258433761162  0.9353281929109726  1.0000
  H   H35       1.0  0.11271436937112607  0.17687651145602257  0.8203184452584225  1.0000
  H   H36       1.0  0.17678314115329394  0.06498547146227908  0.9350779284228566  1.0000
  H   H37       1.0  0.31713165267348137  0.3886499365607959  0.6146845033929225  1.0000
  H   H38       1.0  0.6795583735753823  0.614130377950083  0.3891548401488406  1.0000
  H   H39       1.0  0.676707629085243  0.388985352516535  0.6140476789986593  1.0000
  H   H40       1.0  0.5523734662386841  0.3903832181273329  0.610104226942056  1.0000
  H   H41       1.0  0.32025251259844373  0.6135232562028959  0.3895349999808175  1.0000
  H   H42       1.0  0.44713726932928205  0.6095524163814401  0.3909566679419427  1.0000
  C   C1        1.0  0.7646137597675774  0.5006605570276434  0.7316947291947076  1.0000
  C   C2        1.0  0.0030162758834248768  0.7312560636241655  0.5010218105272699  1.0000
  C   C3        1.0  0.23062357658488966  0.5037996252936736  0.26394209138390323  1.0000
  C   C4        1.0  0.0016217461504907905  0.26346783038898985  0.50421848136547  1.0000
  C   C5        1.0  0.001871377853447663  0.2613916921898322  0.7345526319533846  1.0000
  C   C6        1.0  0.7643138257893296  0.5024697731189319  0.5020608239825889  1.0000
  C   C7        1.0  0.0022017265290303345  0.7340442977104756  0.2618457147243872  1.0000
  C   C8        1.0  0.2311678453153619  0.5015532928951173  0.5029931908700292  1.0000
  C   C9        1.0  0.0025377553374852156  0.5008604375040091  0.7318590755720252  1.0000
  C   C10       1.0  0.23041419121651072  0.2631944973041128  0.5041127065317141  1.0000
  C   C11       1.0  0.00223542903871982  0.5037418241848143  0.2636329949638565  1.0000
  C   C12       1.0  0.7648211249181571  0.7314595527701754  0.5012562750508494  1.0000
  C   C13       1.0  0.3084927881232744  0.5031727850632706  0.1869944462011829  1.0000
  C   C14       1.0  0.6874063202563152  0.5006141580638397  0.8093003241665356  1.0000
  C   C15       1.0  0.3466168607303999  0.5648177046739775  0.15009959540009993  1.0000
  C   C16       1.0  0.42037704344470234  0.5652949402023849  0.07887722664778352  1.0000
  C   C17       1.0  0.6504899038309871  0.43775454802093333  0.8473807560169818  1.0000
  C   C18       1.0  0.5788960750900574  0.4350376229789956  0.9208579614937095  1.0000
  C   C19       1.0  0.6507079577642186  0.5620402957537038  0.8468005740979122  1.0000
  C   C20       1.0  0.5794520787161872  0.5592556139330752  0.9194608609533931  1.0000
  C   C21       1.0  0.3463969709525828  0.4405286540392552  0.15071980066140608  1.0000
  C   C22       1.0  0.4193095246782477  0.4416088383030824  0.07977651416497623  1.0000
  C   C23       1.0  0.4609643524434902  0.5027272199063615  0.038807752003428786  1.0000
  C   C24       1.0  0.5386463079068375  0.4972785727089645  0.9612510216562457  1.0000
  C   C25       1.0  0.0025704384637422434  0.8089883043963012  0.5008182119622688  1.0000
  C   C26       1.0  0.0012536645868977802  0.18660986507921248  0.5034865685367294  1.0000
  C   C27       1.0  0.0642499808545054  0.8470818445020496  0.4379223875466067  1.0000
  C   C28       1.0  0.06499415658468187  0.9206547114492805  0.4351044574794756  1.0000
  C   C29       1.0  0.9383558465481344  0.14973789634809967  0.5650940618050769  1.0000
  C   C30       1.0  0.9352579187441775  0.07862594910999117  0.5654415185807053  1.0000
  C   C31       1.0  0.062208194968817965  0.1504381636468111  0.4407452680942683  1.0000
  C   C32       1.0  0.05906326887452447  0.07961711306437985  0.44169495026105926  1.0000
  C   C33       1.0  0.9402493453649826  0.8465985078325249  0.5621356307385241  1.0000
  C   C34       1.0  0.9415548749956598  0.9193513207044501  0.5592242151315149  1.0000
  C   C35       1.0  0.00257389408642469  0.9611228718678003  0.49726723631238917  1.0000
  C   C36       1.0  0.9972494312147475  0.03865611395123378  0.5027807421795458  1.0000
  C   C37       1.0  0.30850464678941597  0.18645591412074936  0.5032563958297941  1.0000
  C   C38       1.0  0.6875945733871234  0.809060556094053  0.5011594819780144  1.0000
  C   C39       1.0  0.3449598467280666  0.15153696129853964  0.4399268528874956  1.0000
  C   C40       1.0  0.4187999554512131  0.08057405789772785  0.436072494126222  1.0000
  C   C41       1.0  0.652383691727927  0.8452473809425101  0.5632177506747951  1.0000
  C   C42       1.0  0.5808968458897183  0.9186458743468152  0.5646131913273821  1.0000
  C   C43       1.0  0.6491950867222369  0.8483851906963835  0.4391358435907975  1.0000
  C   C44       1.0  0.5780583878118577  0.9210337261028342  0.4410434384535335  1.0000
  C   C45       1.0  0.34831800363254933  0.14849075273568252  0.5638412166373145  1.0000
  C   C46       1.0  0.4213600526525667  0.07782305691668506  0.5599266536021404  1.0000
  C   C47       1.0  0.4612164912586252  0.038708407170865634  0.4977499453051594  1.0000
  C   C48       1.0  0.538993462650559  0.9609669096578629  0.5024091730125092  1.0000
  C   C49       1.0  0.002336577677745518  0.5009552908765611  0.8093251322749923  1.0000
  C   C50       1.0  0.0018392847155580148  0.5030073460367177  0.1867923597779111  1.0000
  C   C51       1.0  0.9393337122637039  0.563058353361619  0.8454655473848404  1.0000
  C   C52       1.0  0.9360554677124993  0.564545556210831  0.9188120522498266  1.0000
  C   C53       1.0  0.0636743391985846  0.43970531432255894  0.15185229345819812  1.0000
  C   C54       1.0  0.06473803682334273  0.4359650984426864  0.08078200124965924  1.0000
  C   C55       1.0  0.9394750448564155  0.5636578120463581  0.14876917359845265  1.0000
  C   C56       1.0  0.9410944171414216  0.5598376974946573  0.07800831495740813  1.0000
  C   C57       1.0  0.0634511220295693  0.4389884883786476  0.8486399029471201  1.0000
  C   C58       1.0  0.06006791641573276  0.4409965869802689  0.921216951857467  1.0000
  C   C59       1.0  0.9978439685796089  0.5023799142840344  0.9611248519648826  1.0000
  C   C60       1.0  0.0025441239275851104  0.4976836100012817  0.03888380739781641  1.0000
  C   C61       1.0  0.06445288278771956  0.8498660666370198  0.14760320242803723  1.0000
  C   C62       1.0  0.06503008675441167  0.9241911023034176  0.0745296995191325  1.0000
  C   C63       1.0  0.1283282767697925  0.9637359197576814  0.03582370370845209  1.0000
  C   C64       1.0  0.9382598304580158  0.8497896974582697  0.14769817540290828  1.0000
  C   C65       1.0  0.9363584970298927  0.9240983418526482  0.0746163514892331  1.0000
  C   C66       1.0  0.8721883500038315  0.9635602965151263  0.03598772860985359  1.0000
  C   C67       1.0  0.9380150624186213  0.14717810096539807  0.8504305965903072  1.0000
  C   C68       1.0  0.9362270351825615  0.07407874586260736  0.924721810993809  1.0000
  C   C69       1.0  0.8721096786145212  0.03536364576214596  0.9642440186999367  1.0000
  C   C70       1.0  0.06418500360143037  0.14726151502084417  0.8503319770440072  1.0000
  C   C71       1.0  0.0648941586378271  0.07416306027182884  0.9246169788916845  1.0000
  C   C72       1.0  0.1282444766069232  0.035533251812424234  0.9640644864210374  1.0000
  C   C73       1.0  0.0018174320738139377  0.8128476446262383  0.18375719650703806  1.0000
  C   C74       1.0  0.0005586045157815095  0.9618738560475746  0.03707061077507487  1.0000
  C   C75       1.0  0.001499843680989008  0.18335951519988206  0.8133879994874746  1.0000
  C   C76       1.0  0.0004958627884406876  0.03658527829295363  0.9623796097786225  1.0000
  C   C77       1.0  0.3088329565761683  0.5013214203125215  0.5026948964437422  1.0000
  C   C78       1.0  0.6871695985125613  0.5021585769969406  0.5018488940722606  1.0000
  C   C79       1.0  0.34608041124552363  0.43768979311845857  0.5652215400778857  1.0000
  C   C80       1.0  0.4195370027656651  0.43466849521844614  0.5661739515270271  1.0000
  C   C81       1.0  0.6510469848113373  0.5646583808559739  0.4381979818349251  1.0000
  C   C82       1.0  0.5796258615796147  0.5656182820921316  0.43521598454618987  1.0000
  C   C83       1.0  0.649756511412001  0.4391766859823532  0.5636853660625932  1.0000
  C   C84       1.0  0.5786756788631491  0.4406751112841149  0.5606251997867419  1.0000
  C   C85       1.0  0.3473763308352673  0.5631615075315112  0.4397184022457523  1.0000
  C   C86       1.0  0.42002069462533587  0.5600711915522183  0.44124586185570536  1.0000
  C   C87       1.0  0.4608762937503671  0.4974147674550764  0.5031557190769576  1.0000
  C   C88       1.0  0.5385516939319288  0.5025963402070346  0.4979776169241461  1.0000
  Cl  Cl1       1.0  0.45261550301819414  0.6497627935766984  0.04989292127527993  1.0000
  Cl  Cl2       1.0  0.5495486722355025  0.3475955799509265  0.9528055288643174  1.0000
  Cl  Cl3       1.0  0.14982912601585968  0.9526227859436244  0.3476601240790558  1.0000
  Cl  Cl4       1.0  0.8475349412880249  0.04963530682113039  0.6499048872290558  1.0000
  Cl  Cl5       1.0  0.4487061548681694  0.054354744969884884  0.3478594785477256  1.0000
  Cl  Cl6       1.0  0.5538754720125282  0.947870096844056  0.649862565529389  1.0000
  Cl  Cl7       1.0  0.8486636689402259  0.6498670902361354  0.9479594280078774  1.0000
  Cl  Cl8       1.0  0.1493524087532663  0.34784657172680505  0.05446207175609889  1.0000
  Cl  Cl9       1.0  0.45041504141974525  0.3460967963908529  0.6519754422064921  1.0000
  Cl  Cl10      1.0  0.5515309950821103  0.6514148455628046  0.3466350447812303  1.0000
  O   O1        1.0  0.7948823850710696  0.44122116859497146  0.7022638559855849  1.0000
  O   O2        1.0  0.061639144601528466  0.7018008751394544  0.4416040138640014  1.0000
  O   O3        1.0  0.20093958663710512  0.5626546876053453  0.29395427742571917  1.0000
  O   O4        1.0  0.9425267941877707  0.2933879422586541  0.5631541283312843  1.0000
  O   O5        1.0  0.06060049485223822  0.29260443899146776  0.7038241381782983  1.0000
  O   O6        1.0  0.7950309618628637  0.5618943168869136  0.44194038315477957  1.0000
  O   O7        1.0  0.9429514127220741  0.7033585824578096  0.2930761444439369  1.0000
  O   O8        1.0  0.20118003531948137  0.4414012729475161  0.5624129714490778  1.0000
  O   O9        1.0  0.9431690146387697  0.5597089930772084  0.7012165345726443  1.0000
  O   O10       1.0  0.19988221599201242  0.2945918821985244  0.44458434785246237  1.0000
  O   O11       1.0  0.060883025968337424  0.44417368904951354  0.2950354284462477  1.0000
  O   O12       1.0  0.7959042517203159  0.7008012213631573  0.5601540714431225  1.0000
  O   O13       1.0  0.20077729239962855  0.29271709666316786  0.5632826319294892  1.0000
  O   O14       1.0  0.9431532778632742  0.5628471576228474  0.2932363888059513  1.0000
  O   O15       1.0  0.7949100149014542  0.702300642340397  0.441679520395624  1.0000
  O   O16       1.0  0.06112114599447687  0.44122861843547406  0.7027832650634878  1.0000
  O   O17       1.0  0.9427744953632526  0.29253627401364213  0.7037209851251874  1.0000
  O   O18       1.0  0.20131345172802648  0.5611401175409296  0.4428718891961907  1.0000
  O   O19       1.0  0.06096478613017115  0.7032272924933521  0.29300526756147605  1.0000
  O   O20       1.0  0.7947108281629975  0.4423037910851661  0.5616342933556453  1.0000
  O   O21       1.0  0.06041836200165556  0.2945878148750722  0.44463204091064057  1.0000
  O   O22       1.0  0.7955278113261813  0.5596226949372607  0.7012569966072562  1.0000
  O   O23       1.0  0.9436390512959252  0.7007635359022188  0.5600490368205798  1.0000
  O   O24       1.0  0.20026681221371945  0.44424050563119255  0.29504168001214026  1.0000
  O   O25       1.0  0.947960008705344  0.4484248200915386  0.44856546329491215  1.0000
  O   O26       1.0  0.15500909639465027  0.4480939966544355  0.4489287417145675  1.0000
  O   O27       1.0  0.9485836451792693  0.6559653393245523  0.44709031207126065  1.0000
  O   O28       1.0  0.9483662508213231  0.4466084592128538  0.6564466402325734  1.0000
  O   O29       1.0  0.03844568201717637  0.5375014440915605  0.5382416582542716  1.0000
  O   O30       1.0  0.8857938240994371  0.5377716228998183  0.537972308600466  1.0000
  O   O31       1.0  0.037887874480141186  0.5390531338085934  0.3852939970509439  1.0000
  O   O32       1.0  0.03773722270913289  0.3848642495962763  0.5395181364887733  1.0000
