data_image0
_chemical_formula_structural       Cd4H44C36N8Cl4O12
_chemical_formula_sum              "Cd4 H44 C36 N8 Cl4 O12"
_cell_length_a       5.797745688001141
_cell_length_b       15.154583511001256
_cell_length_c       16.458619012004178
_cell_angle_alpha    89.99995696573106
_cell_angle_beta     89.99993073694249
_cell_angle_gamma    89.99998111663294

_space_group_name_H-M_alt    "P 1"
_space_group_IT_number       1

loop_
  _space_group_symop_operation_xyz
  'x, y, z'

loop_
  _atom_site_type_symbol
  _atom_site_label
  _atom_site_symmetry_multiplicity
  _atom_site_fract_x
  _atom_site_fract_y
  _atom_site_fract_z
  _atom_site_occupancy
  Cd  Cd1       1.0  0.6282922391965469  0.41529410225518154  0.037076345465543205  1.0000
  Cd  Cd2       1.0  0.8717100584231757  0.5847059938836239  0.537078088062657  1.0000
  Cd  Cd3       1.0  0.3717070878983648  0.9152964681396157  0.46292422849231946  1.0000
  Cd  Cd4       1.0  0.1282912792188071  0.08470268413265102  0.9629239888702872  1.0000
  H   H1        1.0  0.5559524624038801  0.6199724837652101  0.7536145364450776  1.0000
  H   H2        1.0  0.9440559910645234  0.3800261153479028  0.2536145064892992  1.0000
  H   H3        1.0  0.444048845634633  0.11997524926479743  0.7463887313559283  1.0000
  H   H4        1.0  0.0559485400559652  0.8800247401657089  0.24638669935280436  1.0000
  H   H5        1.0  0.3503555296682492  0.635990147145094  0.6221096168016942  1.0000
  H   H6        1.0  0.1496509067182572  0.3640086243062584  0.1221097232020867  1.0000
  H   H7        1.0  0.6496474897384203  0.13598749945197847  0.8778930323802356  1.0000
  H   H8        1.0  0.8503519130338615  0.8640103380409415  0.3778927088441577  1.0000
  H   H9        1.0  0.8016946750156889  0.4840334186349296  0.7010833921595179  1.0000
  H   H10       1.0  0.698310509180544  0.5159678629551295  0.20108155039420694  1.0000
  H   H11       1.0  0.19830460267171188  0.9840319820317022  0.7989147641300107  1.0000
  H   H12       1.0  0.30169087788118526  0.015966644658668403  0.29891565319417174  1.0000
  H   H13       1.0  0.9803518164107955  0.46448085007261847  0.839389010836726  1.0000
  H   H14       1.0  0.5196494433576788  0.5355222978776126  0.3393866240651136  1.0000
  H   H15       1.0  0.019642303259999497  0.9644815294143997  0.660609766509296  1.0000
  H   H16       1.0  0.48035365210054687  0.03551853024736572  0.16061117363514651  1.0000
  H   H17       1.0  0.20665607396836083  0.4470676372484448  0.9596599040110476  1.0000
  H   H18       1.0  0.2933440291624335  0.552931517696102  0.4596604266602355  1.0000
  H   H19       1.0  0.793339785122029  0.9470716143297013  0.5403401004999608  1.0000
  H   H20       1.0  0.7066573268715999  0.05292847913804621  0.0403397893827417  1.0000
  H   H21       1.0  0.5936600404992376  0.5363601021734113  0.8797320643178067  1.0000
  H   H22       1.0  0.9063393559623805  0.4636423528795036  0.3797289548828076  1.0000
  H   H23       1.0  0.4063327136763916  0.036361656078661  0.6202694383412535  1.0000
  H   H24       1.0  0.09366510498370671  0.9636390964786872  0.1202703705951436  1.0000
  H   H25       1.0  0.35149512252473153  0.5793794251701955  0.9304058543712801  1.0000
  H   H26       1.0  0.14850163142494918  0.4206204135942287  0.4304034919160743  1.0000
  H   H27       1.0  0.6484958707370794  0.07938296884459821  0.5695950110627379  1.0000
  H   H28       1.0  0.8515028656290651  0.9206171006697519  0.0695958632040359  1.0000
  H   H29       1.0  0.25372290197593367  0.36098020098183536  0.8300700717654408  1.0000
  H   H30       1.0  0.24628282046799646  0.6390197199317383  0.3300711627183689  1.0000
  H   H31       1.0  0.7462661301322697  0.8609847379137111  0.6699305996455182  1.0000
  H   H32       1.0  0.7537236377372664  0.1390159093173651  0.16992960159335269  1.0000
  H   H33       1.0  0.6225283782208137  0.2861605762848924  0.8122270882511986  1.0000
  H   H34       1.0  0.8774781492182127  0.7138406143041609  0.31222685663791344  1.0000
  H   H35       1.0  0.37746416630518803  0.7861638265748782  0.6877705967882761  1.0000
  H   H36       1.0  0.1225265213864049  0.213836870715575  0.1877714257849519  1.0000
  H   H37       1.0  0.6546115058072104  0.40212351433608273  0.8025044760575285  1.0000
  H   H38       1.0  0.8453950550120266  0.5978776842139413  0.3025031228309417  1.0000
  H   H39       1.0  0.3453774917713801  0.9021267608142624  0.697495559421718  1.0000
  H   H40       1.0  0.15461488734073467  0.0978745883797458  0.19749706224229166  1.0000
  H   H41       1.0  0.806487597729692  0.29120915195796476  0.9344177365370143  1.0000
  H   H42       1.0  0.6935167854148644  0.7087906188536268  0.4344169791253378  1.0000
  H   H43       1.0  0.1935066673645025  0.7912118662179568  0.5655817677769834  1.0000
  H   H44       1.0  0.30648961423408844  0.20878761138302343  0.0655825219451387  1.0000
  C   C1        1.0  0.3870558084672097  0.5893335826509161  0.7457390740786495  1.0000
  C   C2        1.0  0.11295020349401598  0.410665747444213  0.2457379487860933  1.0000
  C   C3        1.0  0.6129420756735725  0.08933434026017302  0.7542623920808326  1.0000
  C   C4        1.0  0.887052577106047  0.9106635984574185  0.2542614131927508  1.0000
  C   C5        1.0  0.28490739931424247  0.5400738794757701  0.8078925655947059  1.0000
  C   C6        1.0  0.2150949496541443  0.45992737933005406  0.3078907552960218  1.0000
  C   C7        1.0  0.715085351745813  0.0400746747632823  0.692108326921435  1.0000
  C   C8        1.0  0.7849060647946259  0.959923314843664  0.19210796515816503  1.0000
  C   C9        1.0  0.27368083108739677  0.5986852464657914  0.6717316707246185  1.0000
  C   C10       1.0  0.22632371013702365  0.40131480409027637  0.1717305036146897  1.0000
  C   C11       1.0  0.7263204948231701  0.09868394921829092  0.8282691814071442  1.0000
  C   C12       1.0  0.7736773535010215  0.9013145887709799  0.3282694723910495  1.0000
  C   C13       1.0  0.9673624749504482  0.5140032123334493  0.7165949760628081  1.0000
  C   C14       1.0  0.5326374815692674  0.4859987164232324  0.2165926178836202  1.0000
  C   C15       1.0  0.03263547241937909  0.014002041535753998  0.7834041116624348  1.0000
  C   C16       1.0  0.4673635109990713  0.9859972577203423  0.2834048694377316  1.0000
  C   C17       1.0  0.0677333758935816  0.5029867703482367  0.7926258516150996  1.0000
  C   C18       1.0  0.4322690254849206  0.4970158206899314  0.2926245309020388  1.0000
  C   C19       1.0  0.932262855913393  0.0029868651821374002  0.7073732437004097  1.0000
  C   C20       1.0  0.5677336826449491  0.9970124316586039  0.2073735564132022  1.0000
  C   C21       1.0  0.4069443549796005  0.5272354786865706  0.88805236784399  1.0000
  C   C22       1.0  0.09305599398845028  0.4727650546214336  0.388049993063838  1.0000
  C   C23       1.0  0.5930501316614637  0.02723965472088001  0.6119491411006663  1.0000
  C   C24       1.0  0.9069501841107195  0.9727610399823022  0.1119487185440633  1.0000
  C   C25       1.0  0.37564261457769277  0.361585269558269  0.8813671805246273  1.0000
  C   C26       1.0  0.12436293176095599  0.6384152692217814  0.3813677162078833  1.0000
  C   C27       1.0  0.6243515914528999  0.8615872247938016  0.6186310601316692  1.0000
  C   C28       1.0  0.8756418021450897  0.13841214470569693  0.1186318333516496  1.0000
  C   C29       1.0  0.6185819325841635  0.3488095955651573  0.8459637983724804  1.0000
  C   C30       1.0  0.881421029418341  0.6511909075354014  0.345963608245512  1.0000
  C   C31       1.0  0.38141055935873397  0.8488135328329706  0.6540350586703312  1.0000
  C   C32       1.0  0.1185836937654869  0.15118719207862347  0.1540359325118033  1.0000
  C   C33       1.0  0.316855913995127  0.28187603345515566  0.9349993022255775  1.0000
  C   C34       1.0  0.1831425489876963  0.718123141680451  0.435000365551538  1.0000
  C   C35       1.0  0.6831487077785922  0.7818773651309672  0.5650026388547786  1.0000
  C   C36       1.0  0.816853493973383  0.21812270814400853  0.0650015594277065  1.0000
  N   N1        1.0  0.0677560065975484  0.5612028763936724  0.6571047408500733  1.0000
  N   N2        1.0  0.4322503096484098  0.438797186137812  0.1571046754264032  1.0000
  N   N3        1.0  0.9322470755825946  0.06120022080478553  0.842894921938381  1.0000
  N   N4        1.0  0.5677507225328354  0.9387976453435841  0.34289405958494273  1.0000
  N   N5        1.0  0.3627012601750508  0.44305037286438437  0.9299483879056041  1.0000
  N   N6        1.0  0.13730239457467514  0.5569488064068225  0.4299483666260571  1.0000
  N   N7        1.0  0.6372928774801991  0.9430556655342388  0.5700504042044372  1.0000
  N   N8        1.0  0.8627041325153044  0.05694440360762341  0.07005063147959593  1.0000
  Cl  Cl1       1.0  0.9275843834057226  0.5316107083065233  0.0349120260952773  1.0000
  Cl  Cl2       1.0  0.5724161968402868  0.4683880698726315  0.5349115458986448  1.0000
  Cl  Cl3       1.0  0.0724083664789603  0.031612682940767904  0.46508820463785844  1.0000
  Cl  Cl4       1.0  0.42758481878232146  0.9683864675596116  0.965089051507789  1.0000
  O   O1        1.0  0.31946712879846456  0.29395658489421084  0.011691577162857002  1.0000
  O   O2        1.0  0.18053796185159135  0.7060422769634229  0.5116914947831008  1.0000
  O   O3        1.0  0.6805374745583066  0.7939602097853894  0.4883090803950907  1.0000
  O   O4        1.0  0.8194649987634005  0.20603885703511793  0.9883098909643665  1.0000
  O   O5        1.0  0.7931927971044742  0.3513190311050565  0.9069609800544713  1.0000
  O   O6        1.0  0.706809955492346  0.6486807621871836  0.4069602583996429  1.0000
  O   O7        1.0  0.20679969273246  0.8513250204974983  0.593037267674241  1.0000
  O   O8        1.0  0.293196494608125  0.1486757543564323  0.09303867650285011  1.0000
  O   O9        1.0  0.2789792158156315  0.20974869738797963  0.8987283697785317  1.0000
  O   O10       1.0  0.2210210964955763  0.7902511673111693  0.3987293672849575  1.0000
  O   O11       1.0  0.7210185672613818  0.7097506543348262  0.6012730134144562  1.0000
  O   O12       1.0  0.7789886843962676  0.2902493892427813  0.1012725079955601  1.0000
