data_image0
_chemical_formula_structural       Cd2H40C32N4O10
_chemical_formula_sum              "Cd2 H40 C32 N4 O10"
_cell_length_a       8.599269334572167
_cell_length_b       10.927098134075516
_cell_length_c       10.927082396121085
_cell_angle_alpha    116.12484955665882
_cell_angle_beta     92.03091694333747
_cell_angle_gamma    92.0309287144842

_space_group_name_H-M_alt    "P 1"
_space_group_IT_number       1

loop_
  _space_group_symop_operation_xyz
  'x, y, z'

loop_
  _atom_site_type_symbol
  _atom_site_label
  _atom_site_symmetry_multiplicity
  _atom_site_fract_x
  _atom_site_fract_y
  _atom_site_fract_z
  _atom_site_occupancy
  Cd  Cd1       1.0  0.25000017441438865  0.39207811799544595  0.6079222358738434  1.0000
  Cd  Cd2       1.0  0.7499993744943296  0.6079231108120453  0.3920784504039077  1.0000
  H   H1        1.0  0.7999813464552403  0.3678744690725678  0.8559541982963594  1.0000
  H   H2        1.0  0.7000198694346197  0.14404765098163347  0.6321271251097969  1.0000
  H   H3        1.0  0.2000195140785763  0.6321287960007566  0.14404650845329314  1.0000
  H   H4        1.0  0.2999808458634092  0.8559535722349026  0.3678726785620016  1.0000
  H   H5        1.0  0.7422059173378983  0.48834533075862635  0.7940905433575693  1.0000
  H   H6        1.0  0.7577942848970238  0.20591030814637884  0.511654545741152  1.0000
  H   H7        1.0  0.2577936347209899  0.5116558979993187  0.20590922783221546  1.0000
  H   H8        1.0  0.2422052671618573  0.7940909206115662  0.4883452254486329  1.0000
  H   H9        1.0  0.8656191971704102  0.5411829410808053  0.9457305607123133  1.0000
  H   H10       1.0  0.6343811170428708  0.05426977651610088  0.4588177112419061  1.0000
  H   H11       1.0  0.13438036118881772  0.45881828757804755  0.05426738030152481  1.0000
  H   H12       1.0  0.365619595104981  0.9457314467499814  0.5411830075178656  1.0000
  H   H13       1.0  0.31775056973474847  0.5087646879717836  0.9285945182625213  1.0000
  H   H14       1.0  0.18224966313773897  0.07140411046619732  0.4912338504839653  1.0000
  H   H15       1.0  0.6822487613202811  0.4912334780505318  0.07140481339844483  1.0000
  H   H16       1.0  0.8177544661096334  0.9285960752472631  0.5087665141829162  1.0000
  H   H17       1.0  0.47517135020137136  0.6935019198251524  0.1281002121107093  1.0000
  H   H18       1.0  0.0248301883644473  0.8718989618723043  0.3064956195521447  1.0000
  H   H19       1.0  0.5248279777034881  0.30649624624670213  0.8719000346382303  1.0000
  H   H20       1.0  0.9751727807939619  0.12810122933301926  0.69350379754475  1.0000
  H   H21       1.0  0.633433337204707  0.8468010589007305  0.8486354562865588  1.0000
  H   H22       1.0  0.8665669597286366  0.15136215154904417  0.1531981200019601  1.0000
  H   H23       1.0  0.3665673023252509  0.1531991434369644  0.15136481093428242  1.0000
  H   H24       1.0  0.1334335345655333  0.8486360089318552  0.8468012441410195  1.0000
  H   H25       1.0  0.47643217031937724  0.6580591019871278  0.6639452215929112  1.0000
  H   H26       1.0  0.0235686975474536  0.33605359336638674  0.34193918819293867  1.0000
  H   H27       1.0  0.5235683934425169  0.341940079471719  0.3360555091769655  1.0000
  H   H28       1.0  0.9764317272789853  0.6639435461365721  0.6580588093231442  1.0000
  H   H29       1.0  0.6343249694374721  0.9981147643136765  0.12581652826833095  1.0000
  H   H30       1.0  0.8656732213192483  0.8741821503625429  0.0018850505115109637  1.0000
  H   H31       1.0  0.365675597474592  0.0018844170956243004  0.8741832874135796  1.0000
  H   H32       1.0  0.1343250128141946  0.12581704222866824  0.998116530382312  1.0000
  H   H33       1.0  0.6333194764984638  0.8981756373526294  0.2179239865984428  1.0000
  H   H34       1.0  0.8666807446061425  0.7820749412779903  0.10182244249651977  1.0000
  H   H35       1.0  0.3666799271744594  0.10182354959808039  0.7820757966014542  1.0000
  H   H36       1.0  0.1333198949238152  0.2179252610596976  0.8981778247243215  1.0000
  H   H37       1.0  0.16115742221114  0.5220041967995  0.42317388726478816  1.0000
  H   H38       1.0  0.33884176368665925  0.5768242843335115  0.4779951685586568  1.0000
  H   H39       1.0  0.8388419846119531  0.4779949901016565  0.5768249808471354  1.0000
  H   H40       1.0  0.6611576399862642  0.4231749026171912  0.5220046146412401  1.0000
  C   C1        1.0  0.9821890015230182  0.4308099170080411  0.7631504169439155  1.0000
  C   C2        1.0  0.5178122049023912  0.236850115421646  0.5691909393913761  1.0000
  C   C3        1.0  0.01781185586062859  0.5691933481148296  0.23685120489371064  1.0000
  C   C4        1.0  0.4821884346275667  0.763150086916049  0.4308093278294579  1.0000
  C   C5        1.0  0.8370065421722755  0.4582289617083005  0.8429686417382811  1.0000
  C   C6        1.0  0.6629930531484263  0.15703336202464865  0.5417713634311454  1.0000
  C   C7        1.0  0.1629918371969623  0.5417722727396992  0.1570338422333961  1.0000
  C   C8        1.0  0.33700649891045487  0.8429678667332962  0.4582284077586394  1.0000
  C   C9        1.0  0.3898458102463067  0.5864233322029335  0.9166598803410154  1.0000
  C   C10       1.0  0.1101551507876124  0.08333801094070742  0.4135739174829213  1.0000
  C   C11       1.0  0.6101535208087228  0.413574833819375  0.08333945131995084  1.0000
  C   C12       1.0  0.8898478215209663  0.91666218021507  0.5864245845260073  1.0000
  C   C13       1.0  0.47581258086120926  0.6891771522442839  0.02646157712410264  1.0000
  C   C14       1.0  0.024189575971753613  0.9735377103448429  0.3108227075426698  1.0000
  C   C15       1.0  0.5241880555185786  0.31082305014295036  0.9735396051847119  1.0000
  C   C16       1.0  0.9758120847117197  0.026460444545101297  0.6891757739943571  1.0000
  C   C17       1.0  0.5654733492590013  0.7871575096974722  0.005692853199000965  1.0000
  C   C18       1.0  0.9345286908569223  0.9943070787524628  0.21284139567071475  1.0000
  C   C19       1.0  0.43452837459186355  0.2128416662695116  0.9943088251408698  1.0000
  C   C20       1.0  0.0654729666763885  0.005691076187027001  0.7871580009542783  1.0000
  C   C21       1.0  0.5646690583784277  0.7749001597085722  0.8724566225211633  1.0000
  C   C22       1.0  0.9353296489702885  0.12754217597294834  0.2250990256892109  1.0000
  C   C23       1.0  0.4353303421443258  0.2250990272916837  0.1275440757666999  1.0000
  C   C24       1.0  0.06467222326653403  0.8724590418012784  0.7749026406405479  1.0000
  C   C25       1.0  0.47672167752883615  0.6688471434408781  0.767857160249335  1.0000
  C   C26       1.0  0.023278485923604795  0.23214061106696693  0.33115076432910934  1.0000
  C   C27       1.0  0.5232777292942642  0.3311520434602783  0.2321417078625885  1.0000
  C   C28       1.0  0.9767233989138973  0.7678606065090674  0.6688472416487626  1.0000
  C   C29       1.0  0.6619496964574481  0.8983674620803298  0.12079654244480771  1.0000
  C   C30       1.0  0.8380491447096503  0.8792011916437725  0.10162909979009511  1.0000
  C   C31       1.0  0.3380472355014065  0.10162969409640968  0.8792022727132008  1.0000
  C   C32       1.0  0.1619535339771687  0.12079491584798059  0.8983685111510837  1.0000
  N   N1        1.0  0.3894642879311334  0.5760484572796329  0.7894019116910657  1.0000
  N   N2        1.0  0.110535768244965  0.21059649027767335  0.4239514360990455  1.0000
  N   N3        1.0  0.6105339525026494  0.42395073521248594  0.2105978390268105  1.0000
  N   N4        1.0  0.8894658924385084  0.7894016646122777  0.5760470454379814  1.0000
  O   O1        1.0  0.0897453888920907  0.3676908762303484  0.7887680712077839  1.0000
  O   O2        1.0  0.4102554488236906  0.21123203248410494  0.6323093163459816  1.0000
  O   O3        1.0  0.9102553958736621  0.6323113679641281  0.21123309909091145  1.0000
  O   O4        1.0  0.5897451938564373  0.7887681698040439  0.3676900357868861  1.0000
  O   O5        1.0  0.9939399625177289  0.4748412342338141  0.6721233803410201  1.0000
  O   O6        1.0  0.5060597358582867  0.3278770366958171  0.5251597668359623  1.0000
  O   O7        1.0  0.006059516923258498  0.5251589735957367  0.3278759393098342  1.0000
  O   O8        1.0  0.49393980990025443  0.6721241921612274  0.4748418345297624  1.0000
  O   O9        1.0  0.24999912136411234  0.5179208755978308  0.4820767865696425  1.0000
  O   O10       1.0  0.7500002159912569  0.4820772903253926  0.5179207149153842  1.0000
