data_image0
_chemical_formula_structural       Ca4H48C28N8O32
_chemical_formula_sum              "Ca4 H48 C28 N8 O32"
_cell_length_a       7.722499395
_cell_length_b       8.328537347910423
_cell_length_c       18.7331
_cell_angle_alpha    90.0
_cell_angle_beta     90.0
_cell_angle_gamma    105.16685280115946

_space_group_name_H-M_alt    "P 1"
_space_group_IT_number       1

loop_
  _space_group_symop_operation_xyz
  'x, y, z'

loop_
  _atom_site_type_symbol
  _atom_site_label
  _atom_site_symmetry_multiplicity
  _atom_site_fract_x
  _atom_site_fract_y
  _atom_site_fract_z
  _atom_site_occupancy
  Ca  Ca1       1.0  0.23672085834983386  0.4619392546418055  0.9724807960241506  1.0000
  Ca  Ca2       1.0  0.2632803091377198  0.038059633575017  0.4724813298386294  1.0000
  Ca  Ca3       1.0  0.7632795888241545  0.5380610098374419  0.027519203975849404  1.0000
  Ca  Ca4       1.0  0.7367194360022893  0.961938142858628  0.5275186701613706  1.0000
  H   H1        1.0  0.11607436909955743  0.0042607780935597  0.0452920232102514  1.0000
  H   H2        1.0  0.3839232646523314  0.4957393541460604  0.5452914893957725  1.0000
  H   H3        1.0  0.8839241902733123  0.9957419744312902  0.9547079767897486  1.0000
  H   H4        1.0  0.6160777754052233  0.5042584222875846  0.4547085106042275  1.0000
  H   H5        1.0  0.1103112818353935  0.8702188297835464  0.1197623457943422  1.0000
  H   H6        1.0  0.38968801566552713  0.6297815669353284  0.6197623457943422  1.0000
  H   H7        1.0  0.8896885724550287  0.1297839227413036  0.880237120391179  1.0000
  H   H8        1.0  0.6103143193095804  0.3702162094983166  0.3802376542056578  1.0000
  H   H9        1.0  0.4494094017940853  0.09288371841685723  0.059686330612656505  1.0000
  H   H10       1.0  0.050591172809902205  0.4071176578455677  0.5596857967981776  1.0000
  H   H11       1.0  0.5505908035133302  0.9071202781307974  0.9403142032018224  1.0000
  H   H12       1.0  0.9494111621652052  0.5928801185880772  0.4403136693873435  1.0000
  H   H13       1.0  0.5958725446031182  0.245275267521464  0.2144695752438182  1.0000
  H   H14       1.0  0.9041271644428264  0.2547273527637657  0.7144695752438182  1.0000
  H   H15       1.0  0.40412895562185014  0.7547287290261906  0.7855304247561818  1.0000
  H   H16       1.0  0.09587198781361654  0.7452729117154819  0.285529890941703  1.0000
  H   H17       1.0  0.6675148950323262  0.2016075791593508  0.1285350529277025  1.0000
  H   H18       1.0  0.8324837609626385  0.2983913090574717  0.6285345191132308  1.0000
  H   H19       1.0  0.3324855521416623  0.7983926853198966  0.8714654808867692  1.0000
  H   H20       1.0  0.1675153912938043  0.7016089554217757  0.37146441325781865  1.0000
  H   H21       1.0  0.819192068668464  0.2334234622959528  0.28027929173494937  1.0000
  H   H22       1.0  0.6808098791955929  0.2665779139664721  0.7802787579204704  1.0000
  H   H23       1.0  0.1808083785055317  0.7665768021832946  0.7197212420795297  1.0000
  H   H24       1.0  0.31919056797840284  0.7334223505127753  0.2197207082650507  1.0000
  H   H25       1.0  0.07399210779318112  0.1190517380367311  0.3093134611996931  1.0000
  H   H26       1.0  0.4260094107113659  0.3809483942028891  0.8093139950141719  1.0000
  H   H27       1.0  0.9260037525941771  0.8809460383969141  0.6906881402437364  1.0000
  H   H28       1.0  0.5739923313801756  0.6190518702763583  0.19068547117134932  1.0000
  H   H29       1.0  0.9478762818608856  0.9254024372148777  0.274116937399576  1.0000
  H   H30       1.0  0.5521243889000971  0.5745979595039898  0.774117471214055  1.0000
  H   H31       1.0  0.0521195785264652  0.0745953392187673  0.7258835964149029  1.0000
  H   H32       1.0  0.4478747633563388  0.4254023049752576  0.2258819949714663  1.0000
  H   H33       1.0  0.4273609834762198  0.2062067314547988  0.9597589293816854  1.0000
  H   H34       1.0  0.0726392401107745  0.2937934007848284  0.4597594631961641  1.0000
  H   H35       1.0  0.5726385197972164  0.7937947770472533  0.0402410706183147  1.0000
  H   H36       1.0  0.927361207063214  0.706206863694419  0.5402405368038359  1.0000
  H   H37       1.0  0.2886150180400975  0.15761768889177574  0.8968990716966232  1.0000
  H   H38       1.0  0.2113852055468968  0.3423824433478444  0.3968990716966232  1.0000
  H   H39       1.0  0.7113844852333386  0.8423838196102693  0.1031009283033768  1.0000
  H   H40       1.0  0.7886165365446446  0.657617821131403  0.6031009283033768  1.0000
  H   H41       1.0  0.1340846851753312  0.4888424917370955  0.8067596927363854  1.0000
  H   H42       1.0  0.3659155384116631  0.0111576405025318  0.306760226550864  1.0000
  H   H43       1.0  0.8659157619986573  0.5111577727421519  0.193239773449136  1.0000
  H   H44       1.0  0.6340836138447798  0.9888426239767227  0.6932392396346573  1.0000
  H   H45       1.0  0.9826773885172885  0.4893687133819355  0.8638644965328766  1.0000
  H   H46       1.0  0.5173232644292085  0.0106326628804894  0.3638644965328766  1.0000
  H   H47       1.0  0.017323409673693398  0.5106327951201166  0.1361344358381658  1.0000
  H   H48       1.0  0.482675185793248  0.9893651135531556  0.6361349696526446  1.0000
  C   C1        1.0  0.2057310152843215  0.7875933233840655  0.022705265012199  1.0000
  C   C2        1.0  0.2942682822166063  0.7124070733348091  0.5227047311977203  1.0000
  C   C3        1.0  0.7942701339236535  0.2124094291407843  0.977294734987801  1.0000
  C   C4        1.0  0.7057327578409558  0.2875907030988429  0.4772952688022798  1.0000
  C   C5        1.0  0.18974452545572257  0.9265121055534067  0.0731907692800462  1.0000
  C   C6        1.0  0.310256417979744  0.5734895351882656  0.5731902354655675  1.0000
  C   C7        1.0  0.8102569747692456  0.0734918909942408  0.9268092307199538  1.0000
  C   C8        1.0  0.6897459169953635  0.4265082412453793  0.4268092307199538  1.0000
  C   C9        1.0  0.41739243563672096  0.035880105627597914  0.1646572110328748  1.0000
  C   C10       1.0  0.082606844049721  0.464121270634827  0.6646577448473537  1.0000
  C   C11       1.0  0.5826074186537085  0.9641226468972519  0.8353427889671252  1.0000
  C   C12       1.0  0.9173929010902881  0.535876505798818  0.3353411875236887  1.0000
  C   C13       1.0  0.6047666205852663  0.1443825303115105  0.1781787317635661  1.0000
  C   C14       1.0  0.8952301476085864  0.3556188459509144  0.6781781979490873  1.0000
  C   C15       1.0  0.3952277030179658  0.8556189781905346  0.8218218020509129  1.0000
  C   C16       1.0  0.1047693556648497  0.6443826625511377  0.3218207344219621  1.0000
  C   C17       1.0  0.7219494207705424  0.0431775433784978  0.21099497680575754  1.0000
  C   C18       1.0  0.7780509903093815  0.4568275649523273  0.7109933753623281  1.0000
  C   C19       1.0  0.27805043351988  0.956825209146352  0.7890066246376719  1.0000
  C   C20       1.0  0.221949456864607  0.5431726995269202  0.2890066246376719  1.0000
  C   C21       1.0  0.9386523505048743  0.0354484297156361  0.3046858234889029  1.0000
  C   C22       1.0  0.5613479514246364  0.464551702523984  0.8046852896744242  1.0000
  C   C23       1.0  0.061344804800036505  0.9645493467180088  0.6953163117690053  1.0000
  C   C24       1.0  0.4386521447323659  0.5354473179324586  0.1953136426966182  1.0000
  C   C25       1.0  0.867758358049926  0.9797251808678951  0.3791684238059929  1.0000
  C   C26       1.0  0.6322439586456029  0.5202764598737772  0.8791689576204718  1.0000
  C   C27       1.0  0.13223750233743206  0.0202725955657499  0.6208315761940071  1.0000
  C   C28       1.0  0.3677564885283857  0.4797238046054701  0.12083050856505652  1.0000
  N   N1        1.0  0.3618226224865495  0.0275837175674596  0.0969583251036923  1.0000
  N   N2        1.0  0.13817630618289203  0.4724164146721607  0.5969583251036923  1.0000
  N   N3        1.0  0.6381772318038729  0.9724190349573902  0.9030416748963077  1.0000
  N   N4        1.0  0.8618247338746626  0.5275813617614844  0.4030422087107866  1.0000
  N   N5        1.0  0.8239435908372315  0.1158483793240563  0.2657082917402889  1.0000
  N   N6        1.0  0.6760560090582928  0.3841492648699685  0.7657088255547677  1.0000
  N   N7        1.0  0.17605356446767934  0.8841493971095886  0.7342927758886688  1.0000
  N   N8        1.0  0.3239444381156957  0.6158509996092789  0.2342906406307534  1.0000
  O   O1        1.0  0.06213358621626242  0.6868448928190318  0.0017252883932741  1.0000
  O   O2        1.0  0.43786441636711265  0.8131555038998357  0.5017247545787953  1.0000
  O   O3        1.0  0.9378672119747193  0.3131566156830132  0.9982747116067259  1.0000
  O   O4        1.0  0.5621334409717775  0.1868447605794117  0.49827524542120477  1.0000
  O   O5        1.0  0.35965939554963466  0.7737162490384648  0.00329577058789  1.0000
  O   O6        1.0  0.1403382560167472  0.7262829036576051  0.50329577058789  1.0000
  O   O7        1.0  0.6403430485758931  0.226286503486385  0.9967047632265889  1.0000
  O   O8        1.0  0.8596585482711703  0.2737136287532351  0.49670529704106775  1.0000
  O   O9        1.0  0.3222711287250348  0.9586215780710532  0.21489449156840124  1.0000
  O   O10       1.0  0.1777265228413469  0.5413775746250167  0.7148944915684012  1.0000
  O   O11       1.0  0.6777270796308486  0.041379930430999  0.7851049746171199  1.0000
  O   O12       1.0  0.8222739243326415  0.4586226898542307  0.2851060422460776  1.0000
  O   O13       1.0  0.723269607777361  0.9021877277246733  0.1878914861928891  1.0000
  O   O14       1.0  0.7767303609496423  0.5978101809485992  0.687892020007368  1.0000
  O   O15       1.0  0.2767278985445358  0.0978112927317767  0.8121085138071109  1.0000
  O   O16       1.0  0.22327078825833982  0.4021925715762507  0.3121079799926321  1.0000
  O   O17       1.0  0.9753477960796956  0.9408768368370204  0.4232470867074838  1.0000
  O   O18       1.0  0.5246532256982874  0.5591248039046519  0.9232470867074839  1.0000
  O   O19       1.0  0.024648766341641704  0.059123427642227014  0.5767545147359456  1.0000
  O   O20       1.0  0.47534757249270143  0.4408767045973931  0.0767529132925162  1.0000
  O   O21       1.0  0.7072731430806699  0.9743709067322188  0.3958682759393782  1.0000
  O   O22       1.0  0.7927278786973133  0.5256307340094537  0.8958682759393781  1.0000
  O   O23       1.0  0.2927222571392747  0.0256206495874167  0.6041322578751009  1.0000
  O   O24       1.0  0.2072729194936755  0.4743707744925985  0.10413119024614301  1.0000
  O   O25       1.0  0.3018236595323458  0.201428439876004  0.9468069886991444  1.0000
  O   O26       1.0  0.1981778589722012  0.2985716923636232  0.44680805632810217  1.0000
  O   O27       1.0  0.6981784335761887  0.7985730686260482  0.0531935451153274  1.0000
  O   O28       1.0  0.8018238831193399  0.7014285721156244  0.5531930113008556  1.0000
  O   O29       1.0  0.1030740518484023  0.468168076806613  0.8577998302469966  1.0000
  O   O30       1.0  0.39692617173859185  0.03183205543301432  0.3578003640614753  1.0000
  O   O31       1.0  0.8969254514250339  0.5318334316954392  0.1421991021240459  1.0000
  O   O32       1.0  0.6030726295008578  0.9681669650234355  0.6421991021240459  1.0000
