data_image0
_chemical_formula_structural       Al4H48C68O20
_chemical_formula_sum              "Al4 H48 C68 O20"
_cell_length_a       6.653494259596833
_cell_length_b       20.291369646211106
_cell_length_c       23.961944134306922
_cell_angle_alpha    90.40009569524099
_cell_angle_beta     90.8308463654145
_cell_angle_gamma    90.73015190679806

_space_group_name_H-M_alt    "P 1"
_space_group_IT_number       1

loop_
  _space_group_symop_operation_xyz
  'x, y, z'

loop_
  _atom_site_type_symbol
  _atom_site_label
  _atom_site_symmetry_multiplicity
  _atom_site_fract_x
  _atom_site_fract_y
  _atom_site_fract_z
  _atom_site_occupancy
  Al  Al1       1.0  0.9005395592468518  0.5019726121367183  0.4983992862895691  1.0000
  Al  Al2       1.0  0.4007958453788094  0.4984494467205921  0.5025974331958097  1.0000
  Al  Al3       1.0  0.27716876533422413  0.9978930397725134  0.0018611808162276998  1.0000
  Al  Al4       1.0  0.7770868733394991  0.0011733132694474002  0.9974276922190202  1.0000
  H   H1        1.0  0.7661573046198246  0.6357997032443663  0.17287249016747813  1.0000
  H   H2        1.0  0.9871848786797345  0.6268081352757094  0.346283925044368  1.0000
  H   H3        1.0  0.38805874971070875  0.7051366508884627  0.47244561746486385  1.0000
  H   H4        1.0  0.41283743971006714  0.8638249041144377  0.32690323712566993  1.0000
  H   H5        1.0  0.727503402542446  0.6945939744449633  0.0852535189321273  1.0000
  H   H6        1.0  0.7902692225688668  0.7944447312343712  0.027378271537557505  1.0000
  H   H7        1.0  0.1901231271843571  0.8731734009260634  0.15359031487242453  1.0000
  H   H8        1.0  0.8951845925194492  0.6294085256933145  0.2686032502203375  1.0000
  H   H9        1.0  0.2833289220634613  0.8703203337147657  0.23123581335710955  1.0000
  H   H10       1.0  0.45201922361031427  0.8048185034255584  0.4145206013320718  1.0000
  H   H11       1.0  0.16077195913885592  0.3693151758827753  0.23254159438896246  1.0000
  H   H12       1.0  0.08982847401873072  0.29830491898598416  0.15716633285581594  1.0000
  H   H13       1.0  0.780373290252186  0.1839134041497346  0.2435953369262478  1.0000
  H   H14       1.0  0.7661924398011951  0.24784696046903326  0.19424670640782446  1.0000
  H   H15       1.0  0.8159750905288236  0.32819308586579876  0.2642496781170324  1.0000
  H   H16       1.0  0.7983891718187053  0.26485266493622117  0.3139917380087454  1.0000
  H   H17       1.0  0.3397782579620242  0.167005445569778  0.24017931678903187  1.0000
  H   H18       1.0  0.11776320875251402  0.130036466039634  0.2654583243981535  1.0000
  H   H19       1.0  0.35256858434484434  0.23175724308901385  0.3216500320772084  1.0000
  H   H20       1.0  0.32243232409316397  0.26011112928887303  0.17055663551770556  1.0000
  H   H21       1.0  0.3759833405568003  0.32406768778250944  0.2514069033384772  1.0000
  H   H22       1.0  0.113660238010759  0.20251011332749158  0.34190047778379556  1.0000
  H   H23       1.0  0.25746435659700506  0.7471666110852695  0.8010894816481839  1.0000
  H   H24       1.0  0.33529291143405976  0.6637832367989915  0.736587482147492  1.0000
  H   H25       1.0  0.8911072504582549  0.6887301278537307  0.7521538918847173  1.0000
  H   H26       1.0  0.6927407029645067  0.6338318629907108  0.7685125698849335  1.0000
  H   H27       1.0  0.5837871144710648  0.7015550451909078  0.8414730663726218  1.0000
  H   H28       1.0  0.8117363754460174  0.746091657833354  0.8343201710837891  1.0000
  H   H29       1.0  0.5956485796056015  0.7980796668015133  0.6588942054970347  1.0000
  H   H30       1.0  0.8429371400649615  0.7764057896010926  0.6784670822572352  1.0000
  H   H31       1.0  0.6048331245545384  0.8715876380110287  0.7349343929227959  1.0000
  H   H32       1.0  0.2993881679059457  0.7228097547067877  0.6839181896833042  1.0000
  H   H33       1.0  0.27255326283336967  0.8087841146684621  0.7495901488453073  1.0000
  H   H34       1.0  0.827505229806171  0.8370685325622986  0.7621404923604873  1.0000
  H   H35       1.0  0.2810718814882804  0.3638581690092124  0.826536564019243  1.0000
  H   H36       1.0  0.4927548017432529  0.3737407660452234  0.6538757942337201  1.0000
  H   H37       1.0  0.8778316738608185  0.2954622933097538  0.5285846936381589  1.0000
  H   H38       1.0  0.8966489356745982  0.13576051392620056  0.6734070678991275  1.0000
  H   H39       1.0  0.24162835396094104  0.30422604018407645  0.9136605179195243  1.0000
  H   H40       1.0  0.3004484173601085  0.2040798024499964  0.9713348127209331  1.0000
  H   H41       1.0  0.6864291370248169  0.12615425648898076  0.8460927506856849  1.0000
  H   H42       1.0  0.4059259473076865  0.37088964252830436  0.7313704489066382  1.0000
  H   H43       1.0  0.77200414205727  0.12877746732984724  0.7685912202697766  1.0000
  H   H44       1.0  0.9357391716758415  0.1951888620793056  0.5862241143611088  1.0000
  H   H45       1.0  0.6367727919145878  0.5356103138156456  0.434691727986646  1.0000
  H   H46       1.0  0.1421381109180615  0.47119601384928  0.5691752694150694  1.0000
  H   H47       1.0  0.5410439643339872  0.9656194538749998  0.066141309842294  1.0000
  H   H48       1.0  0.0367308948415754  0.0317822768330842  0.9323735911129704  1.0000
  C   C1        1.0  0.65850430558875  0.5771953005185678  0.5786730464332734  1.0000
  C   C2        1.0  0.6564423640137349  0.4004019412334046  0.5550913414560199  1.0000
  C   C3        1.0  0.14823109689713482  0.4232348233242576  0.4227870267613554  1.0000
  C   C4        1.0  0.15562759606107335  0.6001741478256477  0.4455591553717327  1.0000
  C   C5        1.0  0.9967220687031431  0.838534100752355  0.08800411650834412  1.0000
  C   C6        1.0  0.18065759091825134  0.6612848550312619  0.4119145166279949  1.0000
  C   C7        1.0  0.8268088026758706  0.7342264920864281  0.1005150861705673  1.0000
  C   C8        1.0  0.862718072257728  0.788754385412439  0.06811878325023461  1.0000
  C   C9        1.0  0.08805302504196533  0.8336240945668864  0.14013006858689184  1.0000
  C   C10       1.0  0.04198070125597301  0.7805990757386922  0.17600586427627726  1.0000
  C   C11       1.0  0.9111987824919725  0.7294284385170329  0.15492892814244646  1.0000
  C   C12       1.0  0.11664957954150883  0.7771139213619875  0.23302397224514956  1.0000
  C   C13       1.0  0.061771045298797816  0.7226688559600305  0.2668309710586528  1.0000
  C   C14       1.0  0.9358652438907458  0.6718210068605615  0.24337358595892064  1.0000
  C   C15       1.0  0.8636616030322914  0.675008219255119  0.18974278024168711  1.0000
  C   C16       1.0  0.24278801846961073  0.8279044841109238  0.2564721579523593  1.0000
  C   C17       1.0  0.3150946718201979  0.8246576844564331  0.3100870975939359  1.0000
  C   C18       1.0  0.2676339735961549  0.7702330709018171  0.3448986615955435  1.0000
  C   C19       1.0  0.13641613607111944  0.7191935421594239  0.32384279902097296  1.0000
  C   C20       1.0  0.35225395242758856  0.7653119160228102  0.39928583288586594  1.0000
  C   C21       1.0  0.31539047051866487  0.7108658198967533  0.4317229946141978  1.0000
  C   C22       1.0  0.08964931491722443  0.6662415930581743  0.35975771706978327  1.0000
  C   C23       1.0  0.1793907777284645  0.27368934524224636  0.18959687505503814  1.0000
  C   C24       1.0  0.8569088187103449  0.22886084845827537  0.22914436592799356  1.0000
  C   C25       1.0  0.8792993451661391  0.28060347384819556  0.2766218468669522  1.0000
  C   C26       1.0  0.1406894226455506  0.37552407173797064  0.37780956167594587  1.0000
  C   C27       1.0  0.06659485031364913  0.20995768366045547  0.2072503692798477  1.0000
  C   C28       1.0  0.2150125424848213  0.3193579967579153  0.24085066530660984  1.0000
  C   C29       1.0  0.10440499989078945  0.2913327970151157  0.29224158620046853  1.0000
  C   C30       1.0  0.19688474232398798  0.22381904103576744  0.30693668413395875  1.0000
  C   C31       1.0  0.18830687431943724  0.1776315163172839  0.25531176276021483  1.0000
  C   C32       1.0  0.12575248067250303  0.33680525481812396  0.3389969353875132  1.0000
  C   C33       1.0  0.04876145098626951  0.16436394905449697  0.16045238653800456  1.0000
  C   C34       1.0  0.0367887601338523  0.12527428895435117  0.12183606372882144  1.0000
  C   C35       1.0  0.3853928526970592  0.7125889165324538  0.7222964953508042  1.0000
  C   C36       1.0  0.7293210533124042  0.6859155086271187  0.7608236973359298  1.0000
  C   C37       1.0  0.6755953835446039  0.7292703523886103  0.8116607791530017  1.0000
  C   C38       1.0  0.5166763596839914  0.8745521212675129  0.876796217549  1.0000
  C   C39       1.0  0.6119770273845191  0.7091232724687445  0.7082732657542438  1.0000
  C   C40       1.0  0.35116028054066833  0.7661793328206272  0.7672379816888724  1.0000
  C   C41       1.0  0.5557583858251008  0.7902219544945409  0.7919976251228747  1.0000
  C   C42       1.0  0.6768527404721925  0.8247781139881738  0.7454043089703933  1.0000
  C   C43       1.0  0.6881046763569644  0.7793309648328304  0.6935415752257371  1.0000
  C   C44       1.0  0.5299991913433361  0.8356693310136691  0.8382576034741192  1.0000
  C   C45       1.0  0.6413388242747048  0.6637656929697188  0.6621190054969333  1.0000
  C   C46       1.0  0.6581151049351989  0.6249247982130371  0.6236661774226492  1.0000
  C   C47       1.0  0.4999525524350333  0.16041445284515277  0.911232335429361  1.0000
  C   C48       1.0  0.6788726780581699  0.33932264757650193  0.5887246060689508  1.0000
  C   C49       1.0  0.33676756976531413  0.2646843901647883  0.8985421691280779  1.0000
  C   C50       1.0  0.37070462522944336  0.20997659828397994  0.9308372588930569  1.0000
  C   C51       1.0  0.5880377141634342  0.1655782647816793  0.859369397760162  1.0000
  C   C52       1.0  0.5435396247219373  0.21875779438241946  0.8235575187641545  1.0000
  C   C53       1.0  0.41847112296277805  0.2698572486441008  0.8444619848426742  1.0000
  C   C54       1.0  0.6150211356224277  0.22248781703197554  0.7668259594613575  1.0000
  C   C55       1.0  0.5635616941427061  0.27731422441969755  0.733165637107689  1.0000
  C   C56       1.0  0.4438113965370718  0.3281818661778432  0.756488514349009  1.0000
  C   C57       1.0  0.3740724338778918  0.32464369463576037  0.8098141031045927  1.0000
  C   C58       1.0  0.7342989459741464  0.1715198546438046  0.7434918587775458  1.0000
  C   C59       1.0  0.8039357739902544  0.17502099643773766  0.6901511367264421  1.0000
  C   C60       1.0  0.7597137739235508  0.22983169163294553  0.6555039449345799  1.0000
  C   C61       1.0  0.6349355958117827  0.281024462214738  0.6764148498493727  1.0000
  C   C62       1.0  0.8411885345425816  0.2348772398439395  0.6013785144662551  1.0000
  C   C63       1.0  0.8076581097212742  0.2896059632121534  0.5690914959890493  1.0000
  C   C64       1.0  0.5908412547882521  0.3342318166115207  0.6406014727949485  1.0000
  C   C65       1.0  0.5227396301226436  0.09928406619928862  0.944801333474196  1.0000
  C   C66       1.0  0.5169826702717587  0.9222726379025235  0.9217802160401904  1.0000
  C   C67       1.0  0.020763599703350618  0.8997120872062329  0.05448905302687022  1.0000
  C   C68       1.0  0.031244665500146603  0.0770990727668561  0.07718322088597773  1.0000
  O   O1        1.0  0.48293500964848596  0.4248445386907207  0.5475202116693795  1.0000
  O   O2        1.0  0.8278900958050884  0.5590914132832124  0.5602959752626832  1.0000
  O   O3        1.0  0.9800784661513193  0.5782437557576684  0.45586438065647883  1.0000
  O   O4        1.0  0.8208897459913304  0.4241640940364988  0.5371209132438679  1.0000
  O   O5        1.0  0.9797281645887  0.4466897167866152  0.4370420736870814  1.0000
  O   O6        1.0  0.48522268697925613  0.5571219569942087  0.5622331565061104  1.0000
  O   O7        1.0  0.6464045468121284  0.5075913100501237  0.46718857508081163  1.0000
  O   O8        1.0  0.32064350509644873  0.43810623632609963  0.4432938767275729  1.0000
  O   O9        1.0  0.3201226489608829  0.5739326192576968  0.46068112581745185  1.0000
  O   O10       1.0  0.14909636013325672  0.493633632689928  0.5337076850307626  1.0000
  O   O11       1.0  0.689822433540961  0.9439833794387056  0.9370538674047996  1.0000
  O   O12       1.0  0.35792046722501425  0.07436866829620932  0.9614178753665713  1.0000
  O   O13       1.0  0.20109370827213272  0.05543926652682531  0.062135249961862406  1.0000
  O   O14       1.0  0.3477653647973256  0.9388079450533126  0.9412675443489675  1.0000
  O   O15       1.0  0.1957691780595782  0.9231573490293032  0.045764279742059016  1.0000
  O   O16       1.0  0.6969617186513092  0.07599140198315979  0.9536272494193059  1.0000
  O   O17       1.0  0.5316212940461611  0.9924607531722601  0.032946222603939604  1.0000
  O   O18       1.0  0.8560568130627788  0.9245606021034901  0.03784959422895181  1.0000
  O   O19       1.0  0.8589364586023651  0.06008610080331781  0.05778907072838282  1.0000
  O   O20       1.0  0.028676196824221702  0.006330375734059101  0.9663369494781194  1.0000
