data_image0
_chemical_formula_structural       Zn2H44C48N2O20
_chemical_formula_sum              "Zn2 H44 C48 N2 O20"
_cell_length_a       13.947101624361316
_cell_length_b       15.130640302377614
_cell_length_c       15.874063398428598
_cell_angle_alpha    89.70708237530714
_cell_angle_beta     89.91463492785508
_cell_angle_gamma    89.29225384115341

_space_group_name_H-M_alt    "P 1"
_space_group_IT_number       1

loop_
  _space_group_symop_operation_xyz
  'x, y, z'

loop_
  _atom_site_type_symbol
  _atom_site_label
  _atom_site_symmetry_multiplicity
  _atom_site_fract_x
  _atom_site_fract_y
  _atom_site_fract_z
  _atom_site_occupancy
  Zn  Zn1       1.0  0.3902099237535594  0.5026203209428388  0.5118461173242536  1.0000
  Zn  Zn2       1.0  0.5944750770713084  0.5104091487734125  0.5025861662545734  1.0000
  H   H1        1.0  0.35762913880774505  0.0660773672217161  0.41374630412182256  1.0000
  H   H2        1.0  0.5358846509624229  0.9658839878463896  0.6277645909376586  1.0000
  H   H3        1.0  0.4335908757093847  0.9272016889862513  0.3736292090159451  1.0000
  H   H4        1.0  0.6289371773236851  0.0675995487994356  0.5451389911552268  1.0000
  H   H5        1.0  0.7446817643126309  0.5855652200303256  0.3935213746642247  1.0000
  H   H6        1.0  0.23814271139342214  0.630437189487246  0.5431461432021578  1.0000
  H   H7        1.0  0.7413728712241435  0.42866144572131765  0.6069260883475776  1.0000
  H   H8        1.0  0.24549165092781774  0.3673016222576138  0.4756079196470607  1.0000
  H   H9        1.0  0.2510054742845255  0.4591512138012207  0.03240067615450219  1.0000
  H   H10       1.0  0.29209771938715795  0.5187693747289472  0.12362574370871467  1.0000
  H   H11       1.0  0.2221186739374018  0.4209599048255157  0.1367713013401897  1.0000
  H   H12       1.0  0.692670823525127  0.43559035434139304  0.8085137263348868  1.0000
  H   H13       1.0  0.7398670358835061  0.3760989382069511  0.8979954759902852  1.0000
  H   H14       1.0  0.8024263028360038  0.4700292184927548  0.8570847870055827  1.0000
  H   H15       1.0  0.3920748846420992  0.24421529756777724  0.9321323403020684  1.0000
  H   H16       1.0  0.4306308480961222  0.3008270273804711  0.8378515895921053  1.0000
  H   H17       1.0  0.3057482607095068  0.283300967147845  0.85615681115528  1.0000
  H   H18       1.0  0.7477455407775934  0.41006970209294014  0.1266203885656552  1.0000
  H   H19       1.0  0.6777391700281112  0.46157329687375886  0.20894467133932437  1.0000
  H   H20       1.0  0.7862902271261588  0.511609805131343  0.17260192451100653  1.0000
  H   H21       1.0  0.3885893981638091  0.35706397456358013  0.34516040238851525  1.0000
  H   H22       1.0  0.2996084823352803  0.3012656425587821  0.2857249252665071  1.0000
  H   H23       1.0  0.42203678583103255  0.26573243034032856  0.2783099159787738  1.0000
  H   H24       1.0  0.5154735945006834  0.7331742883482378  0.7765578317260446  1.0000
  H   H25       1.0  0.551391492843635  0.6699738232357504  0.6863731676832784  1.0000
  H   H26       1.0  0.4311895075852589  0.713419199600075  0.6937218720330804  1.0000
  H   H27       1.0  0.2891932452413926  0.7227844650608474  0.4158861591055255  1.0000
  H   H28       1.0  0.3281359205054031  0.7033573425471502  0.3099738957931279  1.0000
  H   H29       1.0  0.3030463653923974  0.8145407799122709  0.3440013392513065  1.0000
  H   H30       1.0  0.7889644220071474  0.27807995684720765  0.5054759470150285  1.0000
  H   H31       1.0  0.7039326348930999  0.2924536801972693  0.4218886256524925  1.0000
  H   H32       1.0  0.752659331048136  0.1838263554760573  0.4456608611843932  1.0000
  H   H33       1.0  0.8526332128584143  0.6974993113404581  0.3485036974253717  1.0000
  H   H34       1.0  0.842996630921597  0.6046531166804314  0.27905499989061155  1.0000
  H   H35       1.0  0.9485410595649097  0.6712238719319716  0.2768523492061448  1.0000
  H   H36       1.0  0.1373529902803696  0.7498899362320657  0.5123396653353041  1.0000
  H   H37       1.0  0.13436444871214795  0.716900874597947  0.6212593588599871  1.0000
  H   H38       1.0  0.0349400959815469  0.7770406086039403  0.5764108893894857  1.0000
  H   H39       1.0  0.8377001787509925  0.3121201153659569  0.6537275653836898  1.0000
  H   H40       1.0  0.8409561112368564  0.4071226798895894  0.7209097156636659  1.0000
  H   H41       1.0  0.9384119128031967  0.3284749013441298  0.722122893626391  1.0000
  H   H42       1.0  0.1437363193351402  0.24931662093229792  0.502033778489924  1.0000
  H   H43       1.0  0.15242780089144495  0.2772182326965477  0.3925214091144794  1.0000
  H   H44       1.0  0.049095070486508505  0.21986076289854847  0.4311412903213635  1.0000
  C   C1        1.0  0.4949669516046526  0.33923666478526115  0.4724039792405463  1.0000
  C   C2        1.0  0.48137668672033124  0.675097926339916  0.532980948395881  1.0000
  C   C3        1.0  0.490722149259625  0.054747083605995804  0.48408125121583356  1.0000
  C   C4        1.0  0.48472317308276996  0.958607245818314  0.4991359507371057  1.0000
  C   C5        1.0  0.8888386548657294  0.5480896210598799  0.437412250195436  1.0000
  C   C6        1.0  0.09500921959722318  0.5758694856151719  0.5232825003852781  1.0000
  C   C7        1.0  0.8868324592240596  0.45470929714845465  0.5609556261215969  1.0000
  C   C8        1.0  0.09920975573627541  0.4222968574549952  0.4832964004702375  1.0000
  C   C9        1.0  0.7884175764169611  0.5504216861631192  0.4398133377328505  1.0000
  C   C10       1.0  0.1951899592606523  0.5735564471290359  0.5267107791455385  1.0000
  C   C11       1.0  0.7865994491884719  0.46047355268471074  0.5601487947135906  1.0000
  C   C12       1.0  0.1995143645244184  0.42444252621644557  0.4881787514008947  1.0000
  C   C13       1.0  0.9396174104673776  0.4998440233696898  0.4991460526920262  1.0000
  C   C14       1.0  0.045399347834028  0.49910889808178643  0.5011724529494187  1.0000
  C   C15       1.0  0.49431401897516025  0.529429494189749  0.3451051348565954  1.0000
  C   C16       1.0  0.5028235283216771  0.4689705566981672  0.6675135179261673  1.0000
  C   C17       1.0  0.44091388792554653  0.4127931100132045  0.9683418155934971  1.0000
  C   C18       1.0  0.598759348535637  0.48804555450769993  0.0524504249933173  1.0000
  C   C19       1.0  0.43706396626490823  0.4257187839152508  0.05536865984917229  1.0000
  C   C20       1.0  0.6033191564144145  0.4744479957547155  0.9649858821809615  1.0000
  C   C21       1.0  0.5223320763549211  0.4410554124467937  0.9217900477431441  1.0000
  C   C22       1.0  0.5138071334155967  0.46754476346973217  0.09706995872085859  1.0000
  C   C23       1.0  0.5178421011633603  0.4443811079918305  0.8331469340633217  1.0000
  C   C24       1.0  0.5037023305134696  0.4907008141925289  0.1824664120466366  1.0000
  C   C25       1.0  0.49585851390675373  0.514193708842555  0.25549513917553657  1.0000
  C   C26       1.0  0.510627313401649  0.4526432530186995  0.7569622744854028  1.0000
  C   C27       1.0  0.4190726781009175  0.10064080719882182  0.439487605123773  1.0000
  C   C28       1.0  0.5129417099550081  0.9230545978293847  0.576832147320502  1.0000
  C   C29       1.0  0.4520873801677467  0.901851916650941  0.43597203786059413  1.0000
  C   C30       1.0  0.5698645121534014  0.1016811662244876  0.513348504822126  1.0000
  C   C31       1.0  0.42276409115932984  0.19222411545148793  0.42907479180742303  1.0000
  C   C32       1.0  0.5096673228215708  0.831913490629745  0.5928156073819153  1.0000
  C   C33       1.0  0.4508301185375386  0.8112494745482408  0.45100561897204017  1.0000
  C   C34       1.0  0.5753074260485248  0.1926486193047623  0.5014031045946864  1.0000
  C   C35       1.0  0.4996780737552696  0.24093840773206668  0.4627049932442873  1.0000
  C   C36       1.0  0.47909183656032167  0.7743199560184026  0.5289671590720744  1.0000
  C   C37       1.0  0.2765727845463886  0.4530688610895695  0.09772492811090668  1.0000
  C   C38       1.0  0.7315168165065629  0.44172158972790504  0.8683249408262768  1.0000
  C   C39       1.0  0.3745357329255583  0.296920887564049  0.8863737386267159  1.0000
  C   C40       1.0  0.7236016493320249  0.4734725945376753  0.1537585086151623  1.0000
  C   C41       1.0  0.36676553149508345  0.29264049896089983  0.3208564699138491  1.0000
  C   C42       1.0  0.5069562598597415  0.7256116554143902  0.7083605121744582  1.0000
  C   C43       1.0  0.33169743378028466  0.7491855885035079  0.3630757956755488  1.0000
  C   C44       1.0  0.7289608519687363  0.24769651253170374  0.4722645670124449  1.0000
  C   C45       1.0  0.8926167319890296  0.6437016295213738  0.3173084793269965  1.0000
  C   C46       1.0  0.09090200267284129  0.727378243131298  0.5641469079571235  1.0000
  C   C47       1.0  0.8845751575865533  0.3615256995742158  0.6825245597614324  1.0000
  C   C48       1.0  0.10275265842209082  0.2696681102508336  0.445873239272565  1.0000
  N   N1        1.0  0.7405818383399561  0.507579965342039  0.5005962673255339  1.0000
  N   N2        1.0  0.24421109482009482  0.4990542573157128  0.5093753188905978  1.0000
  O   O1        1.0  0.4146858610405885  0.37018871220908534  0.4981885478260891  1.0000
  O   O2        1.0  0.563447685782215  0.638076592121287  0.537718630342887  1.0000
  O   O3        1.0  0.40119881663166973  0.6362884858771168  0.528234535932455  1.0000
  O   O4        1.0  0.56967443569539  0.3840160911338728  0.4582812952839531  1.0000
  O   O5        1.0  0.4145683910324962  0.5175350825086087  0.3824931263683453  1.0000
  O   O6        1.0  0.5810657977327124  0.4657314386212264  0.6256461881071614  1.0000
  O   O7        1.0  0.4194944262312603  0.4863328931086813  0.6395464522448009  1.0000
  O   O8        1.0  0.5739869556897902  0.5496427482662725  0.37856368609909896  1.0000
  O   O9        1.0  0.36063487159637475  0.397039086450576  0.10227801904128597  1.0000
  O   O10       1.0  0.6843927994259857  0.5020766939976511  0.9249698381261877  1.0000
  O   O11       1.0  0.3615101803268671  0.379978921795555  0.9292130846159593  1.0000
  O   O12       1.0  0.6754531195020944  0.5264489880931933  0.09076811257941127  1.0000
  O   O13       1.0  0.34605725649096536  0.23001236614560844  0.3871248812491928  1.0000
  O   O14       1.0  0.5375305042959154  0.8078510818939365  0.672319277130448  1.0000
  O   O15       1.0  0.43065673254344006  0.7537196893171227  0.3860213715482388  1.0000
  O   O16       1.0  0.6547696844700681  0.23452043835463604  0.5338884402375115  1.0000
  O   O17       1.0  0.9422131958490212  0.5893367250344285  0.377744717462086  1.0000
  O   O18       1.0  0.0410991921009938  0.6485938261782708  0.5416575023683661  1.0000
  O   O19       1.0  0.9377720863531706  0.4087499728718456  0.6197948100386695  1.0000
  O   O20       1.0  0.04916623815870479  0.3497317969979362  0.4611056488821744  1.0000
