data_image0
_chemical_formula_structural       Nd2H18C20O18
_chemical_formula_sum              "Nd2 H18 C20 O18"
_cell_length_a       6.864551632259866
_cell_length_b       9.962942131933696
_cell_length_c       10.932124189518344
_cell_angle_alpha    117.10498582059978
_cell_angle_beta     101.92234947007776
_cell_angle_gamma    90.01491114971613

_space_group_name_H-M_alt    "P 1"
_space_group_IT_number       1

loop_
  _space_group_symop_operation_xyz
  'x, y, z'

loop_
  _atom_site_type_symbol
  _atom_site_label
  _atom_site_symmetry_multiplicity
  _atom_site_fract_x
  _atom_site_fract_y
  _atom_site_fract_z
  _atom_site_occupancy
  Nd  Nd1       1.0  0.4466345158204489  0.3854749669846881  0.2888128851892374  1.0000
  Nd  Nd2       1.0  0.9467966061510535  0.9033050218066588  0.28879906733880734  1.0000
  H   H1        1.0  0.46096208688987855  0.0197694111915467  0.6790314323163287  1.0000
  H   H2        1.0  0.9612324232684556  0.6593209771016574  0.6792566278908011  1.0000
  H   H3        1.0  0.6454149318197578  0.0728886124450554  0.9222218532532409  1.0000
  H   H4        1.0  0.14550744174543684  0.8496215710331325  0.9224020428832346  1.0000
  H   H5        1.0  0.5206305797870385  0.6038636561776087  0.8106231140177229  1.0000
  H   H6        1.0  0.020110645344693992  0.20675092563016756  0.8104948241345368  1.0000
  H   H7        1.0  0.1618193419547679  0.467220896386628  0.6492665425171679  1.0000
  H   H8        1.0  0.6618878146487503  0.18186335363771622  0.6491812433724817  1.0000
  H   H9        1.0  0.3880066119879756  0.3765140674393733  0.6332787801980686  1.0000
  H   H10       1.0  0.8880258585985884  0.2564249200671753  0.6329492164618671  1.0000
  H   H11       1.0  0.8806943667820873  0.31282395762366366  0.2522718626986915  1.0000
  H   H12       1.0  0.38091222643781447  0.9396635445330045  0.252164444435337  1.0000
  H   H13       1.0  0.7509329513181556  0.15967499401278218  0.15864614808057106  1.0000
  H   H14       1.0  0.2507996386987301  0.9992287989914528  0.15871660462833856  1.0000
  H   H15       1.0  0.6296274607982042  0.59500309518463  0.21136298577955867  1.0000
  H   H16       1.0  0.1296220438961058  0.6163731703823174  0.21128908668245577  1.0000
  H   H17       1.0  0.4249519762713091  0.5376346583725959  0.09465285525012483  1.0000
  H   H18       1.0  0.9251533293267967  0.5571690517845909  0.09437371385245537  1.0000
  C   C1        1.0  0.41755419530495896  0.66400613509132  0.6425649657278356  1.0000
  C   C2        1.0  0.9174808956785653  0.9784361169158656  0.6425373749948236  1.0000
  C   C3        1.0  0.4019700908748405  0.781605430811467  0.6038855004639885  1.0000
  C   C4        1.0  0.9020606363623429  0.8221629779081209  0.6039442944872419  1.0000
  C   C5        1.0  0.4803063078413956  0.9288426472434635  0.7083253989310236  1.0000
  C   C6        1.0  0.9804753482821907  0.7795077878582575  0.7084379347753684  1.0000
  C   C7        1.0  0.5795146720126284  0.9587120257301437  0.8440037504159293  1.0000
  C   C8        1.0  0.07967064834836886  0.8854641474625636  0.8440904302114022  1.0000
  C   C9        1.0  0.5939237712017018  0.8402016689243794  0.8797285346506384  1.0000
  C   C10       1.0  0.0937495880396568  0.03968524175664359  0.8797629079306688  1.0000
  C   C11       1.0  0.5087667121446698  0.6935609310225387  0.7796310689733942  1.0000
  C   C12       1.0  0.008485992907964101  0.08609497999709247  0.7795918465682304  1.0000
  C   C13       1.0  0.2650538052713145  0.41523472256234567  0.5796280519101699  1.0000
  C   C14       1.0  0.7649846162194862  0.16409581554493965  0.5794360755729926  1.0000
  C   C15       1.0  0.15490525776523606  0.27965855968518827  0.4424124159078815  1.0000
  C   C16       1.0  0.6547430376687657  0.16233612898737698  0.4421999705362864  1.0000
  C   C17       1.0  0.3000721144659977  0.756127452376617  0.4588382341450127  1.0000
  C   C18       1.0  0.8002466508700578  0.7025927666203841  0.45885984985000045  1.0000
  C   C19       1.0  0.7065771300850514  0.864378343770731  0.021777535102366064  1.0000
  C   C20       1.0  0.20635087018294476  0.15768172989988463  0.021826887622488293  1.0000
  O   O1        1.0  0.3374927034742115  0.5208343533709368  0.5399400114551369  1.0000
  O   O2        1.0  0.8373021708730447  0.018807056552255102  0.5398243520477877  1.0000
  O   O3        1.0  0.1429754566313832  0.28700000585256896  0.32817516180005424  1.0000
  O   O4        1.0  0.6429563745129697  0.040761983172814084  0.32800439058600256  1.0000
  O   O5        1.0  0.0839707254186379  0.17006619213663748  0.45373334000015564  1.0000
  O   O6        1.0  0.5836565406128641  0.2831557632553653  0.45345507587420286  1.0000
  O   O7        1.0  0.28894478937700535  0.6242582375110358  0.3527413390567844  1.0000
  O   O8        1.0  0.7892380888738515  0.7283654665132955  0.35276930733081  1.0000
  O   O9        1.0  0.2277512342749758  0.8677086271888182  0.4464290205847233  1.0000
  O   O10       1.0  0.7277792517846605  0.5785919752588099  0.4464173629899831  1.0000
  O   O11       1.0  0.8292246188251937  0.9851386784934205  0.10064807897667555  1.0000
  O   O12       1.0  0.3291947622626239  0.11585170091645129  0.1006361835976861  1.0000
  O   O13       1.0  0.686711932198662  0.7635477985180967  0.060817083447858494  1.0000
  O   O14       1.0  0.1861929318620028  0.2974890789242508  0.06091985055495295  1.0000
  O   O15       1.0  0.7408446694254065  0.27115128089592827  0.20309431763678987  1.0000
  O   O16       1.0  0.24096864017992198  0.9321024062667005  0.20309315039636994  1.0000
  O   O17       1.0  0.5350299902048973  0.502719335657595  0.14070622338019234  1.0000
  O   O18       1.0  0.035277501945593294  0.6381427787033829  0.14063952670751695  1.0000
