data_image0
_chemical_formula_structural       K2H14C6O6
_chemical_formula_sum              "K2 H14 C6 O6"
_cell_length_a       5.2397065466954995
_cell_length_b       5.2397027471674384
_cell_length_c       8.948532310737392
_cell_angle_alpha    87.327073056938
_cell_angle_beta     87.32671775699465
_cell_angle_gamma    90.12033446926853

_space_group_name_H-M_alt    "P 1"
_space_group_IT_number       1

loop_
  _space_group_symop_operation_xyz
  'x, y, z'

loop_
  _atom_site_type_symbol
  _atom_site_label
  _atom_site_symmetry_multiplicity
  _atom_site_fract_x
  _atom_site_fract_y
  _atom_site_fract_z
  _atom_site_occupancy
  K   K1        1.0  0.7102388618543357  0.7102431214406265  0.06044946805604213  1.0000
  K   K2        1.0  0.2897588418411772  0.28975959600009554  0.9395502491745235  1.0000
  H   H1        1.0  0.18722377569816467  0.8394960564505  0.8120413620377749  1.0000
  H   H2        1.0  0.1605030148737967  0.8127776525739846  0.18795622113993465  1.0000
  H   H3        1.0  0.8127758479394486  0.16050671012875736  0.18795606928276246  1.0000
  H   H4        1.0  0.8394947201938764  0.18722315468062334  0.81204354464672  1.0000
  H   H5        1.0  0.49027183234910154  0.06389304916285708  0.6552828555231545  1.0000
  H   H6        1.0  0.9361059488066985  0.509733605442328  0.34471596012938494  1.0000
  H   H7        1.0  0.5097335536715876  0.9361079258651231  0.3447144731642525  1.0000
  H   H8        1.0  0.06389562870194249  0.4902653611224608  0.6552859889341679  1.0000
  H   H9        1.0  0.4302015483904214  0.7542653731193383  0.5934504644355983  1.0000
  H   H10       1.0  0.24573465210207243  0.569804301085  0.40654748320530154  1.0000
  H   H11       1.0  0.5698000483284956  0.245733612632641  0.40654701360071516  1.0000
  H   H12       1.0  0.7542669036395467  0.4301965852594947  0.5934521817885428  1.0000
  H   H13       1.0  0.8735130929538785  0.8735056824688101  0.572232788271535  1.0000
  H   H14       1.0  0.12649040449687018  0.1264933332345137  0.42776687488198933  1.0000
  C   C1        1.0  0.5127009096493679  0.8577126309578202  0.6852667360299167  1.0000
  C   C2        1.0  0.14228703624874578  0.48730182229403607  0.31473357564805593  1.0000
  C   C3        1.0  0.48729873575527444  0.14228821584173088  0.31473297936033634  1.0000
  C   C4        1.0  0.857714509887735  0.5126990544568669  0.6852683248594007  1.0000
  C   C5        1.0  0.7992447943451493  0.7992424120223516  0.6850487983932398  1.0000
  C   C6        1.0  0.20075675659389697  0.20075846952534698  0.314951984357407  1.0000
  O   O1        1.0  0.38119623853891926  0.7931065587796907  0.8247838676283412  1.0000
  O   O2        1.0  0.2068901160032866  0.6188047992134642  0.17521557284533884  1.0000
  O   O3        1.0  0.6188072009700676  0.20689628209265717  0.17521458065618847  1.0000
  O   O4        1.0  0.793107645633988  0.38119409305823376  0.8247853592542145  1.0000
  O   O5        1.0  0.920777117325926  0.9207756371778115  0.7998913089389749  1.0000
  O   O6        1.0  0.07922259082305058  0.0792213892495113  0.20010850356344895  1.0000
