data_image0
_chemical_formula_structural       Al2H24C54O12
_chemical_formula_sum              "Al2 H24 C54 O12"
_cell_length_a       3.9328978733070663
_cell_length_b       24.49442739914992
_cell_length_c       24.494379142951342
_cell_angle_alpha    119.99983136274527
_cell_angle_beta     89.99969668740854
_cell_angle_gamma    90.00137786250232

_space_group_name_H-M_alt    "P 1"
_space_group_IT_number       1

loop_
  _space_group_symop_operation_xyz
  'x, y, z'

loop_
  _atom_site_type_symbol
  _atom_site_label
  _atom_site_symmetry_multiplicity
  _atom_site_fract_x
  _atom_site_fract_y
  _atom_site_fract_z
  _atom_site_occupancy
  Al  Al1       1.0  8.939360803599993e-06  0.49999884805858835  0.500000919062579  1.0000
  Al  Al2       1.0  8.340154643300003e-06  0.1666658956580704  0.8333351846025465  1.0000
  H   H1        1.0  0.545583227232427  0.3256143544511828  0.4993609178462108  1.0000
  H   H2        1.0  0.5142449011610067  0.22355464581414702  0.4986505785181734  1.0000
  H   H3        1.0  0.45440626269163426  0.5006355457515212  0.674383421988388  1.0000
  H   H4        1.0  0.48575801342195746  0.501346301106956  0.7764431138952689  1.0000
  H   H5        1.0  0.5455607834177769  0.3410488635233405  0.8339677405882641  1.0000
  H   H6        1.0  0.5142099655775071  0.4431078614390529  0.8346859509949028  1.0000
  H   H7        1.0  0.4544726542630712  0.1660315598358792  0.658952232642534  1.0000
  H   H8        1.0  0.4857973335345632  0.1653146796771168  0.556891505170441  1.0000
  H   H9        1.0  0.5455684844966058  0.6737515914143584  0.6743880479366239  1.0000
  H   H10       1.0  0.514226020897837  0.7750926048754747  0.7764439074264189  1.0000
  H   H11       1.0  0.45445042189285795  0.6737443527748752  0.499364926735332  1.0000
  H   H12       1.0  0.48579126124074173  0.775090648806703  0.498648602013759  1.0000
  H   H13       1.0  0.5455523104914021  0.9929209344985778  0.6589495126432181  1.0000
  H   H14       1.0  0.5142158004842871  0.8915720681465514  0.5568882536457948  1.0000
  H   H15       1.0  0.4544154491296625  0.9929184451088772  0.8339711999275252  1.0000
  H   H16       1.0  0.4857815524510228  0.8915765803676264  0.8346857311909943  1.0000
  H   H17       1.0  0.5455486762247048  0.5006367166601676  0.32625503758382024  1.0000
  H   H18       1.0  0.5142122773244182  0.5013521511670901  0.2249092297151094  1.0000
  H   H19       1.0  0.4544498760846024  0.32561583012535766  0.32625196937746637  1.0000
  H   H20       1.0  0.48578464481467876  0.2235575147700075  0.22491096504682417  1.0000
  H   H21       1.0  0.5455745805373977  0.16602912701969066  0.007083955495176003  1.0000
  H   H22       1.0  0.5142320066839544  0.1653180117409931  0.1084285219407732  1.0000
  H   H23       1.0  0.4544210001143725  0.3410482995606472  0.007077575725290293  1.0000
  H   H24       1.0  0.48576266200199564  0.4431105871029358  0.10842622725002832  1.0000
  C   C1        1.0  0.4999970374917949  0.4513852755146246  0.40277234054977384  1.0000
  C   C2        1.0  0.499989416361771  0.4513821362524907  0.5486136082698464  1.0000
  C   C3        1.0  0.5000259194765561  0.5972282651669331  0.5486164645592453  1.0000
  C   C4        1.0  0.5000207758954074  0.2152808410065318  0.7847215493021479  1.0000
  C   C5        1.0  0.4999817304256026  0.06943898411335428  0.7847201365550802  1.0000
  C   C6        1.0  0.5000131547414811  0.2152772934891872  0.9305624087664699  1.0000
  C   C7        1.0  0.5244344313973882  0.3505579989626141  0.5506156985728978  1.0000
  C   C8        1.0  0.5109399621509283  0.31646049952880867  0.5825666802333274  1.0000
  C   C9        1.0  0.5077316512161616  0.24890119312804868  0.5500961034523186  1.0000
  C   C10       1.0  0.47558311466314507  0.449380491203314  0.6494393385220504  1.0000
  C   C11       1.0  0.4890993885102617  0.41742854364054677  0.6835372476081502  1.0000
  C   C12       1.0  0.49228154085969317  0.4499024116781953  0.7510966669406045  1.0000
  C   C13       1.0  0.5244277793082119  0.31610395688270637  0.7827230766596996  1.0000
  C   C14       1.0  0.5109319723192485  0.35020007782240714  0.7507660438323852  1.0000
  C   C15       1.0  0.5077073680588812  0.4177644119268038  0.7832364726470545  1.0000
  C   C16       1.0  0.4756233689494919  0.21727569995076124  0.6838942934957616  1.0000
  C   C17       1.0  0.48912025542711746  0.2492313199687998  0.6498009581876403  1.0000
  C   C18       1.0  0.4923099954055915  0.21676155349402387  0.582233373848382  1.0000
  C   C19       1.0  0.49999631144167717  0.4162872234624542  0.5837094758470655  1.0000
  C   C20       1.0  0.5000308143384371  0.3500777778423156  0.6499208154233359  1.0000
  C   C21       1.0  0.5000240521207289  0.25038357837435393  0.7496203066846121  1.0000
  C   C22       1.0  0.5000251462312875  0.3165913741280307  0.6834106170881996  1.0000
  C   C23       1.0  0.5244262018607556  0.7000524566298552  0.6494424265025814  1.0000
  C   C24       1.0  0.5109164172388604  0.7661010688921263  0.6835395979544358  1.0000
  C   C25       1.0  0.5077116207515785  0.8011943181990302  0.7510973458506739  1.0000
  C   C26       1.0  0.47559878519861337  0.7000503355956553  0.5506153512273216  1.0000
  C   C27       1.0  0.4890920279723047  0.7661070148223459  0.5825685398645675  1.0000
  C   C28       1.0  0.49229645890348905  0.8011907508577991  0.5500966989865077  1.0000
  C   C29       1.0  0.5244000797185819  0.9666137062084346  0.6838940215511399  1.0000
  C   C30       1.0  0.5109119597698352  0.9005598809684372  0.6497954499208021  1.0000
  C   C31       1.0  0.5077016398243542  0.8654740627049903  0.5822376003001396  1.0000
  C   C32       1.0  0.47557176947520213  0.9666129834962047  0.7827179317307796  1.0000
  C   C33       1.0  0.48908405940837696  0.9005648926964722  0.7507709329581899  1.0000
  C   C34       1.0  0.4922845743412551  0.865472879778551  0.7832363727592765  1.0000
  C   C35       1.0  0.5000230126805718  0.6674261854570744  0.583712464017573  1.0000
  C   C36       1.0  0.5000039492326492  0.7998448234290194  0.6499206041405189  1.0000
  C   C37       1.0  0.4999817624865344  0.9992435747120535  0.7496210565902146  1.0000
  C   C38       1.0  0.5000033685850127  0.8668245916489566  0.6834116285422596  1.0000
  C   C39       1.0  0.5244005274626388  0.4493872856405686  0.2999514256045329  1.0000
  C   C40       1.0  0.5109104673800431  0.4174299739930375  0.2338938359901874  1.0000
  C   C41       1.0  0.5077021710865636  0.44990227631870977  0.1988077393382  1.0000
  C   C42       1.0  0.4755943988091574  0.3505577559384818  0.29994969884683803  1.0000
  C   C43       1.0  0.489086824492709  0.3164629481870591  0.23390186300260044  1.0000
  C   C44       1.0  0.49229621877026364  0.24890247880363597  0.1988057475109173  1.0000
  C   C45       1.0  0.5244282163718665  0.21727887029109638  0.03338794472140449  1.0000
  C   C46       1.0  0.5109152865722493  0.24922896152604315  0.09943552692121217  1.0000
  C   C47       1.0  0.5077186367501271  0.2167614805662552  0.13452739761748939  1.0000
  C   C48       1.0  0.475593873770663  0.3161016925095623  0.033385471106228685  1.0000
  C   C49       1.0  0.48909172478542456  0.35020466347171453  0.09944237152495111  1.0000
  C   C50       1.0  0.49227710607677  0.4177597013569779  0.13452597446326564  1.0000
  C   C51       1.0  0.4999930496182258  0.41628605624893567  0.3325734192145688  1.0000
  C   C52       1.0  0.5000030368929911  0.3500790947057908  0.2001533417994281  1.0000
  C   C53       1.0  0.5000116449029477  0.25037892426175284  0.000756365252286214  1.0000
  C   C54       1.0  0.499999115476875  0.31659279683232455  0.1331776967309537  1.0000
  O   O1        1.0  0.7347054968405615  0.5693852977637802  0.5613817085834469  1.0000
  O   O2        1.0  0.7347069780432633  0.4919953409419121  0.430617601689903  1.0000
  O   O3        1.0  0.7346837802808751  0.43862013816188045  0.5080066496527779  1.0000
  O   O4        1.0  0.26531462761997204  0.5693826631584287  0.5080066897115928  1.0000
  O   O5        1.0  0.26531544994039535  0.4919904499293678  0.5613782242262388  1.0000
  O   O6        1.0  0.265288243435279  0.4386193326172645  0.43061535020164854  1.0000
  O   O7        1.0  0.7347051819994802  0.1746706799204602  0.9027208209805763  1.0000
  O   O8        1.0  0.7347258371313996  0.22804629094994058  0.825332181271591  1.0000
  O   O9        1.0  0.7346888648013348  0.09728295380913472  0.7719561163394105  1.0000
  O   O10       1.0  0.26533015170549845  0.22804176266886575  0.9027186467176945  1.0000
  O   O11       1.0  0.265293597064911  0.09728077224574591  0.8253282331002793  1.0000
  O   O12       1.0  0.2652927745646778  0.17467075472385568  0.7719572963202027  1.0000
