data_image0
_chemical_formula_structural       Sm4Ag4H32C56N8O32
_chemical_formula_sum              "Sm4 Ag4 H32 C56 N8 O32"
_cell_length_a       9.152915033193006
_cell_length_b       9.79544532692453
_cell_length_c       22.243750703263096
_cell_angle_alpha    90.00034205778344
_cell_angle_beta     90.00023164662561
_cell_angle_gamma    117.54932714746528

_space_group_name_H-M_alt    "P 1"
_space_group_IT_number       1

loop_
  _space_group_symop_operation_xyz
  'x, y, z'

loop_
  _atom_site_type_symbol
  _atom_site_label
  _atom_site_symmetry_multiplicity
  _atom_site_fract_x
  _atom_site_fract_y
  _atom_site_fract_z
  _atom_site_occupancy
  Sm  Sm1       1.0  0.11670393653527354  0.8528057203621485  0.9907765732839167  1.0000
  Sm  Sm2       1.0  0.3832888386744244  0.1471939810717089  0.49077880482563063  1.0000
  Sm  Sm3       1.0  0.8832879781207693  0.14719089540650288  0.0092214942969946  1.0000
  Sm  Sm4       1.0  0.6167080894614402  0.8528084031804042  0.5092206114604423  1.0000
  Ag  Ag1       1.0  0.4768028465710756  0.8114509112995946  0.8506030656866627  1.0000
  Ag  Ag2       1.0  0.023199026060382284  0.18854567720402565  0.350604358375648  1.0000
  Ag  Ag3       1.0  0.5231983278081955  0.18854230684917178  0.1493950018974743  1.0000
  Ag  Ag4       1.0  0.9768050048853211  0.8114555952738695  0.649394158785924  1.0000
  H   H1        1.0  0.21306982313364384  0.51921920415176  0.1325742749552674  1.0000
  H   H2        1.0  0.2869364580961004  0.4807885711251385  0.632573146048152  1.0000
  H   H3        1.0  0.786936432318278  0.48078437690265463  0.8674291874203561  1.0000
  H   H4        1.0  0.7130653821847658  0.519212690035715  0.36742671980499614  1.0000
  H   H5        1.0  0.7008476568728739  0.4707331045604731  0.06762648680269479  1.0000
  H   H6        1.0  0.7991556478748405  0.5292663995902912  0.5676246065590362  1.0000
  H   H7        1.0  0.29915577578299224  0.5292647193478996  0.9323760764340746  1.0000
  H   H8        1.0  0.20084841686018257  0.4707371700910628  0.4323752592989933  1.0000
  H   H9        1.0  0.2640445593470632  0.3005135569170392  0.1646180860179172  1.0000
  H   H10       1.0  0.23596126743472468  0.6994926413657722  0.6646165484675848  1.0000
  H   H11       1.0  0.7359600362080201  0.6994888670440387  0.8353853763548073  1.0000
  H   H12       1.0  0.7640427635299147  0.30050863113249454  0.335383766951864  1.0000
  H   H13       1.0  0.42670245153524167  0.729158886883482  0.069650987764895  1.0000
  H   H14       1.0  0.07330685243587709  0.27084518849956396  0.5696485024003621  1.0000
  H   H15       1.0  0.5733037701320924  0.2708423969725686  0.9303515754787384  1.0000
  H   H16       1.0  0.9266999675213013  0.7291595439260091  0.43035001476807366  1.0000
  H   H17       1.0  0.012560555068475188  0.8482701279038733  0.7818400446227471  1.0000
  H   H18       1.0  0.4874382774379383  0.15172834024716753  0.2818415619258587  1.0000
  H   H19       1.0  0.9874362717278372  0.1517253647684242  0.2181580229607789  1.0000
  H   H20       1.0  0.51256416117063  0.8482763695239439  0.7181578543678526  1.0000
  H   H21       1.0  0.900591735072716  0.20383655561047923  0.8448913516238435  1.0000
  H   H22       1.0  0.5994080463999794  0.7961657353383769  0.34489526790491704  1.0000
  H   H23       1.0  0.09941558188207718  0.7961647338557184  0.1551062664115364  1.0000
  H   H24       1.0  0.40059001090258306  0.20383895182408904  0.6551090935942909  1.0000
  H   H25       1.0  0.8806414607340968  0.08514101184386648  0.6558816879099965  1.0000
  H   H26       1.0  0.6193641992717785  0.9148570486125321  0.1558863990301518  1.0000
  H   H27       1.0  0.1193631347594603  0.9148614120510172  0.344115930124623  1.0000
  H   H28       1.0  0.38063368915519646  0.08513615260903148  0.8441179624538223  1.0000
  H   H29       1.0  0.8542233042873518  0.25183504681299945  0.7361358865535976  1.0000
  H   H30       1.0  0.6457824193160918  0.7481659716731314  0.2361402031851156  1.0000
  H   H31       1.0  0.1457868016836485  0.7481697026059776  0.2638621810531205  1.0000
  H   H32       1.0  0.3542138767737483  0.2518306668416485  0.7638650574309979  1.0000
  C   C1        1.0  0.5809214751654321  0.6164060329102055  0.0642026957554265  1.0000
  C   C2        1.0  0.9190834173999533  0.38359455078538207  0.5642015307279351  1.0000
  C   C3        1.0  0.4190830865908666  0.38359409383723875  0.9357985187919056  1.0000
  C   C4        1.0  0.08091898744296332  0.6164078618077296  0.4357987846916629  1.0000
  C   C5        1.0  0.32544452301031157  0.515264910750048  0.11911620109087549  1.0000
  C   C6        1.0  0.1745647271108197  0.48474027948439863  0.6191153455164127  1.0000
  C   C7        1.0  0.674563923120644  0.484738681636692  0.8808872612865811  1.0000
  C   C8        1.0  0.8254398684158699  0.515262144446126  0.3808854194694931  1.0000
  C   C9        1.0  0.5961384911279026  0.4867806410519789  0.08209025865354391  1.0000
  C   C10       1.0  0.9038678733823675  0.5132203534918742  0.582088060547548  1.0000
  C   C11       1.0  0.40386607064260016  0.513219485710742  0.9179123045871903  1.0000
  C   C12       1.0  0.0961378174743714  0.48678207609463436  0.4179118053103394  1.0000
  C   C13       1.0  0.351877507197365  0.3919718214577798  0.136150508264457  1.0000
  C   C14       1.0  0.1481299446598426  0.6080360404860554  0.6361485843319556  1.0000
  C   C15       1.0  0.6481281837019708  0.6080306081745588  0.8638534036736588  1.0000
  C   C16       1.0  0.8518741200799127  0.39196752920038586  0.3638517310905485  1.0000
  C   C17       1.0  0.7144205528660306  0.7421720355992387  0.0275517789824491  1.0000
  C   C18       1.0  0.7855802820030461  0.2578277008653345  0.5275500615017847  1.0000
  C   C19       1.0  0.28557740306857937  0.2578257599528654  0.9724485364273862  1.0000
  C   C20       1.0  0.21441936758932204  0.7421735489530049  0.47244890522058813  1.0000
  C   C21       1.0  0.44260513349153996  0.6301182828307503  0.0832920054624182  1.0000
  C   C22       1.0  0.05739894721608606  0.36988377603589123  0.5832897541342561  1.0000
  C   C23       1.0  0.5573988975062248  0.3698829897031572  0.916711456908324  1.0000
  C   C24       1.0  0.9426017977205349  0.6301174794537018  0.41670966215350086  1.0000
  C   C25       1.0  0.9753687479022871  0.9369755979748501  0.7726415230134975  1.0000
  C   C26       1.0  0.5246322675908601  0.06302621908803017  0.2726433871179594  1.0000
  C   C27       1.0  0.024632527811796503  0.0630245117486439  0.2273574437087262  1.0000
  C   C28       1.0  0.4753690756923915  0.9369784850321919  0.7273573778682448  1.0000
  C   C29       1.0  0.9140300068851771  0.13670882450578148  0.8080656505057746  1.0000
  C   C30       1.0  0.585968434679856  0.8632914808321246  0.3080697209957464  1.0000
  C   C31       1.0  0.08597292870680913  0.863292442290678  0.1919315179614713  1.0000
  C   C32       1.0  0.4140301533954371  0.13671206055914814  0.691933741373461  1.0000
  C   C33       1.0  0.904085099633107  0.0712303605347557  0.7029560343252967  1.0000
  C   C34       1.0  0.5959177009209286  0.9287675978263366  0.2029598439611036  1.0000
  C   C35       1.0  0.09591783596361832  0.9287709062667985  0.2970415837064166  1.0000
  C   C36       1.0  0.40408078581955204  0.0712290519902155  0.7970427192700171  1.0000
  C   C37       1.0  0.959262319724452  0.021227450272732495  0.820389896607395  1.0000
  C   C38       1.0  0.5407341906276174  0.9787731228871549  0.3203923974069909  1.0000
  C   C39       1.0  0.040737296083335824  0.9787715023472431  0.17960817098299486  1.0000
  C   C40       1.0  0.4592660573255785  0.0212315755770902  0.6796092667072386  1.0000
  C   C41       1.0  0.8882537677734773  0.16241850796004798  0.7481625459463287  1.0000
  C   C42       1.0  0.6117472631334663  0.8375816088673529  0.24816704120075167  1.0000
  C   C43       1.0  0.11175135849754973  0.837582770168737  0.2518346225227504  1.0000
  C   C44       1.0  0.3882507266235891  0.16241848392385086  0.7518377698568344  1.0000
  C   C45       1.0  0.5037525419979261  0.9791151194102311  0.9667505372226586  1.0000
  C   C46       1.0  0.9962379832095818  0.0208680491016437  0.46675082590546413  1.0000
  C   C47       1.0  0.4962402991173178  0.0208700160785966  0.0332470807794607  1.0000
  C   C48       1.0  0.0037521702290063907  0.9791205180142272  0.5332476912278779  1.0000
  C   C49       1.0  0.9922002044404152  0.983388926265398  0.8827044211766476  1.0000
  C   C50       1.0  0.507794896452161  0.016614192879366392  0.3827061352680659  1.0000
  C   C51       1.0  0.007799975924690697  0.016611177781754794  0.1172936464157175  1.0000
  C   C52       1.0  0.49220817427816105  0.9833962627105487  0.6172946297271337  1.0000
  C   C53       1.0  0.9914120504043353  0.4924140806107927  0.9650846658519611  1.0000
  C   C54       1.0  0.5085709074434418  0.5075781992449535  0.46508407586429  1.0000
  C   C55       1.0  0.008574286219300039  0.5075756152523281  0.0349125025862875  1.0000
  C   C56       1.0  0.49141831951228443  0.49242184812529627  0.5349126430254998  1.0000
  N   N1        1.0  0.4850860335390266  0.37747055415958636  0.11827546691251462  1.0000
  N   N2        1.0  0.014921538965999908  0.6225334599177328  0.6182729103154188  1.0000
  N   N3        1.0  0.5149185282314688  0.6225295726031347  0.8817270963282269  1.0000
  N   N4        1.0  0.9850847164480568  0.37747012109594635  0.3817269555444511  1.0000
  N   N5        1.0  0.9469294226066935  0.9593707228005708  0.715026695037686  1.0000
  N   N6        1.0  0.5530736658500287  0.04062980615942279  0.2150289970440653  1.0000
  N   N7        1.0  0.05307185310265789  0.04062938691782849  0.2849718221200703  1.0000
  N   N8        1.0  0.44692760989244806  0.9593703035946245  0.7849726670649844  1.0000
  O   O1        1.0  0.3692250162518745  0.8800596844642425  0.9434538644200215  1.0000
  O   O2        1.0  0.1307638046934301  0.11992399909875928  0.44345470575450463  1.0000
  O   O3        1.0  0.6307662325120303  0.1199288883025105  0.0565433040208276  1.0000
  O   O4        1.0  0.8692269133119411  0.880065719454464  0.5565447105097618  1.0000
  O   O5        1.0  0.8184527481802847  0.7111156222687851  0.0011605918756743  1.0000
  O   O6        1.0  0.6815431497011558  0.2888834937404922  0.5011614806735096  1.0000
  O   O7        1.0  0.18154298328123994  0.2888798647424409  0.9988379252713955  1.0000
  O   O8        1.0  0.31845490756828093  0.7111211933863328  0.49883973387441216  1.0000
  O   O9        1.0  0.7125979199301326  0.8708872428080097  0.027656245671885  1.0000
  O   O10       1.0  0.7874029171159904  0.12911249599880387  0.527652394468646  1.0000
  O   O11       1.0  0.2874005667819475  0.12910940697798878  0.9723436201724169  1.0000
  O   O12       1.0  0.21259842611993204  0.8708922080705007  0.4723438748728555  1.0000
  O   O13       1.0  0.04701424681965692  0.6157959276337407  0.9352145309016535  1.0000
  O   O14       1.0  0.45297231128976273  0.3841944495154834  0.4352148040602302  1.0000
  O   O15       1.0  0.9529786956351316  0.3841960994348951  0.064784435803027  1.0000
  O   O16       1.0  0.5470212970382349  0.6158056205346863  0.5647832635266354  1.0000
  O   O17       1.0  0.6408191994576953  0.04452592117079489  0.940257487063313  1.0000
  O   O18       1.0  0.859172924842376  0.9554543613472503  0.44025685891145366  1.0000
  O   O19       1.0  0.3591747707769103  0.9554615171774614  0.0597405805072455  1.0000
  O   O20       1.0  0.14081888849304386  0.0445353628619571  0.5597416582247874  1.0000
  O   O21       1.0  0.9224938667512529  0.35687004463100885  0.9435988452382915  1.0000
  O   O22       1.0  0.577486414271064  0.6431194400070692  0.44359872615269313  1.0000
  O   O23       1.0  0.07749522509453739  0.6431208139763311  0.056396974510356294  1.0000
  O   O24       1.0  0.4225050033684353  0.35688061870059323  0.5563984423033972  1.0000
  O   O25       1.0  0.054958325011312856  0.892360152474495  0.8874495753192662  1.0000
  O   O26       1.0  0.4450367573546287  0.10764412258276218  0.38745045670228967  1.0000
  O   O27       1.0  0.9450391339020214  0.1076410860115189  0.1125493914012736  1.0000
  O   O28       1.0  0.5549729867239607  0.8923732585533983  0.6125489596141449  1.0000
  O   O29       1.0  0.9559206628937674  0.04357278971534839  0.92682341240441  1.0000
  O   O30       1.0  0.5440731762323381  0.9564313174953722  0.42682541042857025  1.0000
  O   O31       1.0  0.04407789135908054  0.956428454436832  0.07317555431704649  1.0000
  O   O32       1.0  0.4559283021655887  0.04358257539284688  0.5731767032632361  1.0000
