data_image0
_chemical_formula_structural       Hg4H24C20S20Cl8
_chemical_formula_sum              "Hg4 H24 C20 S20 Cl8"
_cell_length_a       3.958021996013041
_cell_length_b       11.44379541813328
_cell_length_c       26.32761126856944
_cell_angle_alpha    91.76968554478537
_cell_angle_beta     90.00029124261162
_cell_angle_gamma    89.99994100224778

_space_group_name_H-M_alt    "P 1"
_space_group_IT_number       1

loop_
  _space_group_symop_operation_xyz
  'x, y, z'

loop_
  _atom_site_type_symbol
  _atom_site_label
  _atom_site_symmetry_multiplicity
  _atom_site_fract_x
  _atom_site_fract_y
  _atom_site_fract_z
  _atom_site_occupancy
  Hg  Hg1       1.0  0.26340725177441027  0.40053062968464553  0.059325803024996994  1.0000
  Hg  Hg2       1.0  0.76341897225398  0.09947676393147731  0.44067146814747093  1.0000
  Hg  Hg3       1.0  0.7365875855086659  0.599473859796028  0.9406723925396392  1.0000
  Hg  Hg4       1.0  0.2365859711043186  0.9005294819014938  0.5593278882048835  1.0000
  H   H1        1.0  0.4289812766578224  0.9324662392121116  0.039732818636501605  1.0000
  H   H2        1.0  0.9289533317630756  0.567539891182264  0.4602715606924193  1.0000
  H   H3        1.0  0.5710666175494411  0.06753042653532763  0.9602717392365392  1.0000
  H   H4        1.0  0.0710516115920825  0.43245848117225466  0.5397269405547718  1.0000
  H   H5        1.0  0.7310086950129744  0.818694923121129  0.0473576828295421  1.0000
  H   H6        1.0  0.23096803295734253  0.6813156115062713  0.4526424213940885  1.0000
  H   H7        1.0  0.26904677871302607  0.18130610601443922  0.9526457884465386  1.0000
  H   H8        1.0  0.7690268042806069  0.31868361153141234  0.5473526716816579  1.0000
  H   H9        1.0  0.8230852057537988  0.9622622319149702  0.0722893994546041  1.0000
  H   H10       1.0  0.32305674438232046  0.5377491717883702  0.42771420371439467  1.0000
  H   H11       1.0  0.17695005590667282  0.03773969242161711  0.927717121314096  1.0000
  H   H12       1.0  0.6769431459018378  0.46225180760239243  0.5722820501471659  1.0000
  H   H13       1.0  0.48995800519213617  0.9073559950647768  0.2936759790072614  1.0000
  H   H14       1.0  0.9899567237175972  0.5926413659475006  0.2063272008431412  1.0000
  H   H15       1.0  0.5100216730996721  0.09264415983359701  0.7063274816424538  1.0000
  H   H16       1.0  0.0100204280392546  0.4073596553444787  0.7936751308148898  1.0000
  H   H17       1.0  0.13328796207801466  0.8316804493235002  0.31879363894253027  1.0000
  H   H18       1.0  0.6332906603139962  0.6683205095325422  0.18120779433102996  1.0000
  H   H19       1.0  0.8666866631287959  0.16832318162293802  0.681206825193641  1.0000
  H   H20       1.0  0.3666890179164711  0.3316822445454691  0.8187922793465177  1.0000
  H   H21       1.0  0.110498446170979  0.9862576311175817  0.3110782134593748  1.0000
  H   H22       1.0  0.6104917484367719  0.5137450912067865  0.1889243633736228  1.0000
  H   H23       1.0  0.8894862851196877  0.013746010301694903  0.6889237701318863  1.0000
  H   H24       1.0  0.38948792978186475  0.4862567833849953  0.8110749399805569  1.0000
  C   C1        1.0  0.1843067040371267  0.20531804232027898  0.1659207689699471  1.0000
  C   C2        1.0  0.6842788633891246  0.29467893213718815  0.3340831527731821  1.0000
  C   C3        1.0  0.8157336105319644  0.794676835651224  0.8340780697625262  1.0000
  C   C4        1.0  0.31571092093387426  0.7053168384214533  0.6659183555776451  1.0000
  C   C5        1.0  0.3115557674902973  0.9833354016329069  0.1518290750851108  1.0000
  C   C6        1.0  0.8115443703491536  0.5166655199151934  0.3481751519310379  1.0000
  C   C7        1.0  0.6884618084858546  0.016660366302794202  0.8481720534133997  1.0000
  C   C8        1.0  0.18844794046682267  0.48333199128529725  0.6518252380277403  1.0000
  C   C9        1.0  0.16216627939993336  0.9926120622193083  0.1989854485123672  1.0000
  C   C10       1.0  0.6621457259923602  0.5073844954329871  0.3010129146831702  1.0000
  C   C11       1.0  0.8378437170143443  0.007388071725500799  0.8010149732462678  1.0000
  C   C12       1.0  0.33782131961289247  0.49261386383442857  0.698983687235625  1.0000
  C   C13       1.0  0.6216916538779244  0.8978189177816776  0.0651926840858792  1.0000
  C   C14       1.0  0.12167840623918381  0.6021881696766445  0.4348095743286038  1.0000
  C   C15       1.0  0.37833602820572315  0.10217861959932861  0.9348115045144283  1.0000
  C   C16       1.0  0.8783265370955319  0.39781106907108943  0.5651877979278623  1.0000
  C   C17       1.0  0.2136230398551646  0.9039947020675005  0.2953056252454545  1.0000
  C   C18       1.0  0.7136141136619899  0.5960044858369857  0.20469622739634016  1.0000
  C   C19       1.0  0.7863642179597293  0.09600631922290861  0.7046967064163994  1.0000
  C   C20       1.0  0.2863504054975792  0.40399565073352056  0.7953045742079253  1.0000
  S   S1        1.0  0.15228789258841863  0.349988262309438  0.1610057680291064  1.0000
  S   S2        1.0  0.6522454789288403  0.1500121903353673  0.33899399341339637  1.0000
  S   S3        1.0  0.8477549484607395  0.6500083510666954  0.838991192585695  1.0000
  S   S4        1.0  0.3477291462575778  0.8499870588915215  0.661004898282883  1.0000
  S   S5        1.0  0.3576780080401036  0.11323016338710094  0.1199563630719069  1.0000
  S   S6        1.0  0.8576413575254163  0.38676935875789553  0.380044682566691  1.0000
  S   S7        1.0  0.6423698861069552  0.886762979178187  0.8800443537820684  1.0000
  S   S8        1.0  0.14234842670504835  0.6132281236383366  0.6199515289001525  1.0000
  S   S9        1.0  0.044912315090641586  0.13408333635643296  0.2184382818224222  1.0000
  S   S10       1.0  0.5448850087334164  0.3659215131890507  0.2815603118875245  1.0000
  S   S11       1.0  0.9551178933837292  0.8659202736324904  0.7815591434322187  1.0000
  S   S12       1.0  0.45508961643038504  0.6340803509291036  0.7184374720134769  1.0000
  S   S13       1.0  0.43627939534585647  0.8508126518305589  0.1236371534420542  1.0000
  S   S14       1.0  0.9362357282638668  0.6491864613473554  0.3763641077114244  1.0000
  S   S15       1.0  0.5637508132319126  0.14918050383050746  0.8763654627193205  1.0000
  S   S16       1.0  0.0637439499408359  0.3508110341434759  0.6236340030656821  1.0000
  S   S17       1.0  0.044666419887001006  0.8708677255242424  0.2327727451868853  1.0000
  S   S18       1.0  0.5446620505977933  0.6291358811216486  0.2672282730474294  1.0000
  S   S19       1.0  0.9553258909342902  0.12913591065664323  0.7672284786816022  1.0000
  S   S20       1.0  0.45530246855103934  0.37086250171360297  0.7327717476357593  1.0000
  Cl  Cl1       1.0  0.6606131167883404  0.561063520532258  0.0663225617367118  1.0000
  Cl  Cl2       1.0  0.16061654088667857  0.9389409032236958  0.4336755158109469  1.0000
  Cl  Cl3       1.0  0.33937666745171674  0.438941837961025  0.9336748846981067  1.0000
  Cl  Cl4       1.0  0.8393732433802866  0.06106359149497821  0.566323439477415  1.0000
  Cl  Cl5       1.0  0.8633985472195107  0.2536009746604507  0.0281577860521196  1.0000
  Cl  Cl6       1.0  0.36339877372513735  0.24640115534737111  0.47184139640223316  1.0000
  Cl  Cl7       1.0  0.13659629010982852  0.7464026589014312  0.9718430579545085  1.0000
  Cl  Cl8       1.0  0.6365960635633672  0.753598962888177  0.528156746173778  1.0000
