data_image0
_chemical_formula_structural       Cu2H6C8Br4N4
_chemical_formula_sum              "Cu2 H6 C8 Br4 N4"
_cell_length_a       6.962413634759356
_cell_length_b       7.012604383294183
_cell_length_c       7.627683354134312
_cell_angle_alpha    62.60475864425706
_cell_angle_beta     90.3598810630663
_cell_angle_gamma    90.85031145065388

_space_group_name_H-M_alt    "P 1"
_space_group_IT_number       1

loop_
  _space_group_symop_operation_xyz
  'x, y, z'

loop_
  _atom_site_type_symbol
  _atom_site_label
  _atom_site_symmetry_multiplicity
  _atom_site_fract_x
  _atom_site_fract_y
  _atom_site_fract_z
  _atom_site_occupancy
  Cu  Cu1       1.0  0.4998685218548715  0.29575557382649015  0.40832747384285994  1.0000
  Cu  Cu2       1.0  0.5001283968695986  0.7042462436693172  0.5916753455588973  1.0000
  H   H1        1.0  0.05440581362529429  0.18215950449413765  0.9999602615090878  1.0000
  H   H2        1.0  0.9455911403919754  0.8178443075557169  3.258814727783203e-05  1.0000
  H   H3        1.0  0.8933053747567214  0.11765231597604511  0.320855661190997  1.0000
  H   H4        1.0  0.10677604381998408  0.5619028280788286  0.3210231126542737  1.0000
  H   H5        1.0  0.1066858535182078  0.8823488558773179  0.6791237573383314  1.0000
  H   H6        1.0  0.8932223880624476  0.4381048262191885  0.6789611477021751  1.0000
  C   C1        1.0  0.5903947175476604  0.4487205218076726  0.9999979318427633  1.0000
  C   C2        1.0  0.40959073143884683  0.5512958087351053  0.9999935018403008  1.0000
  C   C3        1.0  0.919685326357623  0.25911406830888256  0.9999597723997979  1.0000
  C   C4        1.0  0.08033013463003869  0.7408693165934251  5.6761378360323704e-05  1.0000
  C   C5        1.0  0.8320740436109373  0.22168884855500445  0.17673412040220174  1.0000
  C   C6        1.0  0.16798738081784848  0.6017641961758429  0.176830547168649  1.0000
  C   C7        1.0  0.16792711948843927  0.7783056142191854  0.8232792431785327  1.0000
  C   C8        1.0  0.8320052626302684  0.39824769571767876  0.8231798064982386  1.0000
  Br  Br1       1.0  0.711405856159331  0.04753125983594941  0.6545928954310369  1.0000
  Br  Br2       1.0  0.28826889454128934  0.29697395249804975  0.6549476493685519  1.0000
  Br  Br3       1.0  0.2885897174520551  0.9524824055912973  0.3453981527845471  1.0000
  Br  Br4       1.0  0.7117275880749431  0.7029593023660894  0.3450864309946199  1.0000
  N   N1        1.0  0.6664948459631788  0.31862897420347025  0.17557206673722456  1.0000
  N   N2        1.0  0.33361621821445203  0.5060259845457936  0.17558122720394215  1.0000
  N   N3        1.0  0.3335235693942025  0.6813702060693672  0.8244448129875084  1.0000
  N   N4        1.0  0.6663938266105092  0.4939975635336113  0.8243874021270232  1.0000
