data_image0
_chemical_formula_structural       Zr6H16C40N12O32
_chemical_formula_sum              "Zr6 H16 C40 N12 O32"
_cell_length_a       15.47812649444121
_cell_length_b       18.971379360174375
_cell_length_c       18.981828968141834
_cell_angle_alpha    91.22361257797778
_cell_angle_beta     89.85497453095748
_cell_angle_gamma    90.10512254107068

_space_group_name_H-M_alt    "P 1"
_space_group_IT_number       1

loop_
  _space_group_symop_operation_xyz
  'x, y, z'

loop_
  _atom_site_type_symbol
  _atom_site_label
  _atom_site_symmetry_multiplicity
  _atom_site_fract_x
  _atom_site_fract_y
  _atom_site_fract_z
  _atom_site_occupancy
  Zr  Zr1       1.0  0.0064843912035499  0.09974692235911681  0.9898428873342269  1.0000
  Zr  Zr2       1.0  0.0032160142798929006  0.9605461528145011  0.11368181886024331  1.0000
  Zr  Zr3       1.0  0.0034084522098539  0.9730700637891515  0.8484444233609666  1.0000
  Zr  Zr4       1.0  0.006354049297712501  0.834522124132512  0.9719873338727468  1.0000
  Zr  Zr5       1.0  0.16612307589848999  0.9674849055154054  0.9807358909924132  1.0000
  Zr  Zr6       1.0  0.8432227929484455  0.9671342856875284  0.9808148992963127  1.0000
  H   H1        1.0  0.8864762352197816  0.0779438276103761  0.09153299217990002  1.0000
  H   H2        1.0  0.1266399799805384  0.8567904151906874  0.0850806607409993  1.0000
  H   H3        1.0  0.8871965762504885  0.8560660217075052  0.8695753223442466  1.0000
  H   H4        1.0  0.12308047099117657  0.07648265164021947  0.8733116445792034  1.0000
  H   H5        1.0  0.0578115885934452  0.8694647308819083  0.2141193522245572  1.0000
  H   H6        1.0  0.9480239271799248  0.7322847633443814  0.056583964822728205  1.0000
  H   H7        1.0  0.0385374282352089  0.7321373312853297  0.8781713250130494  1.0000
  H   H8        1.0  0.961747553868456  0.8992830176902726  0.7225200885561095  1.0000
  H   H9        1.0  0.97113478232221  0.06667975718116993  0.7499987777148789  1.0000
  H   H10       1.0  0.051656369767826484  0.22406503727456345  0.9206462018961331  1.0000
  H   H11       1.0  0.0402228774622344  0.20067742052131624  0.08457749899366723  1.0000
  H   H12       1.0  0.9551270372533196  0.03244793586937789  0.23503897356749096  1.0000
  H   H13       1.0  0.0616988534578056  0.8927152766869281  0.7395734674164843  1.0000
  H   H14       1.0  0.9516048117215945  0.20788303252311377  0.9116769374702046  1.0000
  H   H15       1.0  0.055904606066903305  0.043132110454138194  0.22497502570263353  1.0000
  H   H16       1.0  0.0448287367419695  0.7092230119322309  0.042729511092161915  1.0000
  C   C1        1.0  0.5061873598244871  0.3600789897705425  0.9799377256449235  1.0000
  C   C2        1.0  0.578352524878163  0.25650448988292845  0.9746098514507936  1.0000
  C   C3        1.0  0.43216174246228434  0.2573178245797649  0.9828090867203302  1.0000
  C   C4        1.0  0.5045947064356254  0.5744373626928905  0.9815661610512549  1.0000
  C   C5        1.0  0.4303778717886075  0.6767817421907053  0.9773974029373277  1.0000
  C   C6        1.0  0.5763906974617041  0.6784052622863683  0.9868494976745552  1.0000
  C   C7        1.0  0.5032696265960794  0.9701045232361236  0.37375921345922347  1.0000
  C   C8        1.0  0.5771457539434836  0.9700409349678977  0.2707834889106095  1.0000
  C   C9        1.0  0.4308626291113455  0.9760673409182419  0.2707612124495072  1.0000
  C   C10       1.0  0.5051382757101238  0.9650326739090145  0.5878092351010339  1.0000
  C   C11       1.0  0.5798724732066632  0.9658122145084391  0.6900057466956471  1.0000
  C   C12       1.0  0.43359167080156163  0.9588501866703042  0.6915702858328958  1.0000
  C   C13       1.0  0.21686761943685445  0.1331502241029767  0.9904013832801155  1.0000
  C   C14       1.0  0.7917178134227428  0.9641722185747735  0.14545999985497823  1.0000
  C   C15       1.0  0.21775747913585516  0.9767714653017735  0.14462073301793774  1.0000
  C   C16       1.0  0.7920472113122018  0.1306386018573775  0.9718666201814871  1.0000
  C   C17       1.0  0.7941812276483021  0.9722590284391753  0.8148214519203094  1.0000
  C   C18       1.0  0.21606449785589626  0.8014319635854861  0.9706958184303147  1.0000
  C   C19       1.0  0.7911449662560485  0.8037364403610994  0.9895201276965723  1.0000
  C   C20       1.0  0.21921008361155708  0.956725247634573  0.8173701390989268  1.0000
  C   C21       1.0  0.7230647576887819  0.9710799826735864  0.7652520137014704  1.0000
  C   C22       1.0  0.6592154947522817  0.9687521917538646  0.7281782246033544  1.0000
  C   C23       1.0  0.35521242456690777  0.9551654124834384  0.7311153464591558  1.0000
  C   C24       1.0  0.29138875566376743  0.9537780214974774  0.7684627804321027  1.0000
  C   C25       1.0  0.6561133438115904  0.9675142317330554  0.23196475616666135  1.0000
  C   C26       1.0  0.7199061247184702  0.9653636657898446  0.19461069480991716  1.0000
  C   C27       1.0  0.3523662489512703  0.979316579945369  0.23163728635513792  1.0000
  C   C28       1.0  0.28929498791570296  0.9802892898647355  0.1937132241978929  1.0000
  C   C29       1.0  0.5031521434148871  0.968253241521111  0.4488361873564274  1.0000
  C   C30       1.0  0.5040081998651473  0.9668385223948733  0.5127536239382239  1.0000
  C   C31       1.0  0.7189299953433946  0.7549980148728465  0.9925321602014495  1.0000
  C   C32       1.0  0.6548485201014956  0.7179088197656823  0.9909898368722451  1.0000
  C   C33       1.0  0.3511996667578073  0.7149679077317259  0.9730101610930647  1.0000
  C   C34       1.0  0.28736785423010497  0.7519846799410814  0.9704247173584976  1.0000
  C   C35       1.0  0.6568504028856951  0.21722657135890702  0.9707301743573  1.0000
  C   C36       1.0  0.7204395678301693  0.1797576197444286  0.9692050200822422  1.0000
  C   C37       1.0  0.28855156317438707  0.18240038665168606  0.9895705004001488  1.0000
  C   C38       1.0  0.35292089076836675  0.21896669556314657  0.9867640110768646  1.0000
  C   C39       1.0  0.5064569418843519  0.43526652245162734  0.9806810834967266  1.0000
  C   C40       1.0  0.5055823206587036  0.4992727603662956  0.981149638996385  1.0000
  N   N1        1.0  0.5834067047211562  0.32751519857082906  0.9752154948589223  1.0000
  N   N2        1.0  0.5048294249332627  0.21843918503193993  0.9780621019631894  1.0000
  N   N3        1.0  0.42833485770388086  0.3283122844740163  0.9840032457979859  1.0000
  N   N4        1.0  0.4267212204906627  0.6057499983088945  0.9764756014364199  1.0000
  N   N5        1.0  0.5028361678567279  0.7160449517474274  0.9824134622194479  1.0000
  N   N6        1.0  0.5815811919263822  0.607459294389848  0.9869730029300784  1.0000
  N   N7        1.0  0.5810503841522985  0.9677550792076984  0.3416482026851  1.0000
  N   N8        1.0  0.5042366922918619  0.9744457040327249  0.23239807198884685  1.0000
  N   N9        1.0  0.4258299623689936  0.9740898720248408  0.3416270112427143  1.0000
  N   N10       1.0  0.5832504318090417  0.9680652850696915  0.619120791313307  1.0000
  N   N11       1.0  0.5073652447832159  0.9611082445379466  0.7291693842722183  1.0000
  N   N12       1.0  0.4280973075035561  0.9604778914600656  0.620719262052809  1.0000
  O   O1        1.0  0.140474342695228  0.15805749683038073  0.9920692013670447  1.0000
  O   O2        1.0  0.2386290731489993  0.06859938122777008  0.9884925079420273  1.0000
  O   O3        1.0  0.8677028048500761  0.965922628601362  0.17043686029297336  1.0000
  O   O4        1.0  0.7700318289577481  0.9621485814243298  0.08079335189837171  1.0000
  O   O5        1.0  0.14159477010672114  0.9835914227721289  0.16889741812020284  1.0000
  O   O6        1.0  0.2394445478585325  0.9646795511438738  0.0807086475229681  1.0000
  O   O7        1.0  0.8681961339993974  0.1540802328103794  0.9640828868422276  1.0000
  O   O8        1.0  0.7700030146771157  0.06723403952175738  0.9838616517228617  1.0000
  O   O9        1.0  0.9925060940688796  0.17213273303891435  0.0671490306812927  1.0000
  O   O10       1.0  0.010004100142459999  0.1884624531704588  0.9049653476192033  1.0000
  O   O11       1.0  0.9994612744853556  0.04913405928767389  0.20258515534038682  1.0000
  O   O12       1.0  0.010061597225245598  0.8887812177581651  0.1880458807107246  1.0000
  O   O13       1.0  0.07478187876923671  0.0213496754177882  0.0394795416805636  1.0000
  O   O14       1.0  0.9159247395450054  0.04415137206861891  0.060685089957822014  1.0000
  O   O15       1.0  0.8708436028412551  0.9731107036169957  0.7900672548669407  1.0000
  O   O16       1.0  0.7717813789743959  0.9716151982102442  0.8791845902630443  1.0000
  O   O17       1.0  0.13951011270356162  0.7765409274227012  0.9694422823979  1.0000
  O   O18       1.0  0.23819796425856052  0.865960480410344  0.9734832476354358  1.0000
  O   O19       1.0  0.8669400578206564  0.7803325644121769  0.9983821504230975  1.0000
  O   O20       1.0  0.769994168984141  0.8669217310842897  0.975932403279522  1.0000
  O   O21       1.0  0.14342672740348666  0.9478224263937421  0.7935898962587586  1.0000
  O   O22       1.0  0.2403198888399629  0.9701405096052153  0.8811888885834874  1.0000
  O   O23       1.0  0.0031023662674130002  0.8856993370354115  0.758413149278745  1.0000
  O   O24       1.0  0.018238568892343203  0.049515534382592784  0.778472670860971  1.0000
  O   O25       1.0  0.9914050508830669  0.7612726058476085  0.895646178198753  1.0000
  O   O26       1.0  0.008578854579539602  0.7480378514775411  0.059615208334250304  1.0000
  O   O27       1.0  0.9169202030551631  0.8903321051749558  0.8997007823786235  1.0000
  O   O28       1.0  0.07535586139075431  0.9126602794737336  0.9229986607999765  1.0000
  O   O29       1.0  0.9348564186763896  0.023474395203450595  0.9273077760942741  1.0000
  O   O30       1.0  0.09300943055714582  0.8872474882495777  0.0553056306131765  1.0000
  O   O31       1.0  0.0935322068130304  0.04671357478776629  0.9068265279655918  1.0000
  O   O32       1.0  0.9346216484609043  0.9105429584492553  0.0343742608135784  1.0000
