data_image0
_chemical_formula_structural       Ag4H24C36S8N16O20F12
_chemical_formula_sum              "Ag4 H24 C36 S8 N16 O20 F12"
_cell_length_a       7.995788082000037
_cell_length_b       12.161491062000003
_cell_length_c       14.481812620000069
_cell_angle_alpha    89.99999732063218
_cell_angle_beta     90.00001088526317
_cell_angle_gamma    89.99999828286163

_space_group_name_H-M_alt    "P 1"
_space_group_IT_number       1

loop_
  _space_group_symop_operation_xyz
  'x, y, z'

loop_
  _atom_site_type_symbol
  _atom_site_label
  _atom_site_symmetry_multiplicity
  _atom_site_fract_x
  _atom_site_fract_y
  _atom_site_fract_z
  _atom_site_occupancy
  Ag  Ag1       1.0  0.9446474510257519  0.5691711321444047  0.6816460640015194  1.0000
  Ag  Ag2       1.0  0.0553529139538682  0.43082874456331405  0.1816457649325471  1.0000
  Ag  Ag3       1.0  0.5553512521298103  0.06917159071785758  0.681646052452237  1.0000
  Ag  Ag4       1.0  0.44464786219123914  0.9308282859898966  0.18164508596046866  1.0000
  H   H1        1.0  0.9610735531393573  0.3004146225539301  0.37705298343171023  1.0000
  H   H2        1.0  0.038925628290535016  0.6995852422637229  0.8770524921437259  1.0000
  H   H3        1.0  0.5389262853672677  0.8004141718537383  0.3770522618194221  1.0000
  H   H4        1.0  0.46107289606261764  0.19958569296391454  0.8770532137560139  1.0000
  H   H5        1.0  0.9202408137285687  0.6815932086026422  0.47856927211451256  1.0000
  H   H6        1.0  0.07975840256523982  0.3184074723055375  0.9785694892209593  1.0000
  H   H7        1.0  0.579759065140401  0.18159202216727263  0.47856926313039594  1.0000
  H   H8        1.0  0.4202414018119073  0.8184070142057038  0.978569498205168  1.0000
  H   H9        1.0  0.9647967444809639  0.6344813914145533  0.312055589248061  1.0000
  H   H10       1.0  0.035203665285394016  0.36551847735801596  0.8120557999932319  1.0000
  H   H11       1.0  0.5352030793821285  0.13448102811140927  0.3120555755812192  1.0000
  H   H12       1.0  0.46479733038422927  0.8655188406611601  0.8120558136600807  1.0000
  H   H13       1.0  0.21897788578327498  0.14860017987989244  0.5803776328866306  1.0000
  H   H14       1.0  0.7810211937593011  0.8514005252573681  0.0803780856194933  1.0000
  H   H15       1.0  0.2810230403587255  0.6485989022140828  0.5803776272393151  1.0000
  H   H16       1.0  0.7189785405007854  0.3514009806555621  0.08037809126695092  1.0000
  H   H17       1.0  0.5803669227565963  0.3341127864254717  0.7181173122690296  1.0000
  H   H18       1.0  0.41963220408992197  0.6658870880630587  0.21811704310957233  1.0000
  H   H19       1.0  0.9196330313226754  0.8341123283374685  0.7181166306679999  1.0000
  H   H20       1.0  0.0803685968407635  0.16588754615103338  0.21811772471073002  1.0000
  H   H21       1.0  0.38925880186010187  0.4991517617978403  0.714544542107518  1.0000
  H   H22       1.0  0.6107403237594227  0.5008481129080876  0.21454429891350205  1.0000
  H   H23       1.0  0.1107409034789129  0.9991513097040254  0.714544518564054  1.0000
  H   H24       1.0  0.8892607234575252  0.0008485650018740999  0.21454432245709407  1.0000
  C   C1        1.0  0.9524164970649522  0.38580135577931435  0.3989114330393947  1.0000
  C   C2        1.0  0.04758269187189511  0.6141993299758681  0.8989116362249308  1.0000
  C   C3        1.0  0.5475833449974347  0.8858009049111076  0.3989114028582322  1.0000
  C   C4        1.0  0.45241709459789103  0.11419895857647332  0.8989116664061713  1.0000
  C   C5        1.0  0.9337204189984549  0.4141720519550986  0.491456476510109  1.0000
  C   C6        1.0  0.06627880172121792  0.5858286281689259  0.9914566826714264  1.0000
  C   C7        1.0  0.5662782028754593  0.9141716007240958  0.4914564482937963  1.0000
  C   C8        1.0  0.43372101784423484  0.08582825713233427  0.9914567108877537  1.0000
  C   C9        1.0  0.930083493964034  0.5963273487119024  0.4563897301649433  1.0000
  C   C10       1.0  0.069915714712657  0.403672511278259  0.9563899431988646  1.0000
  C   C11       1.0  0.5699163812333836  0.09632780700272289  0.4563897201463548  1.0000
  C   C12       1.0  0.43008407810177124  0.9036720529874317  0.95638995321751  1.0000
  C   C13       1.0  0.953174385727401  0.5695954318250215  0.36332265279718007  1.0000
  C   C14       1.0  0.0468247909871664  0.43040525609566055  0.8633228624518098  1.0000
  C   C15       1.0  0.5468254587449337  0.0695950682963371  0.36332264035181794  1.0000
  C   C16       1.0  0.4531737179696549  0.9304047973567507  0.8633228748971861  1.0000
  C   C17       1.0  0.15074946653575694  0.31615775849555655  0.6164483871875746  1.0000
  C   C18       1.0  0.8492508760529704  0.6838429444468869  0.1164481625400597  1.0000
  C   C19       1.0  0.34925146424031084  0.8161564795057573  0.616447698189596  1.0000
  C   C20       1.0  0.650750129006788  0.18384257890150474  0.11644816101684093  1.0000
  C   C21       1.0  0.2567065032350868  0.22572970116127067  0.612453728676641  1.0000
  C   C22       1.0  0.743293837981888  0.7742701797566198  0.11245418019260002  1.0000
  C   C23       1.0  0.24329317969523603  0.725729246495213  0.6124537190640709  1.0000
  C   C24       1.0  0.7567071615217317  0.2742706344226775  0.11245418980516322  1.0000
  C   C25       1.0  0.45579132995297306  0.32885027594337396  0.6880948209654321  1.0000
  C   C26       1.0  0.5442077865829235  0.6711487781043672  0.18809456471103664  1.0000
  C   C27       1.0  0.044208374182972  0.8288506474082523  0.6880947904295667  1.0000
  C   C28       1.0  0.9557932436699234  0.17115005117463514  0.1880952857683056  1.0000
  C   C29       1.0  0.3490201137251958  0.42007182166535967  0.687119797661474  1.0000
  C   C30       1.0  0.6509802531342856  0.5799280547092919  0.18711955587880885  1.0000
  C   C31       1.0  0.1509808365131704  0.9200705465230852  0.6871197783470678  1.0000
  C   C32       1.0  0.8490207810049031  0.0799285075839364  0.18712026571459014  1.0000
  C   C33       1.0  0.5449433023741649  0.5376856803399618  0.9191266746261066  1.0000
  C   C34       1.0  0.4550558935051612  0.4623141819175912  0.4191264164430564  1.0000
  C   C35       1.0  0.9550554837965495  0.0376853088893512  0.9191267050846861  1.0000
  C   C36       1.0  0.0449437120828833  0.962315375635775  0.41912707650575953  1.0000
  S   S1        1.0  0.9372097734266164  0.3084572160090673  0.5781231157536341  1.0000
  S   S2        1.0  0.06279055600003151  0.6915426669977907  0.0781228081768646  1.0000
  S   S3        1.0  0.5627901337616167  0.8084575871133594  0.5781230871706456  1.0000
  S   S4        1.0  0.43721019566514496  0.19154229589347688  0.07812352728115  1.0000
  S   S5        1.0  0.5913589713249936  0.6388040401636133  0.825406363061525  1.0000
  S   S6        1.0  0.4086401923680256  0.3611950055289981  0.325406794124568  1.0000
  S   S7        1.0  0.9086397779801845  0.13880449188130226  0.8254070791632204  1.0000
  S   S8        1.0  0.09136063637163261  0.8611953760788325  0.32540814958680647  1.0000
  N   N1        1.0  0.9625305591328441  0.4651230456696566  0.33453965602297603  1.0000
  N   N2        1.0  0.0374698583552373  0.5348768217348052  0.8345398609719299  1.0000
  N   N3        1.0  0.5374705078101698  0.9651234172652963  0.3345396247789055  1.0000
  N   N4        1.0  0.4625299096778834  0.0348772724067601  0.834539892215986  1.0000
  N   N5        1.0  0.9212426022508637  0.5182267261741771  0.5211799631311039  1.0000
  N   N6        1.0  0.0787577076197294  0.4817739825651445  0.0211796647067075  1.0000
  N   N7        1.0  0.5787572988116029  0.018225539758248005  0.5211799540416991  1.0000
  N   N8        1.0  0.4212430110591471  0.981773524445863  0.0211803643174306  1.0000
  N   N9        1.0  0.4104599591107032  0.23276337553400586  0.6498592751649002  1.0000
  N   N10       1.0  0.5895391442940224  0.7672365031078527  0.14985971077233273  1.0000
  N   N11       1.0  0.08954098699881292  0.7327629238516027  0.649859249393316  1.0000
  N   N12       1.0  0.9104606177228335  0.26723695479023485  0.14985973654404464  1.0000
  N   N13       1.0  0.194953993649726  0.412967432209321  0.6521207178700835  1.0000
  N   N14       1.0  0.8050463611899944  0.5870324462949412  0.1521204920262207  1.0000
  N   N15       1.0  0.3050469448976116  0.9129669763449115  0.6521207147476036  1.0000
  N   N16       1.0  0.6949546606005655  0.0870329021593435  0.1521204951487647  1.0000
  O   O1        1.0  0.833802843090375  0.3434109878501701  0.6548075710376011  1.0000
  O   O2        1.0  0.1661975126720776  0.6565888904906031  0.15480727557407192  1.0000
  O   O3        1.0  0.666197088816098  0.843410534680224  0.6548068628011308  1.0000
  O   O4        1.0  0.33380451760471175  0.156588521392969  0.1548072932893234  1.0000
  O   O5        1.0  0.9109546951236142  0.20382531077395785  0.5332986169137186  1.0000
  O   O6        1.0  0.08904561890904009  0.7961745749603537  0.03329899888945681  1.0000
  O   O7        1.0  0.5890464521707631  0.7038248591011466  0.5332985910901513  1.0000
  O   O8        1.0  0.4109538618618913  0.296175026633165  0.033299024713024  1.0000
  O   O9        1.0  0.6647676094908164  0.5690050346203748  0.7534830511489403  1.0000
  O   O10       1.0  0.3352340308182065  0.43099401544863275  0.2534820909674664  1.0000
  O   O11       1.0  0.8352323690019291  0.0690054877626025  0.7534830690143581  1.0000
  O   O12       1.0  0.164768020648836  0.9309952068415585  0.2534834541445505  1.0000
  O   O13       1.0  0.4249313440101973  0.6804412066500873  0.8026122456360626  1.0000
  O   O14       1.0  0.5750678118546232  0.3195578404294963  0.3026126956737727  1.0000
  O   O15       1.0  0.0750671556637457  0.18044166484092014  0.802612926680176  1.0000
  O   O16       1.0  0.9249320002012739  0.8195590267738098  0.3026133956722177  1.0000
  O   O17       1.0  0.7047211610587923  0.7166851129381087  0.8691287949690434  1.0000
  O   O18       1.0  0.2952755163327865  0.2833155746293271  0.369128526371533  1.0000
  O   O19       1.0  0.7952750983410867  0.21668556685568774  0.8691288086352459  1.0000
  O   O20       1.0  0.20472408036752654  0.7833151207116983  0.3691292032267555  1.0000
  F   F1        1.0  0.4451657670440739  0.4555419718477438  0.8877790756307463  1.0000
  F   F2        1.0  0.5548346687279988  0.5444570700496314  0.38777882500728117  1.0000
  F   F3        1.0  0.05483274914843152  0.9555423431064582  0.8877783556902443  1.0000
  F   F4        1.0  0.9451664359651419  0.044458343326120094  0.3877795449476977  1.0000
  F   F5        1.0  0.4646823069521702  0.5875438745214295  0.9909250021795231  1.0000
  F   F6        1.0  0.5353144122681215  0.4124559833673516  0.4909254447293492  1.0000
  F   F7        1.0  0.0353162616928273  0.08754433348367029  0.9909249885246256  1.0000
  F   F8        1.0  0.9646829588444562  0.912457168940257  0.49092614890564334  1.0000
  F   F9        1.0  0.6872107116190947  0.4913393872328697  0.9531569533732737  1.0000
  F   F10       1.0  0.31278849594716  0.5086604729540409  0.453155988065646  1.0000
  F   F11       1.0  0.8127880652461031  0.9913397534858106  0.9531569510644646  1.0000
  F   F12       1.0  0.18721239297882872  0.0086609289686379  0.45315737141709184  1.0000
