data_image0
_chemical_formula_structural       Co2H30C38N14O8
_chemical_formula_sum              "Co2 H30 C38 N14 O8"
_cell_length_a       9.01340437745287
_cell_length_b       10.027791740677669
_cell_length_c       11.531533374696217
_cell_angle_alpha    82.7087454972132
_cell_angle_beta     76.05407036417654
_cell_angle_gamma    75.8050108823692

_space_group_name_H-M_alt    "P 1"
_space_group_IT_number       1

loop_
  _space_group_symop_operation_xyz
  'x, y, z'

loop_
  _atom_site_type_symbol
  _atom_site_label
  _atom_site_symmetry_multiplicity
  _atom_site_fract_x
  _atom_site_fract_y
  _atom_site_fract_z
  _atom_site_occupancy
  Co  Co1       1.0  0.6449484460883211  0.6470197701996838  0.9789630907010649  1.0000
  Co  Co2       1.0  0.3550513506603039  0.35298059162358447  0.021037008402785797  1.0000
  H   H1        1.0  0.020458445256849703  0.3007905983780859  0.835960652936322  1.0000
  H   H2        1.0  0.9795418366386031  0.6992077054848879  0.16404305250177495  1.0000
  H   H3        1.0  0.19666622544249893  0.06882901991475879  0.7975235952003603  1.0000
  H   H4        1.0  0.803337230390582  0.9311703056177411  0.2024794153776456  1.0000
  H   H5        1.0  0.08396281151405566  0.8595622387461287  0.8404207026457658  1.0000
  H   H6        1.0  0.9160374933467352  0.1404360616182814  0.15958039734577775  1.0000
  H   H7        1.0  0.6219309048910232  0.11591314089486104  0.9431810630622693  1.0000
  H   H8        1.0  0.3780686339739674  0.8840882522409289  0.05681896983882951  1.0000
  H   H9        1.0  0.9315820104759209  0.41234510772219585  0.10115236917484792  1.0000
  H   H10       1.0  0.06841689256081195  0.5876542271690683  0.8988488741663903  1.0000
  H   H11       1.0  0.5846966352519869  0.7515446932742124  0.24173165267112753  1.0000
  H   H12       1.0  0.41530252566838033  0.24845361030453722  0.7582696568728622  1.0000
  H   H13       1.0  0.016902463269794075  0.47453783371445735  0.3878392505492343  1.0000
  H   H14       1.0  0.9830922113294489  0.5254646082559236  0.6121650282876274  1.0000
  H   H15       1.0  0.0692870587895271  0.3532284807792436  0.275979103638008  1.0000
  H   H16       1.0  0.9307135933954525  0.6467729138069558  0.7240241936393873  1.0000
  H   H17       1.0  0.07491726852056496  0.23707228993047386  0.5209340844085091  1.0000
  H   H18       1.0  0.9250802250369999  0.762928080653829  0.4790681707645988  1.0000
  H   H19       1.0  0.9352230289879344  0.06801483385487468  0.6540031386346927  1.0000
  H   H20       1.0  0.06477754906670441  0.9319824328646505  0.3459962905952381  1.0000
  H   H21       1.0  0.6671533355102709  0.0592986080083975  0.6312162979020712  1.0000
  H   H22       1.0  0.3328475004280022  0.9406976273985989  0.36878319753061123  1.0000
  H   H23       1.0  0.4244857293341936  0.3249995912665328  0.5070017609066684  1.0000
  H   H24       1.0  0.5755143252980729  0.6749997392442142  0.49299840439994114  1.0000
  H   H25       1.0  0.456040087442716  0.14305568916643102  0.5315721583409498  1.0000
  H   H26       1.0  0.5439571788516557  0.856945708065652  0.46842655670067057  1.0000
  H   H27       1.0  0.5322503035508674  0.048596803132461695  0.1309190108877445  1.0000
  H   H28       1.0  0.46775295563946157  0.9514035443830695  0.8690769856300308  1.0000
  H   H29       1.0  0.4109458962413654  0.42843524613938655  0.28788800414150734  1.0000
  H   H30       1.0  0.5890525063383194  0.5715661490445498  0.712111369829856  1.0000
  C   C1        1.0  0.7037228885461388  0.36278343556378456  0.9081630544571981  1.0000
  C   C2        1.0  0.2962772861471165  0.6372200158165244  0.09183576800376161  1.0000
  C   C3        1.0  0.8104577684396049  0.22371810707488046  0.8899470083004815  1.0000
  C   C4        1.0  0.18953808072049577  0.7762843270164198  0.11005358705519797  1.0000
  C   C5        1.0  0.9729401829922039  0.20906124748396587  0.8509413031370202  1.0000
  C   C6        1.0  0.02705768850999137  0.7909422126573773  0.14905967539319684  1.0000
  C   C7        1.0  0.07091228038844118  0.07910022563211071  0.8307816501338721  1.0000
  C   C8        1.0  0.9290883794516417  0.9209011677879037  0.16922077866134091  1.0000
  C   C9        1.0  0.008256021210044574  0.961804587683709  0.8542839890505578  1.0000
  C   C10       1.0  0.9917463289581719  0.03819473523218869  0.14571488866896934  1.0000
  C   C11       1.0  0.846487776561432  0.9750907805138455  0.8991074379036308  1.0000
  C   C12       1.0  0.1535126866358993  0.024911634889200205  0.10088797683133781  1.0000
  C   C13       1.0  0.747985886725118  0.1060663355956422  0.9134320986375217  1.0000
  C   C14       1.0  0.2520134019113555  0.8939360876864838  0.08656699957863621  1.0000
  C   C15       1.0  0.7769253546166863  0.8519647906849315  0.933806503264961  1.0000
  C   C16       1.0  0.22307282069980525  0.14803763114677795  0.0661893305749004  1.0000
  C   C17       1.0  0.8548089950045323  0.4908012545360804  0.15832550739432352  1.0000
  C   C18       1.0  0.14519194568451607  0.5091991040728558  0.8416743821570806  1.0000
  C   C19       1.0  0.6812809596054166  0.6617056029658458  0.23364318214825633  1.0000
  C   C20       1.0  0.318717951086427  0.3382937307592329  0.7663571927107925  1.0000
  C   C21       1.0  0.9708946748088039  0.4115180152169771  0.3396927230235108  1.0000
  C   C22       1.0  0.029105614741759177  0.5884802874798113  0.6603101139324039  1.0000
  C   C23       1.0  0.8862560421745441  0.31306255518382653  0.42613148723511785  1.0000
  C   C24       1.0  0.11374170161154495  0.6869367852541401  0.5738717026229311  1.0000
  C   C25       1.0  0.9593537015686308  0.229287755316399  0.5124625244638138  1.0000
  C   C26       1.0  0.04064520146810222  0.7707115795748649  0.4875387188774241  1.0000
  C   C27       1.0  0.8811726767185488  0.1360195927913068  0.5869522205281329  1.0000
  C   C28       1.0  0.11882790133608964  0.8639776739282113  0.4130472087017979  1.0000
  C   C29       1.0  0.7322772893966487  0.13100956064039349  0.5747758214247228  1.0000
  C   C30       1.0  0.26772214471756683  0.8689877092934637  0.42522381735765447  1.0000
  C   C31       1.0  0.6675315881646284  0.22075301827229774  0.48803474939921204  1.0000
  C   C32       1.0  0.33246924777364484  0.7792432171347059  0.5119647460334705  1.0000
  C   C33       1.0  0.5023596974684922  0.22739838496353573  0.4760695496361295  1.0000
  C   C34       1.0  0.49763948641720634  0.7725999151166505  0.5239291544613068  1.0000
  C   C35       1.0  0.5104063122512343  0.1259713712502233  0.19475118933566904  1.0000
  C   C36       1.0  0.48960011322161273  0.8740299991010119  0.8052449808042044  1.0000
  C   C37       1.0  0.4470603273881295  0.31968599218550503  0.2720686227634986  1.0000
  C   C38       1.0  0.5529426356430206  0.6803153924734744  0.7279316499624501  1.0000
  N   N1        1.0  0.7367734871114848  0.5910879893819114  0.13255979059029954  1.0000
  N   N2        1.0  0.26322681774930595  0.4089103109825061  0.8674413094012439  1.0000
  N   N3        1.0  0.7585437455697527  0.6109623368956961  0.31987790358967777  1.0000
  N   N4        1.0  0.2414548995833457  0.38903802930808956  0.6801232735488015  1.0000
  N   N5        1.0  0.869390183284743  0.503160281254253  0.2698169463576577  1.0000
  N   N6        1.0  0.13060986369240624  0.496839050422679  0.7301840874311338  1.0000
  N   N7        1.0  0.7434037407483487  0.30914034018455544  0.41429351615903437  1.0000
  N   N8        1.0  0.25659655645733176  0.6908579613460405  0.5857084523146909  1.0000
  N   N9        1.0  0.4920437781793368  0.21854617396475362  0.3535423739662633  1.0000
  N   N10       1.0  0.5079528522867703  0.7814531650228035  0.6464575515154893  1.0000
  N   N11       1.0  0.5342143283135456  0.09400322614622068  0.3052264430288005  1.0000
  N   N12       1.0  0.4657860071676792  0.9059950695534483  0.694771183034007  1.0000
  N   N13       1.0  0.455470394362237  0.2643589795152081  0.17045052851997874  1.0000
  N   N14       1.0  0.5445277350235924  0.7356434493136135  0.829550516212997  1.0000
  O   O1        1.0  0.7647128108810434  0.4645628773450028  0.9099026214476709  1.0000
  O   O2        1.0  0.23528995550734777  0.5354395292970081  0.09009063721804723  1.0000
  O   O3        1.0  0.557234767024454  0.37378242020326985  0.918323785548367  1.0000
  O   O4        1.0  0.4427666664665324  0.6262158792791865  0.0816788418551084  1.0000
  O   O5        1.0  0.8467354883678339  0.7378576533910106  0.8874166717698557  1.0000
  O   O6        1.0  0.15326680821461033  0.2621416776881915  0.1125882853249678  1.0000
  O   O7        1.0  0.6455499532762375  0.8610590078939141  0.00913840227327264  1.0000
  O   O8        1.0  0.354445964779856  0.1389434157017106  0.990854376742739  1.0000
