data_image0
_chemical_formula_structural       Mn3H34C38N4O18
_chemical_formula_sum              "Mn3 H34 C38 N4 O18"
_cell_length_a       10.199941399131372
_cell_length_b       10.579306203644537
_cell_length_c       11.927643904388086
_cell_angle_alpha    74.01898128547656
_cell_angle_beta     76.33612870485453
_cell_angle_gamma    81.42742459476997

_space_group_name_H-M_alt    "P 1"
_space_group_IT_number       1

loop_
  _space_group_symop_operation_xyz
  'x, y, z'

loop_
  _atom_site_type_symbol
  _atom_site_label
  _atom_site_symmetry_multiplicity
  _atom_site_fract_x
  _atom_site_fract_y
  _atom_site_fract_z
  _atom_site_occupancy
  Mn  Mn1       1.0  0.8849980433889044  0.7391408863764469  0.7136555395657991  1.0000
  Mn  Mn2       1.0  0.11499334226469665  0.2608686467844592  0.2863456728846998  1.0000
  Mn  Mn3       1.0  0.5000008224504812  0.5000037877639728  0.5000044255917117  1.0000
  H   H1        1.0  0.881130735817329  0.7146679293257068  0.48522892639150667  1.0000
  H   H2        1.0  0.11889184605765019  0.28536339933412347  0.5147741365252116  1.0000
  H   H3        1.0  0.016994901801901097  0.7773415385495924  0.48264999937743613  1.0000
  H   H4        1.0  0.9830327625659832  0.22266807113508247  0.5173640324502528  1.0000
  H   H5        1.0  0.7579865620094635  0.519958703022745  0.44407115051465246  1.0000
  H   H6        1.0  0.24202082074774003  0.48006270838102705  0.5559373757252287  1.0000
  H   H7        1.0  0.7622515330052407  0.3889922250017507  0.3986322603816389  1.0000
  H   H8        1.0  0.23773081341126093  0.6110271367188033  0.6013859826349659  1.0000
  H   H9        1.0  0.5766150018724261  0.5835378147194419  0.6848743405680153  1.0000
  H   H10       1.0  0.4233851982762856  0.4163571422741441  0.3151948872496604  1.0000
  H   H11       1.0  0.5972408781300869  0.428802721857558  0.7027809559371503  1.0000
  H   H12       1.0  0.40290668051092365  0.5711155247302244  0.29711468948205066  1.0000
  H   H13       1.0  0.3927780527536342  0.7168905732590716  0.7093939141539207  1.0000
  H   H14       1.0  0.6071861894516958  0.28311789490288675  0.2906146834496325  1.0000
  H   H15       1.0  0.14651815223094639  0.0813534536522411  0.6259454263060461  1.0000
  H   H16       1.0  0.8534690315447477  0.9186787640852286  0.3740645269593087  1.0000
  H   H17       1.0  0.5681237067411332  0.08629791403230061  0.6266368262046668  1.0000
  H   H18       1.0  0.431899868828431  0.913693048597061  0.3732777628094297  1.0000
  H   H19       1.0  0.7950842267604157  0.9181910711326257  0.8947368240647078  1.0000
  H   H20       1.0  0.20497469417980335  0.0818186163287677  0.105278459239365  1.0000
  H   H21       1.0  0.6969878527252502  0.890849144405479  0.11461896240302136  1.0000
  H   H22       1.0  0.3030469973403171  0.10914863932115541  0.8853931493838657  1.0000
  H   H23       1.0  0.6763146200975427  0.6590635750701282  0.244879683299061  1.0000
  H   H24       1.0  0.32372133690763144  0.3409332272780148  0.7551299297631644  1.0000
  H   H25       1.0  0.7592201368261372  0.4701082214712997  0.157242456992428  1.0000
  H   H26       1.0  0.24080078135433067  0.5298984302895136  0.8427543656232074  1.0000
  H   H27       1.0  0.8482166031503268  0.324479183012194  0.07447972608429147  1.0000
  H   H28       1.0  0.15179091016334206  0.6755303868749964  0.9255249467399265  1.0000
  H   H29       1.0  0.9167686083268122  0.15303610734209633  0.9587921780934037  1.0000
  H   H30       1.0  0.0832261637330518  0.8469694740771985  0.04121853786906367  1.0000
  H   H31       1.0  0.9746230137341669  0.22599508294191392  0.7346736023931868  1.0000
  H   H32       1.0  0.0253231057981154  0.7740024784223181  0.26533625579271086  1.0000
  H   H33       1.0  0.9598348440683749  0.46853353612111454  0.6367901249492929  1.0000
  H   H34       1.0  0.04010508185739073  0.5314551357425329  0.36321056279538055  1.0000
  C   C1        1.0  0.13771250112467467  0.8187662691348907  0.6864710993254377  1.0000
  C   C2        1.0  0.8622295754026298  0.18127374245624142  0.31353008482829375  1.0000
  C   C3        1.0  0.3832516063589538  0.8243617087009765  0.685661089342652  1.0000
  C   C4        1.0  0.6167110398747296  0.17564283748734516  0.314321954035833  1.0000
  C   C5        1.0  0.6300282632689331  0.8235503828188587  0.687263265919178  1.0000
  C   C6        1.0  0.3699607111142598  0.17641078760526346  0.3127242025868994  1.0000
  C   C7        1.0  0.25785810861709996  0.8925395437160193  0.6698234157905033  1.0000
  C   C8        1.0  0.7421050688088895  0.10749064241872476  0.3301834672227386  1.0000
  C   C9        1.0  0.49491594177435166  0.8940207224367075  0.6712774109379467  1.0000
  C   C10       1.0  0.5050750308197394  0.1059622008522112  0.3286859214230232  1.0000
  C   C11       1.0  0.2448336119797005  0.030569051172925302  0.6382136916645251  1.0000
  C   C12       1.0  0.7551627809095435  0.9694622310458174  0.36177284214951994  1.0000
  C   C13       1.0  0.48091003870003846  0.0319927986919808  0.6393848713488737  1.0000
  C   C14       1.0  0.5191121433408127  0.9679912232189097  0.3605518068071304  1.0000
  C   C15       1.0  0.35619231041344784  0.100941492932094  0.6218247797676995  1.0000
  C   C16       1.0  0.643824628397347  0.8990651873277146  0.37814013761378346  1.0000
  C   C17       1.0  0.3450248511651424  0.24875664755982288  0.5866996929440659  1.0000
  C   C18       1.0  0.6549923270123512  0.7512470404333912  0.4132910558136089  1.0000
  C   C19       1.0  0.7854667515034135  0.8208920756802631  0.9567215478769168  1.0000
  C   C20       1.0  0.21456955483802176  0.17911163912190636  0.043287152299470194  1.0000
  C   C21       1.0  0.73101492149312  0.8051035867242079  0.07786847889729383  1.0000
  C   C22       1.0  0.2690184570326152  0.19489913548111562  0.9221385353064446  1.0000
  C   C23       1.0  0.7207305638299458  0.6769853779284817  0.1503103591071522  1.0000
  C   C24       1.0  0.27929191420011523  0.3230153440417994  0.8496951380140272  1.0000
  C   C25       1.0  0.7654812818501637  0.5699661741520501  0.10036888756541631  1.0000
  C   C26       1.0  0.23453597611622704  0.43003651641896573  0.8996304716509866  1.0000
  C   C27       1.0  0.8183084331653347  0.5936380359217922  0.9778429675106961  1.0000
  C   C28       1.0  0.18170807571858924  0.40637255459211036  0.02215294400819085  1.0000
  C   C29       1.0  0.8634055471511032  0.48636565427062817  0.9159439553529153  1.0000
  C   C30       1.0  0.13659217686691957  0.5136409370582058  0.08405418489591909  1.0000
  C   C31       1.0  0.8711423256241345  0.352814566897493  0.9774319727447747  1.0000
  C   C32       1.0  0.1288521786661434  0.6471939864205256  0.022569690295945532  1.0000
  C   C33       1.0  0.910310304889549  0.25750356067522523  0.9126027645298436  1.0000
  C   C34       1.0  0.08966909001285472  0.7424940850932985  0.08740709983370454  1.0000
  C   C35       1.0  0.9421140022812935  0.29746173776941737  0.7884078448350775  1.0000
  C   C36       1.0  0.05784321424822991  0.7025358554636867  0.21159893936005858  1.0000
  C   C37       1.0  0.9343235102482764  0.43204132829448144  0.7334756244949359  1.0000
  C   C38       1.0  0.06563600989036189  0.5679533118881964  0.26652890025054876  1.0000
  N   N1        1.0  0.8276407208087874  0.7179628299446322  0.9079459349052922  1.0000
  N   N2        1.0  0.17239009059867527  0.2820458202650259  0.0920517690581732  1.0000
  N   N3        1.0  0.8955383314865699  0.5244583688373297  0.7954038628045621  1.0000
  N   N4        1.0  0.10442914464795187  0.47554814751937613  0.2045928227798868  1.0000
  O   O1        1.0  0.9531040343650828  0.7142339368522457  0.5313890921338782  1.0000
  O   O2        1.0  0.04688889294742891  0.2858121208346276  0.46861718049704837  1.0000
  O   O3        1.0  0.7185798687356736  0.43386084486891724  0.4629534608378947  1.0000
  O   O4        1.0  0.2814233739147126  0.5661615344076198  0.5370623683042693  1.0000
  O   O5        1.0  0.5352577014170663  0.5053192363180444  0.6781458741556392  1.0000
  O   O6        1.0  0.464774193394085  0.4945610135519729  0.3219063148082739  1.0000
  O   O7        1.0  0.6508682048233965  0.6985822916052414  0.7017976760537009  1.0000
  O   O8        1.0  0.3490868517820046  0.3013737810759451  0.2982523369790044  1.0000
  O   O9        1.0  0.7243618709053333  0.8916426856772759  0.6855103597872443  1.0000
  O   O10       1.0  0.27564180184479875  0.10831260974706683  0.31446804117133087  1.0000
  O   O11       1.0  0.15174388930658012  0.693097906035625  0.7082278367395529  1.0000
  O   O12       1.0  0.8481758105685059  0.30693313961128876  0.2917934345854078  1.0000
  O   O13       1.0  0.02301216382103632  0.8853611867100143  0.6795325901299163  1.0000
  O   O14       1.0  0.9769391210181125  0.11468771464831212  0.32048386628280656  1.0000
  O   O15       1.0  0.23014193834122657  0.312717181387022  0.5757192359140433  1.0000
  O   O16       1.0  0.7698768836487558  0.6873111692476926  0.4242894980628408  1.0000
  O   O17       1.0  0.45278497503686305  0.3030815436296237  0.5737556246486193  1.0000
  O   O18       1.0  0.5472393831577307  0.696910314331973  0.42623655975913965  1.0000
