data_image0
_chemical_formula_structural       Ag8H12C20N12O20
_chemical_formula_sum              "Ag8 H12 C20 N12 O20"
_cell_length_a       6.031085177097518
_cell_length_b       8.868797420658192
_cell_length_c       15.38312009453305
_cell_angle_alpha    93.15609448174546
_cell_angle_beta     89.99941901831303
_cell_angle_gamma    90.00034290968698

_space_group_name_H-M_alt    "P 1"
_space_group_IT_number       1

loop_
  _space_group_symop_operation_xyz
  'x, y, z'

loop_
  _atom_site_type_symbol
  _atom_site_label
  _atom_site_symmetry_multiplicity
  _atom_site_fract_x
  _atom_site_fract_y
  _atom_site_fract_z
  _atom_site_occupancy
  Ag  Ag1       1.0  0.7838963786294001  0.3623682114043589  0.8054935282866185  1.0000
  Ag  Ag2       1.0  0.2838895273602304  0.6376234186084845  0.6945058956661114  1.0000
  Ag  Ag3       1.0  0.21609900634762616  0.6376315084992967  0.19450128425203425  1.0000
  Ag  Ag4       1.0  0.7161058574663597  0.36237070737865196  0.3054985002618906  1.0000
  Ag  Ag5       1.0  0.44472972429349505  0.24895638688653315  0.6788650288546023  1.0000
  Ag  Ag6       1.0  0.9447296356857323  0.7510346999323474  0.821131800063128  1.0000
  Ag  Ag7       1.0  0.5552689767761549  0.7510410954566635  0.32113361703348886  1.0000
  Ag  Ag8       1.0  0.05527569766847759  0.2489639221518515  0.17886883015980007  1.0000
  H   H1        1.0  0.7989668976038189  0.15014727896107158  0.9669664473772741  1.0000
  H   H2        1.0  0.2989711278657269  0.8498601851339983  0.5330275414814949  1.0000
  H   H3        1.0  0.20104672616163544  0.849867166686124  0.0330372572003412  1.0000
  H   H4        1.0  0.7010225990274248  0.150144062263287  0.4669693569120597  1.0000
  H   H5        1.0  0.0789244088437542  0.3876759121913834  0.005712793066067001  1.0000
  H   H6        1.0  0.5789301594941064  0.6123156350982271  0.49428785795167585  1.0000
  H   H7        1.0  0.9210825825668678  0.6123283736303903  0.9942912571820204  1.0000
  H   H8        1.0  0.42107185774086275  0.387680711013317  0.5057094537535747  1.0000
  H   H9        1.0  0.5620107933277012  0.1045148091908601  0.09859976062740833  1.0000
  H   H10       1.0  0.06199911959615179  0.8955004001834934  0.40140361568641236  1.0000
  H   H11       1.0  0.4379995142937928  0.8954826661920661  0.901397584896884  1.0000
  H   H12       1.0  0.9379912911231614  0.10450498693634096  0.5985952670608725  1.0000
  C   C1        1.0  0.3767475070844739  0.3703089110856226  0.9284277046277651  1.0000
  C   C2        1.0  0.8767578784572904  0.629694362880798  0.5715730054315529  1.0000
  C   C3        1.0  0.6232511939350971  0.6296931162087771  0.07157627796649992  1.0000
  C   C4        1.0  0.1232408226485475  0.37031215351041163  0.42842591113476663  1.0000
  C   C5        1.0  0.6395827609537221  0.20664157919859594  0.977103802637906  1.0000
  C   C6        1.0  0.139585102252056  0.7933664544199102  0.5228966767693423  1.0000
  C   C7        1.0  0.3604292047161833  0.7933638254157103  0.022898330922863905  1.0000
  C   C8        1.0  0.8604152569211293  0.20663780346237803  0.4771021721242762  1.0000
  C   C9        1.0  0.2966653901732599  0.48571317426416966  0.8669244805026111  1.0000
  C   C10       1.0  0.7966681570322222  0.5142841424242944  0.6330737637807999  1.0000
  C   C11       1.0  0.703329994670895  0.5142832067440677  0.133079332924062  1.0000
  C   C12       1.0  0.20332556984336492  0.4857178499518895  0.36692371711409066  1.0000
  C   C13       1.0  0.24105112734995518  0.3356557854241655  0.9979485375115971  1.0000
  C   C14       1.0  0.7410536806765717  0.6643458559812172  0.5020526539589341  1.0000
  C   C15       1.0  0.7589558640385832  0.6643451161205077  0.002056061403031605  1.0000
  C   C16       1.0  0.25894502043221473  0.33565500365729406  0.49794414292084355  1.0000
  C   C17       1.0  0.5060765660504457  0.17894396497098336  0.04888832039932821  1.0000
  C   C18       1.0  0.006067906393226998  0.8210676352203307  0.4511125660998729  1.0000
  C   C19       1.0  0.4939304254233008  0.821056901664697  0.9511097768064829  1.0000
  C   C20       1.0  0.993927478562753  0.17893322441202028  0.5488842307862072  1.0000
  N   N1        1.0  0.5768373842375141  0.3041671433156451  0.9177333850065779  1.0000
  N   N2        1.0  0.076842282779026  0.695838388603697  0.582265314454105  1.0000
  N   N3        1.0  0.4231696072242385  0.6958371215607426  0.0822667642162145  1.0000
  N   N4        1.0  0.923156418326286  0.3041658657846185  0.4177328842717786  1.0000
  N   N5        1.0  0.10136950268763908  0.0636330006534536  0.8029583589495816  1.0000
  N   N6        1.0  0.6013693288199492  0.9363579349349533  0.6970385071798403  1.0000
  N   N7        1.0  0.898627540263007  0.9363644991411633  0.19704353779606984  1.0000
  N   N8        1.0  0.39862937223213624  0.06363729238714198  0.3029607212095797  1.0000
  N   N9        1.0  0.1943584201986397  0.24336275730386348  0.5590519212240751  1.0000
  N   N10       1.0  0.6943635249635063  0.7566285301669993  0.9409458921636542  1.0000
  N   N11       1.0  0.8056435970408556  0.7566347180636795  0.440945424315963  1.0000
  N   N12       1.0  0.30564346646763607  0.24337235392317072  0.05905545589656211  1.0000
  O   O1        1.0  0.4276394518646853  0.5243593078758193  0.8076110240476596  1.0000
  O   O2        1.0  0.9276370050571215  0.47564528407830414  0.6923895266370579  1.0000
  O   O3        1.0  0.5723542749075959  0.4756382023853403  0.19239282321693452  1.0000
  O   O4        1.0  0.0723600379872593  0.524352177316423  0.3076052182288862  1.0000
  O   O5        1.0  0.13105324684258327  0.1997092657056641  0.7830128696137919  1.0000
  O   O6        1.0  0.6310546682595443  0.8002829092371042  0.7169839176399506  1.0000
  O   O7        1.0  0.8689371638109832  0.8002882305857566  0.2169883769735677  1.0000
  O   O8        1.0  0.3689407166357411  0.1997134508257402  0.2830159947614206  1.0000
  O   O9        1.0  0.1027169150829295  0.5369287260616105  0.8812188814160677  1.0000
  O   O10       1.0  0.602732871358647  0.463054288816778  0.6187738416979442  1.0000
  O   O11       1.0  0.8972751535812905  0.46306087940446633  0.11878472900822602  1.0000
  O   O12       1.0  0.39726251361490467  0.5369488258366814  0.3812223726868069  1.0000
  O   O13       1.0  0.586843155013689  0.03981947135194019  0.7577468717067646  1.0000
  O   O14       1.0  0.08684783601504616  0.9601702880938274  0.742251316076107  1.0000
  O   O15       1.0  0.4131522299071618  0.9601768782382006  0.2422510901819592  1.0000
  O   O16       1.0  0.9131525230668343  0.039826089432736494  0.2577518471702334  1.0000
  O   O17       1.0  0.08395686916949778  0.0318758771691492  0.8816770598424031  1.0000
  O   O18       1.0  0.583955725609151  0.9681172628196463  0.6183218905858112  1.0000
  O   O19       1.0  0.9160451480103474  0.9681216226346973  0.1183248368938123  1.0000
  O   O20       1.0  0.41604629159573386  0.03187796450859539  0.3816773377973135  1.0000
