data_image0
_chemical_formula_structural       CuH8C6N8O4
_chemical_formula_sum              "Cu1 H8 C6 N8 O4"
_cell_length_a       5.601123584927983
_cell_length_b       7.630990200137077
_cell_length_c       7.498811097361041
_cell_angle_alpha    64.0930358494793
_cell_angle_beta     71.47475386753239
_cell_angle_gamma    83.87682661147369

_space_group_name_H-M_alt    "P 1"
_space_group_IT_number       1

loop_
  _space_group_symop_operation_xyz
  'x, y, z'

loop_
  _atom_site_type_symbol
  _atom_site_label
  _atom_site_symmetry_multiplicity
  _atom_site_fract_x
  _atom_site_fract_y
  _atom_site_fract_z
  _atom_site_occupancy
  Cu  Cu1       1.0  5.50358465997815e-06  0.9999914831273102  6.076498742455138e-06  1.0000
  H   H1        1.0  0.5631030871678605  0.42795812828498486  0.27415117680231293  1.0000
  H   H2        1.0  0.43688452526637905  0.5720489867344725  0.7258660648464287  1.0000
  H   H3        1.0  0.8086252497517847  0.20849543914376056  0.5885606274343048  1.0000
  H   H4        1.0  0.19135034543162285  0.7915144695846623  0.41143261900798933  1.0000
  H   H5        1.0  0.18692315032821943  0.57343330175609  0.10120748793234208  1.0000
  H   H6        1.0  0.8130552514915195  0.4265619709819859  0.8987904674950399  1.0000
  H   H7        1.0  0.1466157549411875  0.3532610856922533  0.11064889826676702  1.0000
  H   H8        1.0  0.8533752636638426  0.6467327042853983  0.8893589844104354  1.0000
  C   C1        1.0  0.5344745856848833  0.9072678228316563  0.9791044371425953  1.0000
  C   C2        1.0  0.46552044074059046  0.09271841399591102  0.02088599410614479  1.0000
  C   C3        1.0  0.3957722201055703  0.34834702601624923  0.39660473263996476  1.0000
  C   C4        1.0  0.604263066799696  0.6516652850022809  0.6033930696967645  1.0000
  C   C5        1.0  0.007659380321541702  0.23452274703532086  0.5589454222966809  1.0000
  C   C6        1.0  0.9923712900629841  0.7654764754309016  0.44105800559302105  1.0000
  N   N1        1.0  0.13722934322235864  0.1674531116819793  0.6942610640354233  1.0000
  N   N2        1.0  0.8627510393190365  0.8325421092684097  0.30573381441874403  1.0000
  N   N3        1.0  0.3817737358658065  0.2398460132287852  0.5934725746101678  1.0000
  N   N4        1.0  0.6182137711230242  0.7601492352809064  0.4065314090043017  1.0000
  N   N5        1.0  0.16465358327432975  0.3490239232483674  0.3694633968064736  1.0000
  N   N6        1.0  0.8353172470911261  0.6509759148980123  0.6305434738027388  1.0000
  N   N7        1.0  0.09009669842305362  0.440865197364147  0.18894528013380105  1.0000
  N   N8        1.0  0.9098984341528937  0.5591343929542631  0.8110604009824625  1.0000
  O   O1        1.0  0.7664386958063291  0.8630968209183296  0.9439440344826624  1.0000
  O   O2        1.0  0.23358715774260475  0.1368878846920225  0.05606838039006591  1.0000
  O   O3        1.0  0.6361745757528326  0.18650265073024744  0.020632997493699273  1.0000
  O   O4        1.0  0.36387691047320203  0.8135180651875517  0.9793427718459708  1.0000
