data_image0
_chemical_formula_structural       Ca2H32C22N4O16
_chemical_formula_sum              "Ca2 H32 C22 N4 O16"
_cell_length_a       8.206974410749613
_cell_length_b       9.729930262047212
_cell_length_c       9.729881564256083
_cell_angle_alpha    78.82867552452228
_cell_angle_beta     75.00450018289347
_cell_angle_gamma    75.00437262727368

_space_group_name_H-M_alt    "P 1"
_space_group_IT_number       1

loop_
  _space_group_symop_operation_xyz
  'x, y, z'

loop_
  _atom_site_type_symbol
  _atom_site_label
  _atom_site_symmetry_multiplicity
  _atom_site_fract_x
  _atom_site_fract_y
  _atom_site_fract_z
  _atom_site_occupancy
  Ca  Ca1       1.0  0.2499996123772944  0.5392723614958613  0.4607290330649575  1.0000
  Ca  Ca2       1.0  0.7500007178156378  0.460729949518182  0.539273274446188  1.0000
  H   H1        1.0  0.12431375480338143  0.39951727441630425  0.9509850995790428  1.0000
  H   H2        1.0  0.3756873667856765  0.04901797898806141  0.6004789958242895  1.0000
  H   H3        1.0  0.8756848989271546  0.600481839494506  0.04901610346549024  1.0000
  H   H4        1.0  0.6243140111027612  0.9509853985147458  0.3995198100358124  1.0000
  H   H5        1.0  0.33253925066428275  0.3320523745737988  0.1730637989642928  1.0000
  H   H6        1.0  0.16746025876394538  0.8269394514884854  0.6679410361601368  1.0000
  H   H7        1.0  0.667458138905381  0.6679467504065429  0.8269376625853367  1.0000
  H   H8        1.0  0.8325414460243508  0.1730628557828879  0.3320548214379073  1.0000
  H   H9        1.0  0.10580067905953425  0.34015479035011964  0.2041430210521041  1.0000
  H   H10       1.0  0.394198301785728  0.7958601223479533  0.6598399848901692  1.0000
  H   H11       1.0  0.8941964388274994  0.6598454085250937  0.7958582930555806  1.0000
  H   H12       1.0  0.6058008746808099  0.2041422070624891  0.3401563897180821  1.0000
  H   H13       1.0  0.4983153859962499  0.31158245592641987  0.8574527167147393  1.0000
  H   H14       1.0  0.0016877765141600951  0.14255111983022323  0.6884153735789693  1.0000
  H   H15       1.0  0.5016882875663028  0.6884166112639606  0.14254951611204092  1.0000
  H   H16       1.0  0.9983119065061242  0.8574490593481985  0.31158335971583984  1.0000
  H   H17       1.0  0.4227237275941248  0.47476710163368113  0.9325365510977048  1.0000
  H   H18       1.0  0.07727062063269587  0.0674651123331174  0.5252345732051039  1.0000
  H   H19       1.0  0.5772703370116616  0.5252352683914694  0.06746395323495583  1.0000
  H   H20       1.0  0.92272875389348  0.9325361382978841  0.4747660764504287  1.0000
  H   H21       1.0  0.13633279273400228  0.16126399387412962  0.06173103694047201  1.0000
  H   H22       1.0  0.3636677948614277  0.9382688813866195  0.8387340807421563  1.0000
  H   H23       1.0  0.8636671251574128  0.8387351089671427  0.9382699075989505  1.0000
  H   H24       1.0  0.63633624241249  0.061729118014611103  0.1612631400199049  1.0000
  H   H25       1.0  0.3674564715948776  0.1262763175311079  0.01972631500913737  1.0000
  H   H26       1.0  0.132548695498201  0.9802740243379519  0.8737201421938109  1.0000
  H   H27       1.0  0.632543137802429  0.8737238567627376  0.9802765458910087  1.0000
  H   H28       1.0  0.8674555582410903  0.019722897504976807  0.12628032171419784  1.0000
  H   H29       1.0  0.3644611269187194  0.19712999909726395  0.7564938558791212  1.0000
  H   H30       1.0  0.13553667576479705  0.2435038896197099  0.8028684116395581  1.0000
  H   H31       1.0  0.6355403084104551  0.8028680175584597  0.24350800949848414  1.0000
  H   H32       1.0  0.8644637670861142  0.7564930642106874  0.1971338596850957  1.0000
  C   C1        1.0  0.16817764282271938  0.5468209579947045  0.1286682103538865  1.0000
  C   C2        1.0  0.33182375828565086  0.8713337354258289  0.4531731774454641  1.0000
  C   C3        1.0  0.8318219849803299  0.4531792175202937  0.8713336186449324  1.0000
  C   C4        1.0  0.6681782181852609  0.1286674979506728  0.5468228275945322  1.0000
  C   C5        1.0  0.21476562801326785  0.3819086868847067  0.13266530399435078  1.0000
  C   C6        1.0  0.28523544496065495  0.8673356403652192  0.6180849898246235  1.0000
  C   C7        1.0  0.7852327540346449  0.6180915009209684  0.8673357516082374  1.0000
  C   C8        1.0  0.71476682159863  0.1326645203375634  0.3819101307559831  1.0000
  C   C9        1.0  0.33530255088142247  0.4802916890832806  0.7427851214342169  1.0000
  C   C10       1.0  0.16469857868643345  0.25721315439319176  0.5197067858925024  1.0000
  C   C11       1.0  0.6646953062069939  0.5197106477332697  0.2572146073831405  1.0000
  C   C12       1.0  0.83530075902825  0.7427880937955251  0.4802959275656988  1.0000
  C   C13       1.0  0.38556959706372856  0.39988349094659276  0.8821134555602581  1.0000
  C   C14       1.0  0.11443211846477644  0.11788822225582864  0.6001137791263673  1.0000
  C   C15       1.0  0.6144303208276868  0.6001156118946795  0.11788748897916426  1.0000
  C   C16       1.0  0.8855675277440154  0.8821119544803087  0.3998870179711105  1.0000
  C   C17       1.0  0.2501921510035458  0.18803601716048496  0.9832210613278105  1.0000
  C   C18       1.0  0.24980892091380005  0.016778730777545502  0.8119620628982884  1.0000
  C   C19       1.0  0.7498092843256288  0.8119619994952387  0.016780804049794488  1.0000
  C   C20       1.0  0.7501937785762461  0.9832192748086399  0.1880395439742131  1.0000
  C   C21       1.0  0.2500002621937226  0.1678722790953842  0.8321273278881022  1.0000
  C   C22       1.0  0.7500001990629312  0.8321246759561518  0.16787391153521722  1.0000
  N   N1        1.0  0.23866267711665756  0.34472597485402195  0.9855343824498417  1.0000
  N   N2        1.0  0.2613400186879744  0.014465321880571503  0.655269358279014  1.0000
  N   N3        1.0  0.7613375308631233  0.6552720553135317  0.014465677630198643  1.0000
  N   N4        1.0  0.7386621926540752  0.9855348351587805  0.3447288580055883  1.0000
  O   O1        1.0  0.19857925354982336  0.5945017879996187  0.22896078732566139  1.0000
  O   O2        1.0  0.3014242053578116  0.7710366173403146  0.4054886770453122  1.0000
  O   O3        1.0  0.8014212813298229  0.4054951719364936  0.7710363244923286  1.0000
  O   O4        1.0  0.698578369695589  0.2289624719098882  0.594504527174571  1.0000
  O   O5        1.0  0.10287631565643097  0.6197176210931871  0.02577670513267095  1.0000
  O   O6        1.0  0.39712240333735577  0.974222309279128  0.3802777338600904  1.0000
  O   O7        1.0  0.8971208390421027  0.3802825802243106  0.9742225451723527  1.0000
  O   O8        1.0  0.6028764830408091  0.025781092805033313  0.6197195252075502  1.0000
  O   O9        1.0  0.1837276362917989  0.4934227923945543  0.7277000314322563  1.0000
  O   O10       1.0  0.31627193255611263  0.27229905237231133  0.5065721680103719  1.0000
  O   O11       1.0  0.8162655396431329  0.5065827944306208  0.27230415817990666  1.0000
  O   O12       1.0  0.6837245683426897  0.7277032894080551  0.4934329788187525  1.0000
  O   O13       1.0  0.4531759398965604  0.5289102449195369  0.6488145309506095  1.0000
  O   O14       1.0  0.04682182840980426  0.35118452021748686  0.47109020187397727  1.0000
  O   O15       1.0  0.5468202407294597  0.4710888947937662  0.3511840934001284  1.0000
  O   O16       1.0  0.9531757776252404  0.6488135272045599  0.5289145028216069  1.0000
