data_image0
_chemical_formula_structural       Cs4H16C32N8Cl8O16
_chemical_formula_sum              "Cs4 H16 C32 N8 Cl8 O16"
_cell_length_a       6.578880749089281
_cell_length_b       9.792407101425331
_cell_length_c       18.182352990551344
_cell_angle_alpha    90.00089014821756
_cell_angle_beta     90.00007988685022
_cell_angle_gamma    90.00058989920466

_space_group_name_H-M_alt    "P 1"
_space_group_IT_number       1

loop_
  _space_group_symop_operation_xyz
  'x, y, z'

loop_
  _atom_site_type_symbol
  _atom_site_label
  _atom_site_symmetry_multiplicity
  _atom_site_fract_x
  _atom_site_fract_y
  _atom_site_fract_z
  _atom_site_occupancy
  Cs  Cs1       1.0  0.5956936475852572  0.4602860676472247  0.3426546501592752  1.0000
  Cs  Cs2       1.0  0.4042984746170291  0.46029197832832125  0.657343245411219  1.0000
  Cs  Cs3       1.0  0.09569699501169282  0.5397064670818351  0.15734495732071702  1.0000
  Cs  Cs4       1.0  0.9043024207874168  0.5397058659941437  0.8426574536273176  1.0000
  H   H1        1.0  0.2038683015745377  0.3806515620316305  0.4831217356866089  1.0000
  H   H2        1.0  0.7961226037470726  0.3806530812050752  0.5168765925224645  1.0000
  H   H3        1.0  0.7038706918180183  0.6193437654861709  0.016876826524367092  1.0000
  H   H4        1.0  0.2961269008299254  0.619341970310181  0.9831246018004971  1.0000
  H   H5        1.0  0.2035168963776286  0.5430804500245117  0.481761206186739  1.0000
  H   H6        1.0  0.796479530968803  0.543083032086173  0.5182401330790822  1.0000
  H   H7        1.0  0.7035183299015487  0.4569158962912495  0.018240105769727694  1.0000
  H   H8        1.0  0.29648134081942606  0.45691304309583786  0.9817610614279882  1.0000
  H   H9        1.0  0.6164543130083828  0.5515865196312079  0.13340269298317503  1.0000
  H   H10       1.0  0.38353920412100717  0.5515676776604012  0.8665992674539633  1.0000
  H   H11       1.0  0.1164585901971904  0.4484245407543667  0.3666002249730622  1.0000
  H   H12       1.0  0.883534870749898  0.44842695901202495  0.6334003211066485  1.0000
  H   H13       1.0  0.5804720135133437  0.6724940944751836  0.18599154361275072  1.0000
  H   H14       1.0  0.4195233510803861  0.6724688813238514  0.814008130060024  1.0000
  H   H15       1.0  0.08047272097582693  0.32752386462053096  0.3140069563102299  1.0000
  H   H16       1.0  0.9195249726380582  0.32752906858990377  0.6859914767075918  1.0000
  C   C1        1.0  0.7984361676736002  0.8079842688951755  0.452196986120782  1.0000
  C   C2        1.0  0.2015810276761485  0.8079856180665316  0.5478065729499801  1.0000
  C   C3        1.0  0.2984201007575109  0.192011714601044  0.04780327384806778  1.0000
  C   C4        1.0  0.7015679221727071  0.1920261379810242  0.9521973235626501  1.0000
  C   C5        1.0  0.7646196098175936  0.8887578919258842  0.5184830162433581  1.0000
  C   C6        1.0  0.2353866594538374  0.8887330574911586  0.481515719732492  1.0000
  C   C7        1.0  0.2646222168643604  0.1112553225721413  0.9815137623585096  1.0000
  C   C8        1.0  0.7353676119377114  0.11124819183604731  0.01848505828331779  1.0000
  C   C9        1.0  0.7654095475147926  0.03181739518315399  0.5168360743448089  1.0000
  C   C10       1.0  0.23459578761664096  0.0318109842841778  0.48316208064085203  1.0000
  C   C11       1.0  0.2654237352076692  0.9681856128648718  0.983162354568044  1.0000
  C   C12       1.0  0.7345715878528908  0.9681896623190482  0.016838147071290194  1.0000
  C   C13       1.0  0.798041699194151  0.10923774203462236  0.4490910496639769  1.0000
  C   C14       1.0  0.20196329896094062  0.10923407731382889  0.550908854057212  1.0000
  C   C15       1.0  0.29805152154709463  0.8907633447959853  0.05090811016573578  1.0000
  C   C16       1.0  0.7019502185290349  0.8907654269377046  0.9490911927105965  1.0000
  C   C17       1.0  0.8191813145508107  0.026845460814215  0.38188763653913316  1.0000
  C   C18       1.0  0.18083002472657486  0.026845627621881397  0.6181143266992277  1.0000
  C   C19       1.0  0.3191835342379932  0.9731547514760733  0.11811428389113127  1.0000
  C   C20       1.0  0.6808285848904417  0.9731547512675718  0.8818857093913618  1.0000
  C   C21       1.0  0.8209495832376207  0.8864523188033077  0.38359068860582807  1.0000
  C   C22       1.0  0.17905817107624966  0.8864605938573361  0.6164102281244863  1.0000
  C   C23       1.0  0.32094778127883233  0.11354279971098438  0.11640903276072824  1.0000
  C   C24       1.0  0.6790572827355277  0.11354896356078108  0.8835914570604114  1.0000
  C   C25       1.0  0.7146501999638986  0.8168784756811718  0.583654685451769  1.0000
  C   C26       1.0  0.2853519309909416  0.816860280342226  0.41634949804758725  1.0000
  C   C27       1.0  0.21465365465407163  0.18312315907528637  0.9163481176620605  1.0000
  C   C28       1.0  0.7853403125034577  0.18313459129955587  0.08365735510893296  1.0000
  C   C29       1.0  0.7180009793891459  0.10905145215443915  0.5802137717479849  1.0000
  C   C30       1.0  0.2819964158061481  0.1090445657109171  0.4197800805746893  1.0000
  C   C31       1.0  0.2180152631015417  0.8909399937397494  0.9197785833272286  1.0000
  C   C32       1.0  0.781981919773031  0.8909615157258484  0.08021907115818998  1.0000
  N   N1        1.0  0.6689642587554019  0.7565966607857887  0.6366893613393639  1.0000
  N   N2        1.0  0.33103087103299345  0.7565833818479033  0.36330881719926805  1.0000
  N   N3        1.0  0.1689577904800643  0.24340159333487324  0.8633079188232597  1.0000
  N   N4        1.0  0.8310370977559032  0.24341487021055738  0.13668980931134905  1.0000
  N   N5        1.0  0.6751797149848784  0.17596408415145956  0.6311755422720962  1.0000
  N   N6        1.0  0.32480958251336745  0.17594887848306937  0.3688216206381297  1.0000
  N   N7        1.0  0.1751927803770741  0.8240403403815935  0.8688239409988011  1.0000
  N   N8        1.0  0.824818580252149  0.8240421820242928  0.13117645271409364  1.0000
  Cl  Cl1       1.0  0.8365783913826804  0.1128446551336921  0.30055914350241136  1.0000
  Cl  Cl2       1.0  0.16341754186739624  0.11285112851474816  0.6994380405645654  1.0000
  Cl  Cl3       1.0  0.3365765696229772  0.8871475081442315  0.19943673586606528  1.0000
  Cl  Cl4       1.0  0.6634266352107262  0.887150150748681  0.8005570368752611  1.0000
  Cl  Cl5       1.0  0.8431759158254053  0.7947363222512535  0.3046654314813323  1.0000
  Cl  Cl6       1.0  0.15682891703814758  0.7947467165223401  0.6953391165785161  1.0000
  Cl  Cl7       1.0  0.34317581880454634  0.2052528233125486  0.19533815098380092  1.0000
  Cl  Cl8       1.0  0.6568397666831345  0.20526064434100283  0.8046631073460799  1.0000
  O   O1        1.0  0.7995159201667194  0.679850306295499  0.45246704157464973  1.0000
  O   O2        1.0  0.2004917171461855  0.6798485765908139  0.5475381936804167  1.0000
  O   O3        1.0  0.2995139703145426  0.32014976960079616  0.04753761883135607  1.0000
  O   O4        1.0  0.700483610599612  0.32015091753295627  0.9524662522152308  1.0000
  O   O5        1.0  0.7998575740687385  0.2373431080972068  0.447918471369462  1.0000
  O   O6        1.0  0.20013570146760884  0.23734252806411854  0.5520781059709703  1.0000
  O   O7        1.0  0.2998639233525324  0.7626518640188849  0.05207353956206619  1.0000
  O   O8        1.0  0.7001388991999633  0.7626610483237001  0.9479191899749677  1.0000
  O   O9        1.0  0.22654596317246248  0.4608572051555057  0.4514903078981545  1.0000
  O   O10       1.0  0.7734476877488845  0.46085947815893746  0.5485097923787162  1.0000
  O   O11       1.0  0.7265442094907542  0.539142364500293  0.04851101571324528  1.0000
  O   O12       1.0  0.2734506375939532  0.5391354160554228  0.9514913904800505  1.0000
  O   O13       1.0  0.5737071824931023  0.5729577527016332  0.1849263561818474  1.0000
  O   O14       1.0  0.4262881811729642  0.5729336383944741  0.8150757833174178  1.0000
  O   O15       1.0  0.0737094150073361  0.4270591383277063  0.31507599020387983  1.0000
  O   O16       1.0  0.9262852395040824  0.4270643584390967  0.68492437685299  1.0000
