data_image0
_chemical_formula_structural       GaH16C32N8F
_chemical_formula_sum              "Ga1 H16 C32 N8 F1"
_cell_length_a       3.914352529047656
_cell_length_b       12.491363367895437
_cell_length_c       12.733845234252707
_cell_angle_alpha    90.45816690711112
_cell_angle_beta     96.4815252381786
_cell_angle_gamma    89.90908560497675

_space_group_name_H-M_alt    "P 1"
_space_group_IT_number       1

loop_
  _space_group_symop_operation_xyz
  'x, y, z'

loop_
  _atom_site_type_symbol
  _atom_site_label
  _atom_site_symmetry_multiplicity
  _atom_site_fract_x
  _atom_site_fract_y
  _atom_site_fract_z
  _atom_site_occupancy
  Ga  Ga1       1.0  7.020495829101635e-06  0.9999996525329705  3.1199943609772193e-07  1.0000
  H   H1        1.0  0.2373318357975336  0.017662587119268398  0.46670511617631405  1.0000
  H   H2        1.0  0.7626745610640454  0.9823397720494212  0.5332961036616909  1.0000
  H   H3        1.0  0.4212503966837886  0.18099037655733946  0.5722814178664066  1.0000
  H   H4        1.0  0.578755996448173  0.819011981284454  0.42771901652493244  1.0000
  H   H5        1.0  0.47084484100206236  0.3557893303802474  0.4838179703337247  1.0000
  H   H6        1.0  0.5291615484002888  0.6442130261346577  0.5161816786109484  1.0000
  H   H7        1.0  0.3438884573261872  0.3710193183734631  0.2872559220552092  1.0000
  H   H8        1.0  0.6561204694925352  0.6289822264608702  0.712743023455296  1.0000
  H   H9        1.0  0.2507955023736912  0.46551848038888705  0.983143480112311  1.0000
  H   H10       1.0  0.7492108683805724  0.5344838694915596  0.01685224159905369  1.0000
  H   H11       1.0  0.24842636918876337  0.5707313536371997  0.8173114993920977  1.0000
  H   H12       1.0  0.7515669306097977  0.4292654391492404  0.18268216938218274  1.0000
  H   H13       1.0  0.11210587735674689  0.4825737357116325  0.642134240149403  1.0000
  H   H14       1.0  0.88787455274705  0.5174223110464666  0.3578621243583981  1.0000
  H   H15       1.0  0.9757042057590937  0.2866497421101143  0.6287669864788514  1.0000
  H   H16       1.0  0.024271123427688203  0.7133471288186328  0.3712315643455001  1.0000
  C   C1        1.0  0.10944336911905589  0.023053678060314598  0.23658866438313453  1.0000
  C   C2        1.0  0.8905706176370031  0.9769454482030682  0.7634120100472616  1.0000
  C   C3        1.0  0.19837818640814217  0.10292931727489926  0.31926134890694874  1.0000
  C   C4        1.0  0.8016358599756684  0.8970714100232511  0.6807393375203221  1.0000
  C   C5        1.0  0.2627829199884316  0.09442816905021799  0.42863637920984843  1.0000
  C   C6        1.0  0.7372235029574058  0.9055749893089667  0.5713640611799279  1.0000
  C   C7        1.0  0.3629148768103221  0.18646950860927797  0.4867522065897348  1.0000
  C   C8        1.0  0.6370812063979017  0.8135320893872017  0.513248655206077  1.0000
  C   C9        1.0  0.39184543463812094  0.2852292421161735  0.4361097900946549  1.0000
  C   C10       1.0  0.6081609286799646  0.7147723152082365  0.5638906382982469  1.0000
  C   C11       1.0  0.3226449386714023  0.29455652070233634  0.3265434123730914  1.0000
  C   C12       1.0  0.6773767945077579  0.7054433778964366  0.6734583175352216  1.0000
  C   C13       1.0  0.2262313649240824  0.20213706721133914  0.2683178050313018  1.0000
  C   C14       1.0  0.7737852300649523  0.7978628523869132  0.7316845343017991  1.0000
  C   C15       1.0  0.1447632828190422  0.18145228472926786  0.1552797731327402  1.0000
  C   C16       1.0  0.8552456328338778  0.8185484662221467  0.8447230936126504  1.0000
  C   C17       1.0  0.08812953916039849  0.23731591135019406  0.9782357206189902  1.0000
  C   C18       1.0  0.9118691112780793  0.7626856754831052  0.0217644437410911  1.0000
  C   C19       1.0  0.11019112760888558  0.31919587454616766  0.8982358208404053  1.0000
  C   C20       1.0  0.8898023436367523  0.6808049287885467  0.10176259060604312  1.0000
  C   C21       1.0  0.1909600872232744  0.4276889421946704  0.906056117520322  1.0000
  C   C22       1.0  0.8090333430196354  0.5723110566419792  0.09393993158769831  1.0000
  C   C23       1.0  0.19050493300901644  0.48538832810318405  0.8127195570370986  1.0000
  C   C24       1.0  0.8094935161685016  0.5146084476644504  0.18727585865238447  1.0000
  C   C25       1.0  0.1124878394781774  0.4350485614909942  0.7136779254916307  1.0000
  C   C26       1.0  0.8874874487058761  0.5649475049396953  0.2863182629942998  1.0000
  C   C27       1.0  0.03525082030065361  0.32599079102399037  0.7052981719877282  1.0000
  C   C28       1.0  0.964727206560731  0.6740092747917783  0.29470206173464675  1.0000
  C   C29       1.0  0.0355623781305354  0.268354627731199  0.798761353318419  1.0000
  C   C30       1.0  0.9644361269681737  0.7316429578420693  0.20123956649614175  1.0000
  C   C31       1.0  0.9778004371527371  0.15551523646754356  0.8198426771909766  1.0000
  C   C32       1.0  0.0221955566138519  0.8444839599767844  0.18015816660952313  1.0000
  N   N1        1.0  0.07399150067584509  0.07394370963036316  0.14050310608918443  1.0000
  N   N2        1.0  0.9260174149770748  0.9260570413210514  0.8594997606562064  1.0000
  N   N3        1.0  0.004211238861998399  0.14152488407276553  0.9277150871626392  1.0000
  N   N4        1.0  0.995774538152105  0.8584759554052894  0.0722869874843113  1.0000
  N   N5        1.0  0.08053989565156879  0.9189922469479653  0.2551490214666501  1.0000
  N   N6        1.0  0.9194586765341197  0.08100694231385568  0.7448534812381101  1.0000
  N   N7        1.0  0.14943787054251348  0.2560440433146383  0.08159757966040361  1.0000
  N   N8        1.0  0.8505580971398176  0.743954353939195  0.9184040435883178  1.0000
  F   F1        1.0  0.4999944117948728  0.9999982794202749  0.999998587235247  1.0000
