data_image0
_chemical_formula_structural       Hg2H22C22Br4N6
_chemical_formula_sum              "Hg2 H22 C22 Br4 N6"
_cell_length_a       7.968066391680881
_cell_length_b       8.296209849971785
_cell_length_c       11.467833871896104
_cell_angle_alpha    102.78349128779882
_cell_angle_beta     94.13010314563067
_cell_angle_gamma    114.81177367097338

_space_group_name_H-M_alt    "P 1"
_space_group_IT_number       1

loop_
  _space_group_symop_operation_xyz
  'x, y, z'

loop_
  _atom_site_type_symbol
  _atom_site_label
  _atom_site_symmetry_multiplicity
  _atom_site_fract_x
  _atom_site_fract_y
  _atom_site_fract_z
  _atom_site_occupancy
  Hg  Hg1       1.0  0.9373590733764768  0.563074103010855  0.21433043595604317  1.0000
  Hg  Hg2       1.0  0.0626403104812425  0.43692661883834216  0.7856712753036419  1.0000
  H   H1        1.0  0.8658780211375968  0.8631773246555027  0.17862561582695946  1.0000
  H   H2        1.0  0.1341245116696115  0.1368247980899469  0.8213773461229152  1.0000
  H   H3        1.0  0.5157328118723612  0.8122979373999756  0.15737394155753756  1.0000
  H   H4        1.0  0.48426973865495154  0.1876986495344681  0.8426246598249564  1.0000
  H   H5        1.0  0.20880532058490797  0.8062330623281398  0.0890413267649848  1.0000
  H   H6        1.0  0.7912022285981024  0.19377181034352023  0.9109562161322344  1.0000
  H   H7        1.0  0.19906923484165154  0.107832506798303  0.09379580705449089  1.0000
  H   H8        1.0  0.8009339307252217  0.892165442428208  0.9061995520163535  1.0000
  H   H9        1.0  0.49924129774491627  0.3989870619863538  0.1603453969419206  1.0000
  H   H10       1.0  0.5007612327160302  0.6010122678042151  0.8396510201610994  1.0000
  H   H11       1.0  0.934996265028225  0.23739786400543045  0.3185336857098093  1.0000
  H   H12       1.0  0.06500500194465522  0.762604241942867  0.6814674661954641  1.0000
  H   H13       1.0  0.9472837655566266  0.16291349971210414  0.1659169336788793  1.0000
  H   H14       1.0  0.052718760526794  0.837088608003711  0.8340834095331005  1.0000
  H   H15       1.0  0.7497953180628796  0.11716289222773922  0.44435029399859616  1.0000
  H   H16       1.0  0.25020468755818837  0.8828392069431603  0.5556507936873345  1.0000
  H   H17       1.0  0.6553303328060379  0.9869419536877473  0.6145153052326151  1.0000
  H   H18       1.0  0.3446677741160328  0.013061514259938201  0.3854859033535192  1.0000
  H   H19       1.0  0.6564341660499052  0.680825412402946  0.6157969838366313  1.0000
  H   H20       1.0  0.34356331462628725  0.31917666820328344  0.3842031024979918  1.0000
  H   H21       1.0  0.7542777047317982  0.5258941283268967  0.4419211444491253  1.0000
  H   H22       1.0  0.24571600747282218  0.474105179071266  0.5580791876816917  1.0000
  C   C1        1.0  0.669460070782975  0.1088725926172884  0.19531790051832593  1.0000
  C   C2        1.0  0.33054375006120307  0.8911240211340471  0.804684256734042  1.0000
  C   C3        1.0  0.5076431287033072  0.9401538935824902  0.15774445839975468  1.0000
  C   C4        1.0  0.4923593750724747  0.059850951979584  0.8422528276201148  1.0000
  C   C5        1.0  0.33606509816256386  0.9371870434532712  0.1203101697315319  1.0000
  C   C6        1.0  0.6639456666828278  0.0628054406858638  0.8796864515637566  1.0000
  C   C7        1.0  0.3297109424111822  0.1030465403533753  0.1225108261588659  1.0000
  C   C8        1.0  0.670291556882077  0.8969582951889521  0.877484714035738  1.0000
  C   C9        1.0  0.4966248392636173  0.26621281245900963  0.15988893379364547  1.0000
  C   C10       1.0  0.5033783196844652  0.7337879096828884  0.8401094784735222  1.0000
  C   C11       1.0  0.8616570892424348  0.1223271405098103  0.2352150799859771  1.0000
  C   C12       1.0  0.1383467026753209  0.8776749840031571  0.7647870732706039  1.0000
  C   C13       1.0  0.804955355532172  0.8904056051318038  0.3494067623969528  1.0000
  C   C14       1.0  0.19504276697374215  0.1095951099399954  0.6505948846433967  1.0000
  C   C15       1.0  0.7506403023750394  0.9865190118596202  0.4450066598515575  1.0000
  C   C16       1.0  0.24936034955828026  0.013481731796595398  0.5549977343653653  1.0000
  C   C17       1.0  0.6970280338202883  0.9122918401423944  0.5408682662817625  1.0000
  C   C18       1.0  0.3029713254885279  0.0877116145431813  0.4591295148731831  1.0000
  C   C19       1.0  0.6964060779122221  0.7437023478431115  0.5420628261801284  1.0000
  C   C20       1.0  0.30358889788546145  0.2562969713423158  0.45793844308266074  1.0000
  C   C21       1.0  0.7509737705122388  0.656973504452921  0.4451797502961909  1.0000
  C   C22       1.0  0.2490212097679744  0.3430258247522601  0.5548232647918638  1.0000
  Br  Br1       1.0  0.820594153568649  0.6063933973239912  0.009848434156118831  1.0000
  Br  Br2       1.0  0.17940463745214433  0.3936004364418794  0.9901539046731004  1.0000
  Br  Br3       1.0  0.241589222113035  0.6106949606161295  0.3353300451870069  1.0000
  Br  Br4       1.0  0.7584019830768155  0.3893043682963651  0.6646762688935653  1.0000
  N   N1        1.0  0.6626088374691435  0.26869808642173604  0.19517955389149222  1.0000
  N   N2        1.0  0.33738800137732744  0.731305359718924  0.8048189717374115  1.0000
  N   N3        1.0  0.8615815141307265  0.9556662039153564  0.2525045777116972  1.0000
  N   N4        1.0  0.1384191444213769  0.0443317668254863  0.7474967633088953  1.0000
  N   N5        1.0  0.8040278682325023  0.7270207801416931  0.351282496602721  1.0000
  N   N6        1.0  0.1959689906803419  0.2729799231428416  0.6487182133056564  1.0000
