data_image0
_chemical_formula_structural       Gd4H20C40O36
_chemical_formula_sum              "Gd4 H20 C40 O36"
_cell_length_a       7.118691509294274
_cell_length_b       8.780589867632758
_cell_length_c       18.046353651652144
_cell_angle_alpha    100.96090663356165
_cell_angle_beta     89.9999999387942
_cell_angle_gamma    90.00004116169019

_space_group_name_H-M_alt    "P 1"
_space_group_IT_number       1

loop_
  _space_group_symop_operation_xyz
  'x, y, z'

loop_
  _atom_site_type_symbol
  _atom_site_label
  _atom_site_symmetry_multiplicity
  _atom_site_fract_x
  _atom_site_fract_y
  _atom_site_fract_z
  _atom_site_occupancy
  Gd  Gd1       1.0  0.5272270264200216  0.8513381047329744  0.7549489829477452  1.0000
  Gd  Gd2       1.0  0.027228831396122605  0.6486631658026241  0.7450495893465146  1.0000
  Gd  Gd3       1.0  0.47276013822315127  0.14864867230738815  0.2450534832631206  1.0000
  Gd  Gd4       1.0  0.9727555238710794  0.3513371269987502  0.2549429309611142  1.0000
  H   H1        1.0  0.5029564613749358  0.16300298721033363  0.7118837587703626  1.0000
  H   H2        1.0  0.002952355445451401  0.337007578376202  0.7881243950109467  1.0000
  H   H3        1.0  0.4970503694034392  0.8370006318868733  0.2881367523552427  1.0000
  H   H4        1.0  0.9970460473665598  0.6629892348982835  0.21186783227948072  1.0000
  H   H5        1.0  0.3463155296177831  0.16985699974416243  0.7749213741164312  1.0000
  H   H6        1.0  0.8463206154779926  0.3301471602792176  0.7250821396609342  1.0000
  H   H7        1.0  0.6536772537591702  0.830137199477072  0.22509446410914088  1.0000
  H   H8        1.0  0.1536707635441772  0.6698508530857198  0.2749112971089502  1.0000
  H   H9        1.0  0.9327515542547361  0.2732764324908601  0.9264710422570988  1.0000
  H   H10       1.0  0.4327492242913849  0.2267346681999811  0.5735435342982174  1.0000
  H   H11       1.0  0.0672693248498888  0.7266843244728134  0.07351537724898799  1.0000
  H   H12       1.0  0.5672379393029703  0.7733138106625503  0.42650236928608365  1.0000
  H   H13       1.0  0.842368621629291  0.5223975966483679  0.4777125221182389  1.0000
  H   H14       1.0  0.3423661665370404  0.9776077908314349  0.022279169542066792  1.0000
  H   H15       1.0  0.15764242400577194  0.4776874593088963  0.5222577640825322  1.0000
  H   H16       1.0  0.6576392598777048  0.022320497526656914  0.9777366595949959  1.0000
  H   H17       1.0  0.6696758691879765  0.6996479598332357  0.9451675205003058  1.0000
  H   H18       1.0  0.16966661377671952  0.8003546952032535  0.5548347674240333  1.0000
  H   H19       1.0  0.33032112906271044  0.3003163571304269  0.05482141562015391  1.0000
  H   H20       1.0  0.8303163360985621  0.19968699798490522  0.4451834082463081  1.0000
  C   C1        1.0  0.3422243094549628  0.5422777627498334  0.6491156441029277  1.0000
  C   C2        1.0  0.8422209214440316  0.9577179661351989  0.8508770876283054  1.0000
  C   C3        1.0  0.6577909507452802  0.4577263845995533  0.3508555866699156  1.0000
  C   C4        1.0  0.1577915285589669  0.0422599950870932  0.14913738303289392  1.0000
  C   C5        1.0  0.43109185410806833  0.5188723828835862  0.573192785537927  1.0000
  C   C6        1.0  0.9310925017122571  0.9811369054880145  0.9268016047821206  1.0000
  C   C7        1.0  0.5689149771944886  0.4811967570368055  0.42678502753793884  1.0000
  C   C8        1.0  0.0689157342346576  0.018808539281444304  0.07320901879250391  1.0000
  C   C9        1.0  0.6247118680467878  0.5320919886558285  0.5615587655076197  1.0000
  C   C10       1.0  0.12470959524020493  0.9679203979778775  0.9384357675297114  1.0000
  C   C11       1.0  0.3752963681051966  0.46796893158033015  0.4384155842215095  1.0000
  C   C12       1.0  0.8752972358211081  0.032037926058748716  0.06157926605015972  1.0000
  C   C13       1.0  0.7602312634509688  0.5611771992013601  0.6255418689462005  1.0000
  C   C14       1.0  0.260230179253412  0.938830609568953  0.8744530662475117  1.0000
  C   C15       1.0  0.23977416313785233  0.4388666250114924  0.37443935406749074  1.0000
  C   C16       1.0  0.7397766518673025  0.061129893288985195  0.1255582713563328  1.0000
  C   C17       1.0  0.6923240434054562  0.5130753759374896  0.48785599650089756  1.0000
  C   C18       1.0  0.1923204827090359  0.9869356988701414  0.0121375188655861  1.0000
  C   C19       1.0  0.3076841926974154  0.48700170186881314  0.5121174972277417  1.0000
  C   C20       1.0  0.8076863484052693  0.013007607330386918  0.9878779124951934  1.0000
  C   C21       1.0  0.36769253074263014  0.5953768875591126  0.8629597878639717  1.0000
  C   C22       1.0  0.8676848128528293  0.9046310318160948  0.6370440944328097  1.0000
  C   C23       1.0  0.6323157055645723  0.4045827698722491  0.137028201634898  1.0000
  C   C24       1.0  0.1323009466179599  0.0954036015575639  0.3629707155832023  1.0000
  C   C25       1.0  0.5969615649595994  0.6118098107682641  0.9696336897992738  1.0000
  C   C26       1.0  0.0969454824653937  0.8882037069735914  0.5303668734951685  1.0000
  C   C27       1.0  0.4030466713126871  0.3881671238379383  0.0303524295721544  1.0000
  C   C28       1.0  0.9030332532387888  0.11183896489477972  0.46964639668276936  1.0000
  C   C29       1.0  0.4384572914326625  0.5401207589457897  0.932122178804022  1.0000
  C   C30       1.0  0.9384390375341312  0.9598959373641023  0.5678834082240486  1.0000
  C   C31       1.0  0.5615537542504186  0.4598620957661907  0.06786776445978401  1.0000
  C   C32       1.0  0.06152846004251701  0.040145796013128204  0.43213587921026436  1.0000
  C   C33       1.0  0.3419759769589917  0.4261135089089835  0.9623953596125292  1.0000
  C   C34       1.0  0.8419717737456266  0.0738915906589668  0.5376032201375551  1.0000
  C   C35       1.0  0.6580182119118875  0.5738448275608333  0.03758808489342869  1.0000
  C   C36       1.0  0.15800274765442876  0.9261557609027163  0.462411552592414  1.0000
  C   C37       1.0  0.18366011546738292  0.3390044628663276  0.9187418641582569  1.0000
  C   C38       1.0  0.6836578166990962  0.161001750945104  0.5812619855520469  1.0000
  C   C39       1.0  0.8163382875229247  0.6609621738304624  0.08124726734239121  1.0000
  C   C40       1.0  0.31632794262576164  0.8390297249080375  0.41876142591853954  1.0000
  O   O1        1.0  0.41605126750182125  0.099357332291234  0.7353891770394796  1.0000
  O   O2        1.0  0.9160543290995307  0.4006496753373838  0.7646122108515598  1.0000
  O   O3        1.0  0.583949944387797  0.9006391665654192  0.2646263006819822  1.0000
  O   O4        1.0  0.08394969278205623  0.5993493167837302  0.23537632048130774  1.0000
  O   O5        1.0  0.3137193113834087  0.6868541538642036  0.6807595456433122  1.0000
  O   O6        1.0  0.8137238707171406  0.8131415395614994  0.8192391137691148  1.0000
  O   O7        1.0  0.6862678533101418  0.31312908319790006  0.3192409597820784  1.0000
  O   O8        1.0  0.18627453200060273  0.1868520155456963  0.18075893543903732  1.0000
  O   O9        1.0  0.7008677683511949  0.6169609831463917  0.6926825158970544  1.0000
  O   O10       1.0  0.20087241789813254  0.8830417920532482  0.807315529797485  1.0000
  O   O11       1.0  0.2991193964920882  0.3830540859514855  0.3073029357504496  1.0000
  O   O12       1.0  0.7991203656467576  0.11693142898005252  0.19269577051109377  1.0000
  O   O13       1.0  0.48802132828357264  0.6497202092278299  0.823779314827469  1.0000
  O   O14       1.0  0.9880126020620708  0.8502828343250499  0.6762204225316071  1.0000
  O   O15       1.0  0.5119869080094189  0.3502383285988416  0.17620968879835894  1.0000
  O   O16       1.0  0.011973157487503302  0.1497504982797224  0.32379039844501994  1.0000
  O   O17       1.0  0.19090046570214275  0.5887230428207461  0.8504855225105034  1.0000
  O   O18       1.0  0.6908950438581983  0.911282103129615  0.6495165443760983  1.0000
  O   O19       1.0  0.8091105801566059  0.4112502914317914  0.1494969683625698  1.0000
  O   O20       1.0  0.3090893109582283  0.0887385716182294  0.3504959815671286  1.0000
  O   O21       1.0  0.9327113317619363  0.5314129972200377  0.6137591236230692  1.0000
  O   O22       1.0  0.43271097862839275  0.9685963862609626  0.8862375009658765  1.0000
  O   O23       1.0  0.0672926900265765  0.46862288910689637  0.38622641873784863  1.0000
  O   O24       1.0  0.5672944478030573  0.03136743514600231  0.1137696824377343  1.0000
  O   O25       1.0  0.276210728332245  0.4324236080655409  0.6754773656815731  1.0000
  O   O26       1.0  0.7762086372797015  0.06756549847010261  0.8245106174275068  1.0000
  O   O27       1.0  0.7238256038588136  0.5675332792806387  0.3244660536321433  1.0000
  O   O28       1.0  0.22382207412788088  0.9324418821358833  0.17551796954311535  1.0000
  O   O29       1.0  0.026136050949176603  0.3373257437717996  0.9588773762328489  1.0000
  O   O30       1.0  0.5261183617799645  0.1626861502778922  0.5411299157059375  1.0000
  O   O31       1.0  0.9738876377638661  0.6626256336505776  0.041105482243331416  1.0000
  O   O32       1.0  0.47385475448394493  0.8373768632529136  0.45890224827439147  1.0000
  O   O33       1.0  0.19654178973166844  0.26988081343772313  0.8525514129336502  1.0000
  O   O34       1.0  0.6965491372963157  0.23013133596719373  0.6474535658090093  1.0000
  O   O35       1.0  0.803456613237934  0.7301042200385908  0.14743483431258406  1.0000
  O   O36       1.0  0.3034464552731322  0.7698841232656051  0.3525745930459793  1.0000
