data_image0
_chemical_formula_structural       Zn2H54C74N8O8
_chemical_formula_sum              "Zn2 H54 C74 N8 O8"
_cell_length_a       10.919814497572148
_cell_length_b       18.32448040964378
_cell_length_c       19.218722753324883
_cell_angle_alpha    89.06479032689788
_cell_angle_beta     89.09693803789011
_cell_angle_gamma    88.8780127765394

_space_group_name_H-M_alt    "P 1"
_space_group_IT_number       1

loop_
  _space_group_symop_operation_xyz
  'x, y, z'

loop_
  _atom_site_type_symbol
  _atom_site_label
  _atom_site_symmetry_multiplicity
  _atom_site_fract_x
  _atom_site_fract_y
  _atom_site_fract_z
  _atom_site_occupancy
  Zn  Zn1       1.0  0.48549289499941034  0.5778163981437386  0.49743668258008716  1.0000
  Zn  Zn2       1.0  0.48176699601745543  0.4239864543660445  0.49626825492281057  1.0000
  H   H1        1.0  0.7414121060090223  0.16879348174152398  0.5905254527207758  1.0000
  H   H2        1.0  0.2292285378635981  0.8238333799529655  0.4058569178813514  1.0000
  H   H3        1.0  0.7481669697244229  0.40103687195141186  0.6228404511358718  1.0000
  H   H4        1.0  0.1998764421172652  0.5919344261041388  0.3767890725384149  1.0000
  H   H5        1.0  0.9707609823640837  0.30508186157189227  0.4602824129799856  1.0000
  H   H6        1.0  0.016637495977533907  0.6935064160002467  0.5511121786425903  1.0000
  H   H7        1.0  0.8942003210565234  0.18237110043540378  0.49307799879292696  1.0000
  H   H8        1.0  0.09776013200382039  0.8140665733566903  0.5131317642566343  1.0000
  H   H9        1.0  0.1009260931496243  0.38908558356994405  0.5401781619065176  1.0000
  H   H10       1.0  0.8656776424203445  0.6085955566859409  0.467437644472362  1.0000
  H   H11       1.0  0.4501557838373884  0.40739284650558005  0.7296660655255849  1.0000
  H   H12       1.0  0.579139509457235  0.6195587331311643  0.2895214941119661  1.0000
  H   H13       1.0  0.486096646432955  0.41409498542820694  0.8569371857224723  1.0000
  H   H14       1.0  0.6476670611412486  0.6210773632913983  0.1652636059606394  1.0000
  H   H15       1.0  0.7518514353673209  0.5807885368847678  0.8191505916967827  1.0000
  H   H16       1.0  0.5008926280916555  0.4070189823865035  0.1415549568260417  1.0000
  H   H17       1.0  0.3924406282980827  0.8342807988505924  0.6008944984615923  1.0000
  H   H18       1.0  0.6042506397222097  0.16839148972704981  0.4004544588471646  1.0000
  H   H19       1.0  0.5815841520207385  0.8286801049018491  0.4014926316289262  1.0000
  H   H20       1.0  0.3776105264334645  0.17365201203574543  0.5872502057309603  1.0000
  H   H21       1.0  0.5711987883713262  0.6926556519692538  0.4085007749654253  1.0000
  H   H22       1.0  0.3804768935501883  0.3092295720404508  0.5782684745071407  1.0000
  H   H23       1.0  0.6719251683194613  0.9308909983944105  0.45479136684397053  1.0000
  H   H24       1.0  0.30689048710377886  0.07093585274348159  0.5401520980702016  1.0000
  H   H25       1.0  0.6726800703802667  0.0654879393760268  0.45205243423267655  1.0000
  H   H26       1.0  0.30708232602734853  0.9363919520627063  0.5439968501990151  1.0000
  H   H27       1.0  0.3966781105384669  0.6939161142321095  0.7946584153189562  1.0000
  H   H28       1.0  0.3270671746636893  0.7309488079535027  0.8706042811499587  1.0000
  H   H29       1.0  0.4543224329760278  0.7748746835116477  0.8308094570454543  1.0000
  H   H30       1.0  0.5214719075924208  0.7040947653507814  0.9375006561681404  1.0000
  H   H31       1.0  0.5912011526916671  0.6681412090704199  0.8620726935939587  1.0000
  H   H32       1.0  0.43425027918155473  0.5714117978363759  0.8582484712412465  1.0000
  H   H33       1.0  0.3598878680486023  0.6069851436846745  0.9319886099954715  1.0000
  H   H34       1.0  0.9423919905497442  0.42628188305288717  0.2027348976450867  1.0000
  H   H35       1.0  0.0283977884718496  0.3979558319813847  0.128540973504208  1.0000
  H   H36       1.0  0.062287137394392324  0.48131960886546915  0.1690336429953874  1.0000
  H   H37       1.0  0.9424587473441334  0.506339567221616  0.0598510216557671  1.0000
  H   H38       1.0  0.8570185750849645  0.5340991887651468  0.133603956005544  1.0000
  H   H39       1.0  0.744351632785282  0.4168904775361923  0.1345513543937216  1.0000
  H   H40       1.0  0.8306344092919105  0.3871229024366372  0.062372704903808106  1.0000
  H   H41       1.0  0.2320767341434689  0.6406643068192536  0.1517705451683398  1.0000
  H   H42       1.0  0.18478945649382436  0.6646841177144864  0.0663897499348636  1.0000
  H   H43       1.0  0.1165812202803522  0.5899150585726928  0.1110609722368494  1.0000
  H   H44       1.0  0.2711601852462806  0.5439058513205663  0.022698134191635695  1.0000
  H   H45       1.0  0.3179245490158422  0.5204546673117247  0.1075006865802663  1.0000
  H   H46       1.0  0.4537876533096608  0.6278501196349068  0.1086069223396322  1.0000
  H   H47       1.0  0.40639348260562247  0.6547968163419071  0.0254330336715611  1.0000
  H   H48       1.0  0.6059991859552483  0.32931280953586384  0.9097752079188266  1.0000
  H   H49       1.0  0.7057248565238226  0.32724762809461067  0.8360873067492917  1.0000
  H   H50       1.0  0.6963488301277394  0.25015933068809193  0.8926648207107775  1.0000
  H   H51       1.0  0.8869582822933354  0.31512866987727506  0.9176361761260238  1.0000
  H   H52       1.0  0.7851516951103007  0.32042369832921486  0.9892627577977251  1.0000
  H   H53       1.0  0.8237677935784188  0.44038849638202016  0.8780030151692699  1.0000
  H   H54       1.0  0.8982552462498816  0.436268471437664  0.9583415645909383  1.0000
  C   C1        1.0  0.4751038682162232  0.5125767318202817  0.3625400183634113  1.0000
  C   C2        1.0  0.5329274446476546  0.4949882487528753  0.6289740664814117  1.0000
  C   C3        1.0  0.7200952668144326  0.4996300246349391  0.48683946503763303  1.0000
  C   C4        1.0  0.24854736429531948  0.4967485814335361  0.5116451639639337  1.0000
  C   C5        1.0  0.7359631180062535  0.28449934254741277  0.6120791519968662  1.0000
  C   C6        1.0  0.22234739535548437  0.7081841332025007  0.3850993946821575  1.0000
  C   C7        1.0  0.7809069790493267  0.353620510853595  0.5942002519810927  1.0000
  C   C8        1.0  0.1768643864359944  0.6403150181681736  0.4067689306406237  1.0000
  C   C9        1.0  0.8656650178638045  0.36157120474749144  0.5392461159886751  1.0000
  C   C10       1.0  0.1028600070798547  0.6348410060502019  0.4666468934120688  1.0000
  C   C11       1.0  0.9058197576525799  0.2990733505924154  0.5035801283067727  1.0000
  C   C12       1.0  0.07446607303246819  0.6979617127254796  0.5044496861927499  1.0000
  C   C13       1.0  0.8618952009069644  0.23008452632121382  0.5217579125936922  1.0000
  C   C14       1.0  0.12041287707381093  0.7655205671796279  0.48304659627374497  1.0000
  C   C15       1.0  0.7768734549196026  0.22214043086547255  0.5758104901477593  1.0000
  C   C16       1.0  0.19400211412611407  0.7713309208798477  0.4234926341179772  1.0000
  C   C17       1.0  0.047691447296415404  0.437117658965228  0.5239471375819917  1.0000
  C   C18       1.0  0.9191506494429474  0.5608151048314624  0.48398866691891124  1.0000
  C   C19       1.0  0.11167209820320065  0.5006829256818718  0.5076130436682221  1.0000
  C   C20       1.0  0.8553610323027598  0.49684188956327074  0.49853487523434836  1.0000
  C   C21       1.0  0.04642136873416549  0.5644910368624209  0.4875218450727345  1.0000
  C   C22       1.0  0.9202644369264448  0.4332036165435794  0.5203799349752741  1.0000
  C   C23       1.0  0.514622232924971  0.4459955679623703  0.7499312267605021  1.0000
  C   C24       1.0  0.5647186340975239  0.5726241586598204  0.2569007238067655  1.0000
  C   C25       1.0  0.5365726917579465  0.44910621683528235  0.8207582178690912  1.0000
  C   C26       1.0  0.6020935401702728  0.5733961317461721  0.18736378560293326  1.0000
  C   C27       1.0  0.6200052040473947  0.4985404769264431  0.8471610403593103  1.0000
  C   C28       1.0  0.5783397656284066  0.5142373520483757  0.1445960337992744  1.0000
  C   C29       1.0  0.6843692862816937  0.5431399803606495  0.8002308971312003  1.0000
  C   C30       1.0  0.5206951194350039  0.45331697209756777  0.174153596986784  1.0000
  C   C31       1.0  0.6592783529799747  0.5425665757335308  0.7285831403026677  1.0000
  C   C32       1.0  0.48643866278601416  0.4509349863640891  0.2448514551833512  1.0000
  C   C33       1.0  0.5716024462662331  0.4942216873176831  0.7033062713226172  1.0000
  C   C34       1.0  0.5070307022749745  0.5120555187534916  0.286711893144414  1.0000
  C   C35       1.0  0.5337856910068624  0.5541346069021813  0.9534492839829909  1.0000
  C   C36       1.0  0.698499296133953  0.47319208359581194  0.0389694932876949  1.0000
  C   C37       1.0  0.5231604219651231  0.5589775224108278  0.026297778631793296  1.0000
  C   C38       1.0  0.7093980650474094  0.46830071231769205  0.9658059380599012  1.0000
  C   C39       1.0  0.6029133731695991  0.516245914222253  0.0681068939121658  1.0000
  C   C40       1.0  0.6245543204788219  0.5073583663541112  0.9241877528173462  1.0000
  C   C41       1.0  0.4303744325586293  0.7295177503286325  0.5560251399700604  1.0000
  C   C42       1.0  0.5551618406225742  0.2728908811720813  0.4422923598966547  1.0000
  C   C43       1.0  0.4325247886256989  0.8056347149349391  0.5566110458008922  1.0000
  C   C44       1.0  0.5544672361363822  0.19674370484374035  0.4417602593543393  1.0000
  C   C45       1.0  0.48798179140743503  0.8436845429100327  0.5010612880363325  1.0000
  C   C46       1.0  0.4895032596565513  0.15848558722183267  0.49368479055900844  1.0000
  C   C47       1.0  0.539895192267295  0.8023406503418044  0.4469615225286531  1.0000
  C   C48       1.0  0.42606605664744995  0.19977750892111598  0.5439429224966829  1.0000
  C   C49       1.0  0.5340736292779695  0.726648874776643  0.45010472369938265  1.0000
  C   C50       1.0  0.428454627621555  0.27547106764077256  0.5399950089867361  1.0000
  C   C51       1.0  0.5911942910266461  0.9615257964879756  0.4727884193883227  1.0000
  C   C52       1.0  0.38794590378466143  0.04045158034310249  0.5224637051648671  1.0000
  C   C53       1.0  0.5914428973264448  0.037378833603305794  0.47120311067185133  1.0000
  C   C54       1.0  0.3879838139225739  0.9646539783100393  0.5245531707304848  1.0000
  C   C55       1.0  0.48968300382426105  0.07809908499479688  0.495731467024207  1.0000
  C   C56       1.0  0.489397201457578  0.9240201776012495  0.4995588993561171  1.0000
  C   C57       1.0  0.7255014425724935  0.5916859342653353  0.6839857659067974  1.0000
  C   C58       1.0  0.42854593319748346  0.38618796594967353  0.2702517144421179  1.0000
  C   C59       1.0  0.4504723322891664  0.5997605914745492  0.9070523297246852  1.0000
  C   C60       1.0  0.5021483175299579  0.6753814626959667  0.889048330168336  1.0000
  C   C61       1.0  0.41553893020756044  0.7213217534122405  0.8437369879541023  1.0000
  C   C62       1.0  0.7905314364867451  0.4360281463270894  0.08656404468401749  1.0000
  C   C63       1.0  0.8956293511326333  0.48570865820918374  0.10724429021610861  1.0000
  C   C64       1.0  0.98720728891616  0.44581837003303065  0.15445766438239159  1.0000
  C   C65       1.0  0.4235867228525693  0.6065151439854617  0.0587989053782323  1.0000
  C   C66       1.0  0.30203473886481197  0.5671952026345009  0.0718019391794229  1.0000
  C   C67       1.0  0.20326072856914834  0.6182442422943878  0.10199264546150738  1.0000
  C   C68       1.0  0.8120657913267877  0.4231217289753032  0.9327590471253301  1.0000
  C   C69       1.0  0.7987809650433136  0.3393450191099632  0.9351144575958301  1.0000
  C   C70       1.0  0.6963077078415694  0.3101295753868172  0.8909496183819526  1.0000
  C   C71       1.0  0.37179729191993255  0.6922391714635833  0.6132802467644609  1.0000
  C   C72       1.0  0.6292645130418038  0.3098923610577272  0.39109165744868324  1.0000
  C   C73       1.0  0.6456816923023466  0.2762150863560676  0.6660134232906927  1.0000
  C   C74       1.0  0.29782832363542866  0.713837975833286  0.3239810859965218  1.0000
  N   N1        1.0  0.48057155672030666  0.6904183355988138  0.503362296117011  1.0000
  N   N2        1.0  0.49167864249455556  0.31182666262866116  0.4904724982898117  1.0000
  N   N3        1.0  0.7855439858907117  0.6324913109940552  0.6516054434020473  1.0000
  N   N4        1.0  0.38194023305531033  0.33104357589422045  0.2849872487241853  1.0000
  N   N5        1.0  0.32122406131962583  0.6677601949342887  0.6619395539942374  1.0000
  N   N6        1.0  0.6957849777911989  0.33364147713290027  0.3487843542376012  1.0000
  N   N7        1.0  0.5698258382460254  0.2671834068466054  0.7087221225005038  1.0000
  N   N8        1.0  0.3600821591327588  0.7199138197892266  0.27424740596998015  1.0000
  O   O1        1.0  0.4632805977904725  0.5746204461326342  0.3913688385380212  1.0000
  O   O2        1.0  0.49863446495589164  0.43501364061088305  0.6039416874564907  1.0000
  O   O3        1.0  0.464857498469037  0.45090275699831744  0.3928948488250583  1.0000
  O   O4        1.0  0.5370722247267848  0.5563434308030677  0.5972961844168339  1.0000
  O   O5        1.0  0.6704926584700034  0.5616626059516604  0.47408384858722735  1.0000
  O   O6        1.0  0.297424176154685  0.43313836995381644  0.5090688232716617  1.0000
  O   O7        1.0  0.6646225149828099  0.4392001868577535  0.4905837416478178  1.0000
  O   O8        1.0  0.30543475162201617  0.5563424702595796  0.5164503128372431  1.0000
