data_image0
_chemical_formula_structural       Zn4H36C60N12O16
_chemical_formula_sum              "Zn4 H36 C60 N12 O16"
_cell_length_a       8.376480366361472
_cell_length_b       10.979924588009755
_cell_length_c       14.771185095336143
_cell_angle_alpha    89.99986753370598
_cell_angle_beta     90.05649333680184
_cell_angle_gamma    90.00007490747443

_space_group_name_H-M_alt    "P 1"
_space_group_IT_number       1

loop_
  _space_group_symop_operation_xyz
  'x, y, z'

loop_
  _atom_site_type_symbol
  _atom_site_label
  _atom_site_symmetry_multiplicity
  _atom_site_fract_x
  _atom_site_fract_y
  _atom_site_fract_z
  _atom_site_occupancy
  Zn  Zn1       1.0  0.39940151422440096  0.6506387115348887  0.4807179615887663  1.0000
  Zn  Zn2       1.0  0.1006006930403771  0.15063948801000754  0.019282076022854304  1.0000
  Zn  Zn3       1.0  0.600598800004157  0.34936163655311964  0.5192833086757889  1.0000
  Zn  Zn4       1.0  0.8994008132662117  0.849361770834811  0.9807171635971488  1.0000
  H   H1        1.0  0.6692042577316923  0.9086139127419199  0.6693457601626991  1.0000
  H   H2        1.0  0.8307942627121534  0.4086130407851982  0.8306532557010943  1.0000
  H   H3        1.0  0.3307960559169771  0.09138734610020552  0.3306548331070759  1.0000
  H   H4        1.0  0.1692000806741021  0.5913827535376656  0.16934598189428132  1.0000
  H   H5        1.0  0.21099371839744657  0.7975499263836102  0.7695160608005127  1.0000
  H   H6        1.0  0.28900453038482954  0.29754932367205095  0.7304841728468646  1.0000
  H   H7        1.0  0.7890077896503771  0.2024504217049881  0.23048520980226075  1.0000
  H   H8        1.0  0.7109933956237242  0.7024501136627564  0.2695164197480296  1.0000
  H   H9        1.0  0.4882090584033635  0.0590720822662263  0.9189861099238217  1.0000
  H   H10       1.0  0.011787583082323697  0.5590685185749323  0.5810118262775179  1.0000
  H   H11       1.0  0.511788866447766  0.9409319088360207  0.08101312867916023  1.0000
  H   H12       1.0  0.9882091485239358  0.44092818650113236  0.4189880889875185  1.0000
  H   H13       1.0  0.7287643062705556  0.1418488241834552  0.8557214176629632  1.0000
  H   H14       1.0  0.7712349486528965  0.6418489640871243  0.6442787351329573  1.0000
  H   H15       1.0  0.27123481297738294  0.8581515239060665  0.14427849827537645  1.0000
  H   H16       1.0  0.2287653649926256  0.3581486517427309  0.3557218581399512  1.0000
  H   H17       1.0  0.8489115721613415  0.0181969017668777  0.8225930204461849  1.0000
  H   H18       1.0  0.6510862757590843  0.5181977307990666  0.6774073450467457  1.0000
  H   H19       1.0  0.151088741487321  0.9818043570752482  0.17740757282359004  1.0000
  H   H20       1.0  0.3489104564317742  0.48180352804128307  0.32259324720836  1.0000
  H   H21       1.0  0.07694305864409051  0.9921332184960862  0.7341652399049254  1.0000
  H   H22       1.0  0.42305791325239994  0.49213354958519784  0.765834659176946  1.0000
  H   H23       1.0  0.9230584482431681  0.007868040347681002  0.2658346767090692  1.0000
  H   H24       1.0  0.5769435947962123  0.5078677092564662  0.23416661142503875  1.0000
  H   H25       1.0  0.27990227857794986  0.014002929159836704  0.6117912799915218  1.0000
  H   H26       1.0  0.2200978672472118  0.5140031728455553  0.8882074118633556  1.0000
  H   H27       1.0  0.7200956456885805  0.9859965081781185  0.3882072816213837  1.0000
  H   H28       1.0  0.7799072222599932  0.4859989967509507  0.11179385975250976  1.0000
  H   H29       1.0  0.23053870211271738  0.1422999866059484  0.4776308566288351  1.0000
  H   H30       1.0  0.26946110255687467  0.642301413518858  0.02236851767829511  1.0000
  H   H31       1.0  0.7694604165529738  0.8576985399784859  0.5223683823170762  1.0000
  H   H32       1.0  0.7305427925511694  0.35770166683116866  0.9776320766045717  1.0000
  H   H33       1.0  0.9684656721186612  0.2503402884212136  0.456645180464058  1.0000
  H   H34       1.0  0.5315344001607869  0.7503414148044032  0.043354335256914615  1.0000
  H   H35       1.0  0.03153225214708749  0.7496582381636757  0.543353381149636  1.0000
  H   H36       1.0  0.46847307698418217  0.24965984404021668  0.9566469370361834  1.0000
  C   C1        1.0  0.5962881136277929  0.9922253659157579  0.7958396062901799  1.0000
  C   C2        1.0  0.9037129380261674  0.49222495834693103  0.7041585892042409  1.0000
  C   C3        1.0  0.40371339325947275  0.0077758929280094015  0.20416031032381454  1.0000
  C   C4        1.0  0.09628498623879979  0.5077726574848926  0.29583997241023513  1.0000
  C   C5        1.0  0.5776856359831654  0.9141065380461343  0.7216954549208057  1.0000
  C   C6        1.0  0.9223117006919568  0.41410591898016247  0.7783042281354756  1.0000
  C   C7        1.0  0.422314677665497  0.08589472079599153  0.2783051383489622  1.0000
  C   C8        1.0  0.0776838365151349  0.58589169684943  0.22169500979654808  1.0000
  C   C9        1.0  0.4392481378961079  0.844054090594348  0.7121844737377004  1.0000
  C   C10       1.0  0.0607489966630155  0.3440539949794541  0.787815002456526  1.0000
  C   C11       1.0  0.560753368990369  0.15594625749635332  0.2878154428770828  1.0000
  C   C12       1.0  0.9392453478861639  0.6559436208474523  0.21218558912526936  1.0000
  C   C13       1.0  0.31924317579619543  0.8513053455314934  0.7777213832441067  1.0000
  C   C14       1.0  0.18075277686492092  0.351305571890471  0.7222774031246788  1.0000
  C   C15       1.0  0.6807571372710156  0.1486950025586182  0.2222785330324514  1.0000
  C   C16       1.0  0.8192439547436905  0.6486938654447985  0.2777225121379986  1.0000
  C   C17       1.0  0.3374542506754494  0.9285389209173689  0.8520644606738446  1.0000
  C   C18       1.0  0.16254422277876296  0.42853753826883434  0.6479341933095883  1.0000
  C   C19       1.0  0.6625460623925363  0.0714623379258015  0.14793545560193172  1.0000
  C   C20       1.0  0.8374525076669244  0.5714600775623994  0.35206436796666923  1.0000
  C   C21       1.0  0.47645604947161496  0.9984647746508343  0.8611375868300899  1.0000
  C   C22       1.0  0.023541350720172695  0.49846328257589806  0.63886094634227  1.0000
  C   C23       1.0  0.5235442635963707  0.0015364841923429  0.1388623294456863  1.0000
  C   C24       1.0  0.9764541864869191  0.5015343332536946  0.36113829158976074  1.0000
  C   C25       1.0  0.7429619258615217  0.07146409322259471  0.8037465913191328  1.0000
  C   C26       1.0  0.7570372077137077  0.5714640579147741  0.6962536827404693  1.0000
  C   C27       1.0  0.25703838778636606  0.928536254866458  0.19625400195142365  1.0000
  C   C28       1.0  0.24296191153266014  0.42853446866860884  0.3037462331994335  1.0000
  C   C29       1.0  0.882571249918094  0.18766019598152892  0.5871446332253214  1.0000
  C   C30       1.0  0.6174304710450899  0.68766026164014  0.9128547643262127  1.0000
  C   C31       1.0  0.117429062567652  0.8123392413565612  0.41285460605803354  1.0000
  C   C32       1.0  0.38257461787986813  0.3123400864512789  0.08714583029723143  1.0000
  C   C33       1.0  0.9132144179575121  0.11472516478933414  0.6640287350779206  1.0000
  C   C34       1.0  0.5867859840215033  0.6147245277661286  0.835971464787349  1.0000
  C   C35       1.0  0.08678470129041929  0.8852751833001805  0.3359711808604119  1.0000
  C   C36       1.0  0.41321791166486577  0.38527582032364915  0.16402980649186827  1.0000
  C   C37       1.0  0.05504331620845449  0.04872609153355259  0.6748836225450676  1.0000
  C   C38       1.0  0.44495689006284067  0.5487267533778138  0.8251156864800537  1.0000
  C   C39       1.0  0.9449569968579681  0.9512733458034861  0.325116293732279  1.0000
  C   C40       1.0  0.5550458118050371  0.4512745054644471  0.1748855844601566  1.0000
  C   C41       1.0  0.16614072030311178  0.06139847149926681  0.6059896678306347  1.0000
  C   C42       1.0  0.3338583139966858  0.5613988097753692  0.8940096190237203  1.0000
  C   C43       1.0  0.8338572039634257  0.9386009658386882  0.39400889378227083  1.0000
  C   C44       1.0  0.6661455822711416  0.43860244906642987  0.10599232924870713  1.0000
  C   C45       1.0  0.13691292130585708  0.1342515365198551  0.5285223983560743  1.0000
  C   C46       1.0  0.36308623801673423  0.6342516635151726  0.9714760859883217  1.0000
  C   C47       1.0  0.8630850029606734  0.8657479008181072  0.47147616325683844  1.0000
  C   C48       1.0  0.6369188509090121  0.36574959532931933  0.028524508634333808  1.0000
  C   C49       1.0  0.9948553981661162  0.19715587182854225  0.5169647291873007  1.0000
  C   C50       1.0  0.5051451453487062  0.697155608757143  0.9830346516665005  1.0000
  C   C51       1.0  0.0051425266810908995  0.8028435655083684  0.4830345094196036  1.0000
  C   C52       1.0  0.4948611379762013  0.3028447393338141  0.016966620289160503  1.0000
  C   C53       1.0  0.41095052779444075  0.7660318087744644  0.6309311713061805  1.0000
  C   C54       1.0  0.0890464722479649  0.26603057846406136  0.8690684393110433  1.0000
  C   C55       1.0  0.5890497852727633  0.2339685393156401  0.3690687449703774  1.0000
  C   C56       1.0  0.9109514531791304  0.7339679481187247  0.13093147629064117  1.0000
  C   C57       1.0  0.2029643566436548  0.9433494197493604  0.9172134044247289  1.0000
  C   C58       1.0  0.2970341435080782  0.44335019370996076  0.5827865780283192  1.0000
  C   C59       1.0  0.7970359570057967  0.056652749845831386  0.08278718884425733  1.0000
  C   C60       1.0  0.7029637819221578  0.5566519758850959  0.41721333757023177  1.0000
  N   N1        1.0  0.780815554629605  0.1299245744558206  0.7174127951203604  1.0000
  N   N2        1.0  0.7191848735552709  0.6299251447414848  0.7825873785573025  1.0000
  N   N3        1.0  0.21918475843760626  0.8700757736342837  0.2825871211561975  1.0000
  N   N4        1.0  0.28081663333120593  0.3700752033492165  0.21741253805747365  1.0000
  N   N5        1.0  0.675318009053143  0.20524295029618136  0.6786425466373631  1.0000
  N   N6        1.0  0.8246825484042758  0.7052425940161771  0.821356820283562  1.0000
  N   N7        1.0  0.3246811101947955  0.7947573977933403  0.3213573693009764  1.0000
  N   N8        1.0  0.17532134611995787  0.294756843322631  0.17864309700844677  1.0000
  N   N9        1.0  0.7349239522051363  0.2404555469790992  0.6003786066581328  1.0000
  N   N10       1.0  0.7650766659625106  0.7404567105409684  0.8996206995948557  1.0000
  N   N11       1.0  0.2650751664613367  0.7595438903584011  0.39962063228698963  1.0000
  N   N12       1.0  0.23492961620026157  0.25954272679902607  0.10037921837359683  1.0000
  O   O1        1.0  0.5261536396481999  0.7501047053399078  0.5733922679633638  1.0000
  O   O2        1.0  0.9738458001696061  0.2501000344116378  0.9266056673442269  1.0000
  O   O3        1.0  0.47384667167933964  0.249898375012549  0.4266056173288605  1.0000
  O   O4        1.0  0.026152124673672  0.7498948491599365  0.07339357126659962  1.0000
  O   O5        1.0  0.2754248530583823  0.7190132227679059  0.6187285907617126  1.0000
  O   O6        1.0  0.22457445355782824  0.21901026723472938  0.8812711015402147  1.0000
  O   O7        1.0  0.7245790420457396  0.2809853038167915  0.3812720035250764  1.0000
  O   O8        1.0  0.775423473032184  0.7809900808520995  0.11873016804789674  1.0000
  O   O9        1.0  0.0676881996165264  0.9004219560557445  0.8924912441334104  1.0000
  O   O10       1.0  0.43231141976476556  0.4004236979862341  0.6075081356213377  1.0000
  O   O11       1.0  0.9323121134506777  0.0995783920343598  0.10750867214314752  1.0000
  O   O12       1.0  0.567686505084012  0.5995775608568082  0.3924911029839962  1.0000
  O   O13       1.0  0.2276901530098527  0.9994589915843337  0.9916375540266887  1.0000
  O   O14       1.0  0.27230844387721476  0.4994581503404234  0.5083623317584129  1.0000
  O   O15       1.0  0.7723077724195946  0.0005422672576572002  0.008362361572643803  1.0000
  O   O16       1.0  0.7276894832934742  0.5005421977453537  0.49163961482369006  1.0000
