data_image0
_chemical_formula_structural       Zr6H40C52N10O36
_chemical_formula_sum              "Zr6 H40 C52 N10 O36"
_cell_length_a       14.769880466525805
_cell_length_b       14.752532280566106
_cell_length_c       14.753046095889509
_cell_angle_alpha    60.440923009317544
_cell_angle_beta     60.05948374604055
_cell_angle_gamma    60.255609577802126

_space_group_name_H-M_alt    "P 1"
_space_group_IT_number       1

loop_
  _space_group_symop_operation_xyz
  'x, y, z'

loop_
  _atom_site_type_symbol
  _atom_site_label
  _atom_site_symmetry_multiplicity
  _atom_site_fract_x
  _atom_site_fract_y
  _atom_site_fract_z
  _atom_site_occupancy
  Zr  Zr1       1.0  0.8772232498745325  0.8855552778113346  0.6207093262704645  1.0000
  Zr  Zr2       1.0  0.11813868674322242  0.11978273850647976  0.38725138451003716  1.0000
  Zr  Zr3       1.0  0.11557563505783025  0.8826361600629581  0.6256015556051295  1.0000
  Zr  Zr4       1.0  0.880574559239129  0.12214139923683102  0.3826861678379457  1.0000
  Zr  Zr5       1.0  0.11869486749770905  0.8822611688764184  0.3856738446590738  1.0000
  Zr  Zr6       1.0  0.8792663484220357  0.12264156157362283  0.6233098109126586  1.0000
  H   H1        1.0  0.09065322613070512  0.7203364295751626  0.5949026045185801  1.0000
  H   H2        1.0  0.09630047241623171  0.09139875728743622  0.22190984934594837  1.0000
  H   H3        1.0  0.09086875760588949  0.09737476819126567  0.6009521521403941  1.0000
  H   H4        1.0  0.7161463585723313  0.0991217526965044  0.5961934164258551  1.0000
  H   H5        1.0  0.14031584213110193  0.5928987232692292  0.36443489829916587  1.0000
  H   H6        1.0  0.8243234496254676  0.45377883626510146  0.5931307552069711  1.0000
  H   H7        1.0  0.5855432763599708  0.1476762096753814  0.9093884731738058  1.0000
  H   H8        1.0  0.4147883888857607  0.8572487278399803  0.10153695360679639  1.0000
  H   H9        1.0  0.834916227526911  0.10367714316323867  0.1300156730865324  1.0000
  H   H10       1.0  0.13061207094226313  0.8487013760261275  0.9225808131450322  1.0000
  H   H11       1.0  0.5937099010293636  0.4142865155055588  0.36136733320781633  1.0000
  H   H12       1.0  0.4097699201478308  0.5950442499539219  0.644056296153792  1.0000
  H   H13       1.0  0.9856925242603726  0.5769371200787602  0.7344792419410028  1.0000
  H   H14       1.0  0.9725792779565835  0.2410446615438602  0.06928260974077453  1.0000
  H   H15       1.0  0.5975416412183916  0.8583067153676468  0.6337995123221346  1.0000
  H   H16       1.0  0.40520533166883865  0.14084487230113038  0.36535628778753443  1.0000
  H   H17       1.0  0.17791361510008846  0.35047953774376583  0.32919961354154026  1.0000
  H   H18       1.0  0.22541019482038388  0.4576783852656164  0.2781769339058542  1.0000
  H   H19       1.0  0.7917381130695917  0.6934218493857782  0.6295252324715435  1.0000
  H   H20       1.0  0.7409304281312997  0.5902529038419645  0.6780638567889951  1.0000
  H   H21       1.0  0.35059946444251017  0.1762449132577046  0.1589435266484358  1.0000
  H   H22       1.0  0.45398793431051837  0.2300275019134616  0.048495825182129575  1.0000
  H   H23       1.0  0.664333628042492  0.8147903540294975  0.86782149727874  1.0000
  H   H24       1.0  0.5646982027178636  0.7602156436989632  0.9799528127033315  1.0000
  H   H25       1.0  0.7996997092051289  0.14174850298405045  0.8878405375106482  1.0000
  H   H26       1.0  0.7316659656088476  0.160716774899754  0.013169329625043193  1.0000
  H   H27       1.0  0.15914277917889322  0.8017452985532925  0.17337843124516175  1.0000
  H   H28       1.0  0.20466426210770539  0.7499569338802984  0.06893213224515889  1.0000
  H   H29       1.0  0.3586992931983274  0.6610617655960738  0.32222996863751513  1.0000
  H   H30       1.0  0.4692849118901777  0.5595396869768479  0.26781787662681455  1.0000
  H   H31       1.0  0.66265896118626  0.36660103437786506  0.6647304112243901  1.0000
  H   H32       1.0  0.5615508183253582  0.47707624716207403  0.7098448759105126  1.0000
  H   H33       1.0  0.3678237271839183  0.8094345028386697  0.6600994038264715  1.0000
  H   H34       1.0  0.48185510149930627  0.7564911989373683  0.6988241032008206  1.0000
  H   H35       1.0  0.6539904933117526  0.17270172273452278  0.3199169224276659  1.0000
  H   H36       1.0  0.5480309500935121  0.21952999445878854  0.2703341873707003  1.0000
  H   H37       1.0  0.07796024660903808  0.3971388739824704  0.20544439914939963  1.0000
  H   H38       1.0  0.0726262472932861  0.7087935401863064  0.9043679580958467  1.0000
  H   H39       1.0  0.9905763628607432  0.33590822087032995  0.7315573146534077  1.0000
  H   H40       1.0  0.9026860947588915  0.22861180216363405  0.9122058703564161  1.0000
  C   C1        1.0  0.9860496712491835  0.709806894534253  0.4917146541949574  1.0000
  C   C2        1.0  0.3076015313166209  0.0014859161715676855  0.20357869233523468  1.0000
  C   C3        1.0  0.9945957744457133  0.31588454018484674  0.4925990904105645  1.0000
  C   C4        1.0  0.696077195825268  0.999953482442862  0.8107228167166837  1.0000
  C   C5        1.0  0.992883539452386  0.6985413686247098  0.8095255201077977  1.0000
  C   C6        1.0  0.6956612869034516  0.0046867372607762615  0.49645880696211  1.0000
  C   C7        1.0  0.9980546736558722  0.30548852666503723  0.19481471552573015  1.0000
  C   C8        1.0  0.3058873020681077  0.9954203023311833  0.5044060205369763  1.0000
  C   C9        1.0  0.3050736010393749  0.6986347805806403  0.5026406660381254  1.0000
  C   C10       1.0  0.9870892248207213  0.9937705544395639  0.8202459760006557  1.0000
  C   C11       1.0  0.6998217130973714  0.31244495504126485  0.5007155762148371  1.0000
  C   C12       1.0  0.994897820425976  0.9843231982346834  0.21072684992076068  1.0000
  C   C13       1.0  0.9895509071714346  0.4244670562106591  0.4787344784749622  1.0000
  C   C14       1.0  0.9763543599752894  0.620396790992217  0.48126840315681796  1.0000
  C   C15       1.0  0.08061413364823987  0.4652594520932354  0.4079463428629352  1.0000
  C   C16       1.0  0.8824751864802068  0.5840320401744561  0.5458035269361188  1.0000
  C   C17       1.0  0.07008865504271  0.5627914433811725  0.4121532166496991  1.0000
  C   C18       1.0  0.89277472094112  0.48660340754607045  0.5416156845262279  1.0000
  C   C19       1.0  0.4065790941476878  0.005008513016470234  0.10247015969961373  1.0000
  C   C20       1.0  0.595841850334146  0.9977999090513306  0.9105752906624006  1.0000
  C   C21       1.0  0.4533788882540718  0.09104513487812228  0.0484697164053003  1.0000
  C   C22       1.0  0.5479585973644843  0.9128426655207065  0.9633929467975549  1.0000
  C   C23       1.0  0.5474625436428581  0.08353626433802941  0.953718754132403  1.0000
  C   C24       1.0  0.4543160224851948  0.9200650027813138  0.05852242281201112  1.0000
  C   C25       1.0  0.9783371305654927  0.9836826862922762  0.9295460468231556  1.0000
  C   C26       1.0  0.9876464350328861  0.9704989305521535  0.12218197400644466  1.0000
  C   C27       1.0  0.8902667378993813  0.055123178132390566  0.9905160875424952  1.0000
  C   C28       1.0  0.07243813535717467  0.8929309300494238  0.06616688461515696  1.0000
  C   C29       1.0  0.897543321539537  0.045222210074278575  0.08558231381981306  1.0000
  C   C30       1.0  0.06458525144574895  0.9030644618974292  0.9703725892977246  1.0000
  C   C31       1.0  0.4057151509933804  0.5993365722188883  0.4994953352802795  1.0000
  C   C32       1.0  0.5985790980918537  0.4113662509453631  0.5046997360298775  1.0000
  C   C33       1.0  0.4569032722105674  0.5485330505098248  0.41671636213102653  1.0000
  C   C34       1.0  0.5471986317844469  0.46183578493589283  0.5878021426583898  1.0000
  C   C35       1.0  0.5523157679357524  0.45564181467765513  0.42279329193174675  1.0000
  C   C36       1.0  0.451823888329038  0.554619149939782  0.5817610987655755  1.0000
  C   C37       1.0  0.0030204047675253193  0.5924625204824211  0.9015634210333516  1.0000
  C   C38       1.0  0.9858591428194644  0.5032477298986605  0.9042098537369865  1.0000
  C   C39       1.0  0.03617576973675092  0.5781335121897796  0.9827639044947105  1.0000
  C   C40       1.0  0.9824159178946416  0.5053347107783281  0.8090620991611459  1.0000
  C   C41       1.0  0.9799916077809312  0.4141080527338731  0.807422105968861  1.0000
  C   C42       1.0  0.00579859725364429  0.39895633349264875  0.08941631908570709  1.0000
  C   C43       1.0  0.038373677066260825  0.4799945577646127  0.07718749458099686  1.0000
  C   C44       1.0  0.9847797465220299  0.40591590909401276  0.00019990969200010158  1.0000
  C   C45       1.0  0.9749856875803501  0.3158867241572665  0.9979482190642558  1.0000
  C   C46       1.0  0.9728234418015519  0.32003134142037487  0.9035532136427306  1.0000
  C   C47       1.0  0.40695641341083905  0.9932734102283689  0.5045237629041067  1.0000
  C   C48       1.0  0.5966967098779606  0.005048569165488475  0.49396977318677665  1.0000
  C   C49       1.0  0.46088950401038187  0.9096904134315053  0.5831950754339061  1.0000
  C   C50       1.0  0.5435637960153059  0.08797192365184968  0.4142922256313141  1.0000
  C   C51       1.0  0.5544163382979338  0.9195570806922717  0.5747997315310798  1.0000
  C   C52       1.0  0.44948978749621926  0.07865353761764025  0.42324900645948554  1.0000
  N   N1        1.0  0.179968586234601  0.4100276248184471  0.34316341908976267  1.0000
  N   N2        1.0  0.7840805368505809  0.6395875541229968  0.611778435765224  1.0000
  N   N3        1.0  0.40887474516540573  0.18032685250028627  0.08280899148654434  1.0000
  N   N4        1.0  0.586723977016156  0.8278947319581318  0.9241480613493848  1.0000
  N   N5        1.0  0.8055701836263012  0.14651303050450087  0.9513513264484101  1.0000
  N   N6        1.0  0.16252864587720256  0.8145266787606644  0.09779129566146573  1.0000
  N   N7        1.0  0.41524234442783137  0.5839285686535405  0.3349161124602135  1.0000
  N   N8        1.0  0.5846473910292644  0.4218056238873658  0.6742344551622494  1.0000
  N   N9        1.0  0.4240511146316308  0.8235001318000383  0.6675586397951959  1.0000
  N   N10       1.0  0.5778164203300096  0.1766608658035835  0.3338069138263719  1.0000
  O   O1        1.0  0.9117800140228451  0.7481781000488325  0.5717126283809078  1.0000
  O   O2        1.0  0.2640953013982852  0.07899538193844796  0.2453695300674923  1.0000
  O   O3        1.0  0.07544336241036835  0.2676316143322595  0.4215997704552309  1.0000
  O   O4        1.0  0.7388853502238105  0.9232156193663313  0.7684683341082132  1.0000
  O   O5        1.0  0.06311423025865545  0.7459903267989957  0.776367482013825  1.0000
  O   O6        1.0  0.7374612289420455  0.08145859943805084  0.4209962420951923  1.0000
  O   O7        1.0  0.923827767892256  0.2625679002582259  0.23432328594945054  1.0000
  O   O8        1.0  0.2632725360193435  0.9196334819924413  0.5810184064021866  1.0000
  O   O9        1.0  0.26398923139889524  0.7413122681666663  0.42537705981605006  1.0000
  O   O10       1.0  0.9150729816386304  0.07525359431986087  0.7755406535137225  1.0000
  O   O11       1.0  0.7407546088113367  0.2698325647921677  0.5780932673505247  1.0000
  O   O12       1.0  0.07770502361392305  0.9159662188072347  0.24517732265370995  1.0000
  O   O13       1.0  0.06754452386216084  0.9218837261408195  0.7751049087496965  1.0000
  O   O14       1.0  0.7409109938535251  0.2731539766742372  0.42280069139687265  1.0000
  O   O15       1.0  0.9216367827789396  0.0656415704229899  0.24558574104619146  1.0000
  O   O16       1.0  0.26279732600934846  0.7372675482011672  0.5814921361371573  1.0000
  O   O17       1.0  0.9176906429151614  0.7386685528723331  0.768270285191704  1.0000
  O   O18       1.0  0.2646220953821299  0.07313587684941329  0.4292742527604076  1.0000
  O   O19       1.0  0.06693735792597282  0.27310900364189195  0.243250677639864  1.0000
  O   O20       1.0  0.7346214896284239  0.9292504187344974  0.5738392853973053  1.0000
  O   O21       1.0  0.7352092150956366  0.0776676362318015  0.7704479967672526  1.0000
  O   O22       1.0  0.07018837780454129  0.7416722593461387  0.4241569617591948  1.0000
  O   O23       1.0  0.2688082134073756  0.9235696174327044  0.24431592514416423  1.0000
  O   O24       1.0  0.9214180847049107  0.27328773287366187  0.5742616466378009  1.0000
  O   O25       1.0  0.7964605318496396  0.07213390566774083  0.569682296858481  1.0000
  O   O26       1.0  0.06450984632100894  0.06972597140855186  0.5743215071519715  1.0000
  O   O27       1.0  0.06776761650036893  0.06827737197522771  0.30208267366326413  1.0000
  O   O28       1.0  0.06360926804254789  0.800330324332009  0.5722393657310718  1.0000
  O   O29       1.0  0.14646459581931756  0.9521024089594757  0.4570312371451023  1.0000
  O   O30       1.0  0.9492952575521233  0.953773769795262  0.45320848387869017  1.0000
  O   O31       1.0  0.9497779603434894  0.1505680549416723  0.4545170521859347  1.0000
  O   O32       1.0  0.9476296472099011  0.9543135235232609  0.6516276487282865  1.0000
  O   O33       1.0  0.07061092717300717  0.47356740987562057  0.15191470077927957  1.0000
  O   O34       1.0  0.06572748141439207  0.6532286055402564  0.9796202557096265  1.0000
  O   O35       1.0  0.9864298075868022  0.4112398941873749  0.7136015748320402  1.0000
  O   O36       1.0  0.9767332766025091  0.23127801830072792  0.8903442882522938  1.0000
