data_image0
_chemical_formula_structural       Cu2H40C32N20
_chemical_formula_sum              "Cu2 H40 C32 N20"
_cell_length_a       9.73304037268142
_cell_length_b       9.810528188385026
_cell_length_c       11.39889344774201
_cell_angle_alpha    72.86237567591711
_cell_angle_beta     67.00756697600494
_cell_angle_gamma    78.12383687308257

_space_group_name_H-M_alt    "P 1"
_space_group_IT_number       1

loop_
  _space_group_symop_operation_xyz
  'x, y, z'

loop_
  _atom_site_type_symbol
  _atom_site_label
  _atom_site_symmetry_multiplicity
  _atom_site_fract_x
  _atom_site_fract_y
  _atom_site_fract_z
  _atom_site_occupancy
  Cu  Cu1       1.0  0.49999956193493483  0.999998815690269  0.9999991818782163  1.0000
  Cu  Cu2       1.0  0.9999983792090601  0.5000016781950976  0.5000027825181802  1.0000
  H   H1        1.0  0.36494925830939456  0.7848081647468418  0.14415581881099376  1.0000
  H   H2        1.0  0.6350498173108647  0.21519146581058377  0.8558417149896442  1.0000
  H   H3        1.0  0.3410933924116009  0.8244575900939282  0.9995413467029978  1.0000
  H   H4        1.0  0.6589059332204029  0.17553989576966708  0.00045664261892145147  1.0000
  H   H5        1.0  0.35726531747584284  0.16962880031405805  0.8538498153803361  1.0000
  H   H6        1.0  0.6427338878873737  0.8303697487500089  0.14615057874274132  1.0000
  H   H7        1.0  0.4041825267814402  0.2641516449257679  0.9254275316374178  1.0000
  H   H8        1.0  0.5958177920911467  0.735846916147878  0.07457160982066573  1.0000
  H   H9        1.0  0.1683142521259526  0.9352568014942049  0.23535054476035105  1.0000
  H   H10       1.0  0.8316839584176491  0.0647406754086219  0.7646478197059635  1.0000
  H   H11       1.0  0.10168921830695869  0.8360229727939554  0.1649327612773277  1.0000
  H   H12       1.0  0.8983098557342686  0.1639766608122812  0.8350638950027118  1.0000
  H   H13       1.0  0.0015799540335806003  0.08073357211238628  0.1125046932276845  1.0000
  H   H14       1.0  0.9984201148272618  0.9192671336550899  0.8874939927091106  1.0000
  H   H15       1.0  0.13026288628915944  0.0378680725447893  0.9665291856072643  1.0000
  H   H16       1.0  0.8697358158925039  0.9621347720045675  0.03346854243204695  1.0000
  H   H17       1.0  0.13848273450504678  0.28214821826471603  0.9919340089258668  1.0000
  H   H18       1.0  0.8615185760290985  0.717851421067799  0.00806540714776805  1.0000
  H   H19       1.0  0.20163432825630417  0.1985642078251786  0.1259475361751541  1.0000
  H   H20       1.0  0.7983661172011834  0.8014332778527304  0.8740527105641648  1.0000
  H   H21       1.0  0.24841503777776094  0.5358422042183264  0.5060643854411424  1.0000
  H   H22       1.0  0.7515828119594657  0.4641584622859014  0.4939411934286327  1.0000
  H   H23       1.0  0.1932356149174979  0.3833139971762733  0.608844154075186  1.0000
  H   H24       1.0  0.8067635936037688  0.6166845457901502  0.3911579950890812  1.0000
  H   H25       1.0  0.0863935860266949  0.6703786950809417  0.6610018718222221  1.0000
  H   H26       1.0  0.9136104799721921  0.3296166240043803  0.33901174533476536  1.0000
  H   H27       1.0  0.21493570180524557  0.5424164854640239  0.7227092128747188  1.0000
  H   H28       1.0  0.7850674948701979  0.4575670473230389  0.27729976225273134  1.0000
  H   H29       1.0  0.9751962985936514  0.5226728125514484  0.8958263388408483  1.0000
  H   H30       1.0  0.02480503137912391  0.47731714840515577  0.10418076734654855  1.0000
  H   H31       1.0  0.015501617571054298  0.3688870299496473  0.8338102052287509  1.0000
  H   H32       1.0  0.9844947472875346  0.631107193698007  0.16619485793187025  1.0000
  H   H33       1.0  0.7485524484696667  0.4792274600856458  0.8815089079366134  1.0000
  H   H34       1.0  0.2514452762616912  0.5207742787655009  0.11849644317251769  1.0000
  H   H35       1.0  0.8107157446920679  0.6383197422651463  0.7617616128188375  1.0000
  H   H36       1.0  0.18929090232552429  0.36168206522331303  0.23824161465573473  1.0000
  H   H37       1.0  0.8428018342898936  0.3552428725724042  0.708691581197634  1.0000
  H   H38       1.0  0.1571957622775386  0.6447599447232834  0.2913117871096631  1.0000
  H   H39       1.0  0.7341031468310958  0.5015449649138547  0.6711102810925738  1.0000
  H   H40       1.0  0.26589556798278835  0.4984578552449647  0.32889446711152454  1.0000
  C   C1        1.0  0.2676305022414027  0.8255973864971936  0.7900965789119923  1.0000
  C   C2        1.0  0.7323757539682916  0.1744076685201748  0.2098971900746704  1.0000
  C   C3        1.0  0.3546904339962537  0.05950952427483711  0.3197175331626169  1.0000
  C   C4        1.0  0.6453081510746728  0.9404943773773553  0.6802843547190418  1.0000
  C   C5        1.0  0.15047237871121408  0.14185898792911186  0.4925703133203925  1.0000
  C   C6        1.0  0.8495307917191892  0.8581438772192271  0.5074303017443287  1.0000
  C   C7        1.0  0.2574165233573993  0.07745445349186751  0.7027155101895274  1.0000
  C   C8        1.0  0.7425871450271798  0.9225537671077364  0.29728797853058353  1.0000
  C   C9        1.0  0.4859623211218746  0.7014441385859131  0.5823205482641427  1.0000
  C   C10       1.0  0.5140352675504118  0.29855869395385776  0.41767843244016234  1.0000
  C   C11       1.0  0.39415890758978384  0.7550040209721942  0.4064078108764236  1.0000
  C   C12       1.0  0.6058385560766338  0.24499988391449531  0.5935909420672375  1.0000
  C   C13       1.0  0.31677342858401397  0.9245224362743089  0.5492681115325624  1.0000
  C   C14       1.0  0.683230481917171  0.0754836548755478  0.45073144510583774  1.0000
  C   C15       1.0  0.2737126515250239  0.0399112939522439  0.4549603235350617  1.0000
  C   C16       1.0  0.7262890272203321  0.9600947823248945  0.545039105871531  1.0000
  C   C17       1.0  0.2796670532359968  0.9407065832754782  0.6791145924544894  1.0000
  C   C18       1.0  0.7203390906000422  0.0592995196982713  0.3208859689363166  1.0000
  C   C19       1.0  0.3976041972182287  0.7952463011397483  0.513437704187929  1.0000
  C   C20       1.0  0.6023967382982888  0.2047565552335016  0.48656102860378786  1.0000
  C   C21       1.0  0.17622112789306496  0.9186143288690688  0.14164870681164388  1.0000
  C   C22       1.0  0.823779186242433  0.0813842413510244  0.8583478020846443  1.0000
  C   C23       1.0  0.12143049211739049  0.05543340938032771  0.06016994492351559  1.0000
  C   C24       1.0  0.8785697017493203  0.9445662240402299  0.939828968773924  1.0000
  C   C25       1.0  0.20039326954125158  0.1854692082142861  0.03394196567408869  1.0000
  C   C26       1.0  0.7996081659987624  0.8145293587713098  0.9660576781601904  1.0000
  C   C27       1.0  0.11687911005556369  0.5548359330741873  0.6933719254968126  1.0000
  C   C28       1.0  0.883122354397244  0.4451529372426036  0.306640673574819  1.0000
  C   C29       1.0  0.9874846136765713  0.4859844759645853  0.8096224746711727  1.0000
  C   C30       1.0  0.01251547778095129  0.5140065453293516  0.19038565642058103  1.0000
  C   C31       1.0  0.8378313832160981  0.5215112338258763  0.7888155405892975  1.0000
  C   C32       1.0  0.1621713003133322  0.47848625452948573  0.21118834346422233  1.0000
  N   N1        1.0  0.42363794298216106  0.0803090981546362  0.20655375214200686  1.0000
  N   N2        1.0  0.5763608842053783  0.9196926740478021  0.7934442036579411  1.0000
  N   N3        1.0  0.04576274636642811  0.2260033074549241  0.5221380919224998  1.0000
  N   N4        1.0  0.9542362200382326  0.7739973649612467  0.477867989323478  1.0000
  N   N5        1.0  0.24170346148379449  0.19041632582879942  0.7251427053316419  1.0000
  N   N6        1.0  0.7582979819513581  0.8095822259127062  0.2748613261056363  1.0000
  N   N7        1.0  0.5620325520307858  0.622820279384989  0.6370306733931345  1.0000
  N   N8        1.0  0.43796441999757013  0.3771782578551708  0.36296871597752994  1.0000
  N   N9        1.0  0.38906239051135566  0.7169915047484852  0.3197470977536554  1.0000
  N   N10       1.0  0.610932597703595  0.2830145177640446  0.6802545825193107  1.0000
  N   N11       1.0  0.2502920623404705  0.7360697980032  0.8880893705997011  1.0000
  N   N12       1.0  0.7497083846960421  0.26392768462589805  0.11191175366021608  1.0000
  N   N13       1.0  0.33350056791080357  0.8656630997270442  0.07533610392854224  1.0000
  N   N14       1.0  0.6664986311362924  0.13433546153228093  0.9246607801121345  1.0000
  N   N15       1.0  0.3575925155075409  0.17235488113572475  0.9433783486370189  1.0000
  N   N16       1.0  0.6424066882766438  0.8276436709771532  0.056621167965459934  1.0000
  N   N17       1.0  0.15816168350580279  0.49030150849068127  0.580541577768841  1.0000
  N   N18       1.0  0.8418364130851188  0.5096970194173521  0.4194627015810253  1.0000
  N   N19       1.0  0.8364006392559489  0.46479095745235816  0.6827916292574016  1.0000
  N   N20       1.0  0.1635981989847792  0.5352107934083679  0.31721246918674234  1.0000
