data_image0
_chemical_formula_structural       Zn8H48C72N16O58
_chemical_formula_sum              "Zn8 H48 C72 N16 O58"
_cell_length_a       17.73114311997772
_cell_length_b       18.64875454415095
_cell_length_c       23.270635735815887
_cell_angle_alpha    66.3540415540543
_cell_angle_beta     69.79720000312366
_cell_angle_gamma    89.91476590827018

_space_group_name_H-M_alt    "P 1"
_space_group_IT_number       1

loop_
  _space_group_symop_operation_xyz
  'x, y, z'

loop_
  _atom_site_type_symbol
  _atom_site_label
  _atom_site_symmetry_multiplicity
  _atom_site_fract_x
  _atom_site_fract_y
  _atom_site_fract_z
  _atom_site_occupancy
  Zn  Zn1       1.0  0.11907880306575441  0.5267627117437146  0.9452871278404447  1.0000
  Zn  Zn2       1.0  0.9704427322015334  0.5622462704032003  0.04963424404873244  1.0000
  Zn  Zn3       1.0  0.9798107304962754  0.3882089425408922  0.050120581276630105  1.0000
  Zn  Zn4       1.0  0.9348366831894381  0.5306896932254406  0.9384665482697657  1.0000
  Zn  Zn5       1.0  0.383345046564429  0.9732248939746245  0.048632795192325655  1.0000
  Zn  Zn6       1.0  0.5278075056156694  0.11596817909619261  0.9408650618079695  1.0000
  Zn  Zn7       1.0  0.5212156139227772  0.9429577594065394  0.9401930973113438  1.0000
  Zn  Zn8       1.0  0.5713989751108955  0.9770922306274845  0.048635846499990844  1.0000
  H   H1        1.0  0.2001590906673343  0.30022272012845974  0.9090859663540629  1.0000
  H   H2        1.0  0.1267077492275419  0.22905803629880242  0.9856060438119844  1.0000
  H   H3        1.0  0.21411120339075043  0.13561333659240662  0.984399871217008  1.0000
  H   H4        1.0  0.28764770658474953  0.20736218048380553  0.9081367919122773  1.0000
  H   H5        1.0  0.21372304201743483  0.1206018358635887  0.0973138463431837  1.0000
  H   H6        1.0  0.2863972482473827  0.18084956405493816  0.1010784103443143  1.0000
  H   H7        1.0  0.12632239727214056  0.21458230056297375  0.09826040885697301  1.0000
  H   H8        1.0  0.19994830417567744  0.27483559392749163  0.10153865843950884  1.0000
  H   H9        1.0  0.3054247771329841  0.388867150378907  0.913511160725456  1.0000
  H   H10       1.0  0.30526597089708934  0.37818740135095663  0.9920641172598795  1.0000
  H   H11       1.0  0.3931346951346199  0.2850134162545146  0.9906153566436732  1.0000
  H   H12       1.0  0.392365596578415  0.29498811190509155  0.9123565044416541  1.0000
  H   H13       1.0  0.889943032106501  0.8030809030720508  0.9027331141645548  1.0000
  H   H14       1.0  0.8884447000466977  0.7897571118141118  0.9828853209079685  1.0000
  H   H15       1.0  0.7997889308053913  0.8822208168174515  0.9850621957244815  1.0000
  H   H16       1.0  0.8014177195686825  0.8947691645354681  0.9050388432261732  1.0000
  H   H17       1.0  0.69526683415895  0.7780151600639372  0.09215099622327466  1.0000
  H   H18       1.0  0.62295879897426  0.7171598236759851  0.08833008035652756  1.0000
  H   H19       1.0  0.783821762774721  0.6852997779101174  0.09000533817986421  1.0000
  H   H20       1.0  0.7111339277690689  0.6250332432376523  0.08570951390314008  1.0000
  H   H21       1.0  0.7866863851927873  0.7148281926195709  0.8960464239723296  1.0000
  H   H22       1.0  0.7135716369833034  0.6426389012029078  0.9707068711796372  1.0000
  H   H23       1.0  0.6252058468395986  0.7354287534758582  0.9719204723644099  1.0000
  H   H24       1.0  0.6989435775135888  0.8080122232297242  0.8979131086145248  1.0000
  H   H25       1.0  0.16097988017516232  0.7933758284947816  0.9361092827066387  1.0000
  H   H26       1.0  0.2447402026168533  0.7560851880065586  0.8956853828271963  1.0000
  H   H27       1.0  0.3330276358853367  0.850777694011484  0.8933374069375547  1.0000
  H   H28       1.0  0.24880869735842037  0.8859762556026145  0.9359190888088876  1.0000
  H   H29       1.0  0.3917946499471086  0.7391835407528974  0.960562247873249  1.0000
  H   H30       1.0  0.35184491808308843  0.6978556700789015  0.049794090681608276  1.0000
  H   H31       1.0  0.3014381369967367  0.6444387408527279  0.9647676575004669  1.0000
  H   H32       1.0  0.260130266350977  0.6049621345029692  0.05411216307495442  1.0000
  H   H33       1.0  0.09978351651754022  0.7352225351404585  0.06523744110260307  1.0000
  H   H34       1.0  0.13944448576447852  0.6576836824778668  0.11324576594205375  1.0000
  H   H35       1.0  0.23053102297541983  0.7497038503943118  0.11136593881879969  1.0000
  H   H36       1.0  0.1900464976952705  0.8272302482830941  0.06407515228566028  1.0000
  H   H37       1.0  0.8992875301502606  0.2676888427690756  0.9301050004162693  1.0000
  H   H38       1.0  0.8549041110033997  0.3449270151204758  0.8854690534357846  1.0000
  H   H39       1.0  0.7673870417170291  0.25019579061498837  0.886978294501198  1.0000
  H   H40       1.0  0.8090596795879677  0.1731315186379803  0.9349263352975686  1.0000
  H   H41       1.0  0.6506687357332339  0.3043300762992232  0.9463189434545498  1.0000
  H   H42       1.0  0.6061178645862597  0.26296525103681745  0.0354312227296631  1.0000
  H   H43       1.0  0.7388684746912801  0.3958629606915523  0.947822550355561  1.0000
  H   H44       1.0  0.6962037115007433  0.3519005533107915  0.03724453808190024  1.0000
  H   H45       1.0  0.8399802267780954  0.2039662578951109  0.05921700582886303  1.0000
  H   H46       1.0  0.7589345246243511  0.23919739313138422  0.10341598289703324  1.0000
  H   H47       1.0  0.6657880006581607  0.14961111032852875  0.10500009905067742  1.0000
  H   H48       1.0  0.7470000073553605  0.11236464919270621  0.06282697609857733  1.0000
  C   C1        1.0  0.13867976456499057  0.6340007911416521  0.003712545027930467  1.0000
  C   C2        1.0  0.9126963967117375  0.4145154397791018  0.17283515267833144  1.0000
  C   C3        1.0  0.14640745838877928  0.36184073756017915  0.000521021014478178  1.0000
  C   C4        1.0  0.8618514449184859  0.36622913921002737  0.9930068523722755  1.0000
  C   C5        1.0  0.08872236660267424  0.5898371864469854  0.8185902704693008  1.0000
  C   C6        1.0  0.8594631307488567  0.6452152837644505  0.9885069079573228  1.0000
  C   C7        1.0  0.35924887495949054  0.1375657303141296  0.9966981500301347  1.0000
  C   C8        1.0  0.5850360738931073  0.09008524425975391  0.817805408760883  1.0000
  C   C9        1.0  0.3554055784440706  0.8593834687570239  0.9984136667014953  1.0000
  C   C10       1.0  0.6452045473066191  0.8689794309576158  0.9912357715082721  1.0000
  C   C11       1.0  0.4218273212612758  0.9113752849512553  0.1721746422902938  1.0000
  C   C12       1.0  0.6439108294073462  0.14385800520987863  0.9951233740292129  1.0000
  C   C13       1.0  0.38306904288508997  0.8750585614468918  0.24871183532525992  1.0000
  C   C14       1.0  0.4294856869766193  0.8525255245129203  0.28938501341729517  1.0000
  C   C15       1.0  0.39340365561041307  0.8210123668468227  0.3596393559533838  1.0000
  C   C16       1.0  0.3079998460796034  0.804147451642223  0.39353629437829346  1.0000
  C   C17       1.0  0.26144173458219905  0.8243142514972561  0.35248597099048606  1.0000
  C   C18       1.0  0.2981454250024598  0.8616000256018028  0.28227204206618245  1.0000
  C   C19       1.0  0.27098896722971216  0.768734191212012  0.4646600905357163  1.0000
  C   C20       1.0  0.23861286860833536  0.7377245285057231  0.526129116628326  1.0000
  C   C21       1.0  0.20194271702480654  0.7017683252918091  0.5972594428001443  1.0000
  C   C22       1.0  0.24887030795408555  0.681204737007221  0.6380290307804941  1.0000
  C   C23       1.0  0.21256744907687863  0.6486298128853464  0.7082669466888591  1.0000
  C   C24       1.0  0.12773753911270092  0.6286278894764978  0.7421248065642703  1.0000
  C   C25       1.0  0.080938252118024  0.6460537208989835  0.7017674005633128  1.0000
  C   C26       1.0  0.1165912324418201  0.6843429823084081  0.6314850773513784  1.0000
  C   C27       1.0  0.6252474156743162  0.12805957457035788  0.7416602188203002  1.0000
  C   C28       1.0  0.6473166403749957  0.08234874209205151  0.7048834635394245  1.0000
  C   C29       1.0  0.6814570914373589  0.11732234038218792  0.6345575021140777  1.0000
  C   C30       1.0  0.700918088957195  0.2004635073221195  0.597371032818572  1.0000
  C   C31       1.0  0.6819190482971607  0.24617367812830085  0.6348011964279224  1.0000
  C   C32       1.0  0.6424679536832016  0.21076745229260047  0.7047978557332472  1.0000
  C   C33       1.0  0.7372637449941024  0.23618108777596092  0.5263506946861014  1.0000
  C   C34       1.0  0.7680921573888072  0.26734786541573646  0.4648527789929917  1.0000
  C   C35       1.0  0.8033592552920368  0.30323595778944684  0.39378495861097923  1.0000
  C   C36       1.0  0.8223852088295942  0.2577289270953856  0.35617780215735456  1.0000
  C   C37       1.0  0.8542430083452359  0.29352255207714256  0.28582504404240455  1.0000
  C   C38       1.0  0.8746728664918919  0.3761469206710687  0.24919419541300422  1.0000
  C   C39       1.0  0.8586296985286239  0.4215066764569998  0.28648182709503095  1.0000
  C   C40       1.0  0.8212262750112558  0.38641414856915196  0.3566759096486579  1.0000
  C   C41       1.0  0.19060966011267064  0.2577021300939181  0.9610746838928821  1.0000
  C   C42       1.0  0.24875997900166166  0.19573200860858014  0.9603479262934729  1.0000
  C   C43       1.0  0.3033706291831919  0.19892977009499901  0.9991840616485992  1.0000
  C   C44       1.0  0.2481538844332292  0.1807245320063374  0.07261497905748371  1.0000
  C   C45       1.0  0.19032666813324536  0.24292180398070679  0.07322127416218652  1.0000
  C   C46       1.0  0.20587346151432936  0.30333107276526766  0.9998958864698013  1.0000
  C   C47       1.0  0.2947070063225112  0.3448441369121157  0.9651673556314437  1.0000
  C   C48       1.0  0.35272791276624094  0.28291204840767403  0.9643468894335715  1.0000
  C   C49       1.0  0.8495665205215276  0.7890062096676548  0.9551772471576716  1.0000
  C   C50       1.0  0.7905859834976567  0.8503159064562099  0.9566590205959357  1.0000
  C   C51       1.0  0.7013507401662624  0.8073854902685441  0.9904568333626788  1.0000
  C   C52       1.0  0.6867329695637139  0.7466503131323918  0.06324832729571024  1.0000
  C   C53       1.0  0.7453905788492818  0.6853489789187464  0.06176537338596689  1.0000
  C   C54       1.0  0.8006965278936279  0.7046074344517879  0.9877006285946806  1.0000
  C   C55       1.0  0.7475402090291182  0.7027196608565873  0.9482744373655835  1.0000
  C   C56       1.0  0.6890102270156078  0.7642270162795203  0.9494048599123628  1.0000
  C   C57       1.0  0.21731622604018241  0.7703188402849366  0.9391520512124246  1.0000
  C   C58       1.0  0.2761841673035406  0.8324508925944587  0.9381303355146715  1.0000
  C   C59       1.0  0.29621868977143606  0.796814475187219  0.002922024457468766  1.0000
  C   C60       1.0  0.3351136838746456  0.7222309057186183  0.005101935405036777  1.0000
  C   C61       1.0  0.2749552864050173  0.6600632744730035  0.007523341070630337  1.0000
  C   C62       1.0  0.1956028225677144  0.6932866486231861  0.005252165275187754  1.0000
  C   C63       1.0  0.1567070281930043  0.7125688132442819  0.06636217869243674  1.0000
  C   C64       1.0  0.21666395303019934  0.7737861811758011  0.0652393151211682  1.0000
  C   C65       1.0  0.841173563722215  0.28912653815694267  0.9311651554523696  1.0000
  C   C66       1.0  0.7816203586196763  0.22656865272626453  0.9329251881344834  1.0000
  C   C67       1.0  0.7016714802857109  0.2031681574371902  0.9960667641671822  1.0000
  C   C68       1.0  0.6644443150173133  0.27892980553502883  0.9923121506258001  1.0000
  C   C69       1.0  0.723813883674076  0.3391786301337092  0.9928374447324304  1.0000
  C   C70       1.0  0.8031334188049684  0.3056120674022226  0.9944831500831272  1.0000
  C   C71       1.0  0.783316879273876  0.22737994885126517  0.05839115846862334  1.0000
  C   C72       1.0  0.7222082183896674  0.16706729746052673  0.05992261860306775  1.0000
  N   N1        1.0  0.5197947254125381  0.8615394714644893  0.2578637715803326  1.0000
  N   N2        1.0  0.2440579382211254  0.8877357826433399  0.24333317650570052  1.0000
  N   N3        1.0  0.17149340500362342  0.8055063040567988  0.3858462111365171  1.0000
  N   N4        1.0  0.44463777810963734  0.8033512165171219  0.40075830772859444  1.0000
  N   N5        1.0  0.3387682449871434  0.6957456549159177  0.6043346279087488  1.0000
  N   N6        1.0  0.0647810932415993  0.7069004065345795  0.5908096520613243  1.0000
  N   N7        1.0  0.9906138018268038  0.6233275118241367  0.7335488720229862  1.0000
  N   N8        1.0  0.26682395633244477  0.635935112436144  0.7470526976240636  1.0000
  N   N9        1.0  0.6356024889696812  0.9942357691012164  0.7408305122498435  1.0000
  N   N10       1.0  0.6180571848372622  0.2632253836400337  0.7401922772720443  1.0000
  N   N11       1.0  0.7040952448092453  0.3335906466583509  0.5978302108263237  1.0000
  N   N12       1.0  0.6992478968573578  0.06722637998301201  0.5970701715843704  1.0000
  N   N13       1.0  0.8066763315421069  0.1701222946815193  0.39340089835226894  1.0000
  N   N14       1.0  0.8002137972435223  0.4363260209573669  0.394272130217253  1.0000
  N   N15       1.0  0.8824973369887558  0.5093747290296167  0.25133455365323704  1.0000
  N   N16       1.0  0.8655532232659552  0.2415494232069335  0.24975406442418804  1.0000
  O   O1        1.0  0.0008173802475681993  0.5026602639961055  0.9946522570274259  1.0000
  O   O2        1.0  0.16652707386519688  0.6128970109752317  0.9553116255652444  1.0000
  O   O3        1.0  0.8997530019577481  0.4843295244323115  0.1438178108915764  1.0000
  O   O4        1.0  0.0708344492968322  0.33225395745193254  0.031244945272135286  1.0000
  O   O5        1.0  0.06749687928777351  0.6101823544371996  0.04994383357064436  1.0000
  O   O6        1.0  0.17501773682443658  0.435690977607493  0.970297105779203  1.0000
  O   O7        1.0  0.953683253169892  0.37274721141347567  0.14587529161440227  1.0000
  O   O8        1.0  0.8888911791630534  0.34305771680690367  0.040620178110970226  1.0000
  O   O9        1.0  0.01542811570344329  0.597975019994422  0.844058892985551  1.0000
  O   O10       1.0  0.8794670452988669  0.4359310938575265  0.9445816476396235  1.0000
  O   O11       1.0  0.13375402998046576  0.5532755068300261  0.8490057138622975  1.0000
  O   O12       1.0  0.9057325652903355  0.6431348790370492  0.020687810754594787  1.0000
  O   O13       1.0  0.8586382246786641  0.6015310735384818  0.9582044821222983  1.0000
  O   O14       1.0  0.5008464886715629  0.0013759832901242984  0.996272212667151  1.0000
  O   O15       1.0  0.3331617419866078  0.0672072192077096  0.043789458028989287  1.0000
  O   O16       1.0  0.5969736680509143  0.13094671919165532  0.8470173757348649  1.0000
  O   O17       1.0  0.4307253308609091  0.8643324579455084  0.9641182360042041  1.0000
  O   O18       1.0  0.42760173933339013  0.16027355598696155  0.946751308062119  1.0000
  O   O19       1.0  0.3260352422485937  0.9039746540232944  0.02756292744219718  1.0000
  O   O20       1.0  0.5437450351052179  0.021616562866491103  0.8445155124795181  1.0000
  O   O21       1.0  0.616588335871583  0.8933273368224591  0.9445553715371778  1.0000
  O   O22       1.0  0.49497073722106677  0.9456651391942685  0.14555595787513914  1.0000
  O   O23       1.0  0.6317532837075603  0.8927750645507121  0.03784945744518341  1.0000
  O   O24       1.0  0.3762246962609127  0.9031761342497905  0.14293070472617575  1.0000
  O   O25       1.0  0.5976625696630791  0.1723386892389343  0.9625972133028287  1.0000
  O   O26       1.0  0.6460809652534463  0.0701797949752461  0.02581884438481555  1.0000
  O   O27       1.0  0.5462127738233207  0.815467101086341  0.23277567346761432  1.0000
  O   O28       1.0  0.558764609865662  0.9130853784950476  0.2614893749220357  1.0000
  O   O29       1.0  0.2453506354016639  0.9597062193893964  0.21581019819949895  1.0000
  O   O30       1.0  0.20169909296605942  0.8346329706168096  0.2443766961190476  1.0000
  O   O31       1.0  0.1430078222587525  0.7351966843612134  0.4237581649435854  1.0000
  O   O32       1.0  0.13398069992208408  0.8618462615470296  0.3728140888070541  1.0000
  O   O33       1.0  0.4320872060068766  0.8347126807265114  0.44013596377272546  1.0000
  O   O34       1.0  0.4943803220883609  0.7587772617045234  0.3920090334938352  1.0000
  O   O35       1.0  0.3670971605086351  0.6634839201828342  0.566244619186513  1.0000
  O   O36       1.0  0.3764162073040325  0.7388833994797397  0.6173208949856318  1.0000
  O   O37       1.0  0.07633912661522396  0.777499706990774  0.5513728276717702  1.0000
  O   O38       1.0  0.01554599932880052  0.6529877985908216  0.5999844104760258  1.0000
  O   O39       1.0  0.9644972798793247  0.5521217432299751  0.7588055609931602  1.0000
  O   O40       1.0  0.9513325243582784  0.678422548981537  0.7297016339960862  1.0000
  O   O41       1.0  0.26611922052801873  0.6809810894558412  0.7739017275055603  1.0000
  O   O42       1.0  0.30850694061340533  0.583137523208791  0.7467067733571684  1.0000
  O   O43       1.0  0.679994990116647  0.9671029123640554  0.7723387894371856  1.0000
  O   O44       1.0  0.5841534700254698  0.9574462163956599  0.7340656537505907  1.0000
  O   O45       1.0  0.5446097110235613  0.26393430904067844  0.764236219207419  1.0000
  O   O46       1.0  0.6740709453356288  0.30196497751751394  0.7403746414304282  1.0000
  O   O47       1.0  0.7765807356257639  0.3592805643538315  0.5618419361885857  1.0000
  O   O48       1.0  0.6480259641329126  0.37212092223885673  0.6063362898990052  1.0000
  O   O49       1.0  0.6670665322468138  0.07931133062277952  0.5554903678196156  1.0000
  O   O50       1.0  0.744867941663422  0.018668929391388596  0.61079355250601  1.0000
  O   O51       1.0  0.840819513932466  0.14165802281859638  0.4336862750813852  1.0000
  O   O52       1.0  0.7606636179251325  0.1342872978564245  0.3808579480593509  1.0000
  O   O53       1.0  0.7281031433492515  0.4259712186583968  0.43119652894464633  1.0000
  O   O54       1.0  0.856800843782757  0.4829466455598281  0.38536826448944345  1.0000
  O   O55       1.0  0.9559980883098758  0.5342202942948616  0.225696605263366  1.0000
  O   O56       1.0  0.8262068957778224  0.5482163155612199  0.2528691555807897  1.0000
  O   O57       1.0  0.8196417254250291  0.24485847592348628  0.21972754108806916  1.0000
  O   O58       1.0  0.918319042736499  0.19912628819812284  0.2550123378736871  1.0000
