data_image0
_chemical_formula_structural       Zr6H18C52S10Cl2O42
_chemical_formula_sum              "Zr6 H18 C52 S10 Cl2 O42"
_cell_length_a       16.457106903842124
_cell_length_b       16.46142253166353
_cell_length_c       16.51863617205418
_cell_angle_alpha    61.894465313102586
_cell_angle_beta     59.88865125312206
_cell_angle_gamma    60.2429039501487

_space_group_name_H-M_alt    "P 1"
_space_group_IT_number       1

loop_
  _space_group_symop_operation_xyz
  'x, y, z'

loop_
  _atom_site_type_symbol
  _atom_site_label
  _atom_site_symmetry_multiplicity
  _atom_site_fract_x
  _atom_site_fract_y
  _atom_site_fract_z
  _atom_site_occupancy
  Zr  Zr1       1.0  0.8883576348143692  0.9022922381723788  0.5978958533440771  1.0000
  Zr  Zr2       1.0  0.11157439107246607  0.10183252634498535  0.3983472130683055  1.0000
  Zr  Zr3       1.0  0.10284780231518181  0.8937457480137995  0.606647132364536  1.0000
  Zr  Zr4       1.0  0.8967817253177445  0.11065919500682492  0.38976392921923525  1.0000
  Zr  Zr5       1.0  0.10908144875729404  0.8929270355519419  0.38886651217977425  1.0000
  Zr  Zr6       1.0  0.8905403241046485  0.11145952342977246  0.6074331654939655  1.0000
  H   H1        1.0  0.07870632165188583  0.7524906014488623  0.5763442537232848  1.0000
  H   H2        1.0  0.09259218427303043  0.08025753966089867  0.24847950178963174  1.0000
  H   H3        1.0  0.08344792889690213  0.08171070475690105  0.5897327479033905  1.0000
  H   H4        1.0  0.7451527865853008  0.09372132332583766  0.5778712310561431  1.0000
  H   H5        1.0  0.10136278013337112  0.6364670372055914  0.8713254634469436  1.0000
  H   H6        1.0  0.8421479287146809  0.6557758353552073  0.8512010224947629  1.0000
  H   H7        1.0  0.891268443456923  0.3750422146191424  0.13251483653547066  1.0000
  H   H8        1.0  0.15128365919247244  0.3548065428285767  0.1518207787000279  1.0000
  H   H9        1.0  0.8136309129628431  0.4495623520434364  0.678909136658433  1.0000
  H   H10       1.0  0.17895409529133124  0.561885685415838  0.3102987488313573  1.0000
  H   H11       1.0  0.44991312320451016  0.8130549912677836  0.058727311496632136  1.0000
  H   H12       1.0  0.5594680313558982  0.18134001172843017  0.9464561140951488  1.0000
  H   H13       1.0  0.1681862582924865  0.8103638500805703  0.9392338294686481  1.0000
  H   H14       1.0  0.8207698985873221  0.18430590221025495  0.06671321529137234  1.0000
  H   H15       1.0  0.4268794512589622  0.5697784744157417  0.6812201117216077  1.0000
  H   H16       1.0  0.5807899837379438  0.4421335434329167  0.30746179223587683  1.0000
  H   H17       1.0  0.4362055418501996  0.17107817974729764  0.31932016330326707  1.0000
  H   H18       1.0  0.5735826090155242  0.8232670848493342  0.6670364401482444  1.0000
  C   C1        1.0  0.9961789079910021  0.7385976545823137  0.4836853677146351  1.0000
  C   C2        1.0  0.281877810894919  0.987241916636165  0.23479616942816506  1.0000
  C   C3        1.0  0.9967741165584486  0.2724007381035277  0.5058937308325113  1.0000
  C   C4        1.0  0.7252041947710525  0.009421698357662836  0.7685146830300411  1.0000
  C   C5        1.0  0.9811746947459737  0.7406115401499984  0.765783065224589  1.0000
  C   C6        1.0  0.731330511821369  0.00431839508112805  0.48857154172764433  1.0000
  C   C7        1.0  0.012740005318455944  0.2695840420158078  0.23666237471956467  1.0000
  C   C8        1.0  0.2759766152009815  0.9924497455503739  0.5002611018026214  1.0000
  C   C9        1.0  0.2726647675663686  0.7301786657933107  0.49731494273169824  1.0000
  C   C10       1.0  0.9923137349495684  0.9962247755536991  0.7770514052660784  1.0000
  C   C11       1.0  0.7340803667840775  0.2808710341056937  0.4924063428645694  1.0000
  C   C12       1.0  0.9994429995076074  0.001222337256031441  0.22637642300834682  1.0000
  C   C13       1.0  0.927016860926045  0.4218422963526365  0.565705817998456  1.0000
  C   C14       1.0  0.06336841171301433  0.5914888440424306  0.42144906303997937  1.0000
  C   C15       1.0  0.9941812049337103  0.3636893940050428  0.5030000637745644  1.0000
  C   C16       1.0  0.9962704301335279  0.6495888430871372  0.4841966831962736  1.0000
  C   C17       1.0  0.03759346641373181  0.5086224924068289  0.45110116537131256  1.0000
  C   C18       1.0  0.9521799888285327  0.5052549250332844  0.5354287278525048  1.0000
  C   C19       1.0  0.4245626122626475  0.9244032763861083  0.08814388656645622  1.0000
  C   C20       1.0  0.5864259165776106  0.06854061526664164  0.9184490751118234  1.0000
  C   C21       1.0  0.37072977634205256  0.9872416886302275  0.14616950780463597  1.0000
  C   C22       1.0  0.6397899713112238  0.006084613765594214  0.8601005946949981  1.0000
  C   C23       1.0  0.5081835922719051  0.03822633771145681  0.001975095326436372  1.0000
  C   C24       1.0  0.5035938434058947  0.9540021925830758  0.00528791365826454  1.0000
  C   C25       1.0  0.058046135164360496  0.9270063210133517  0.917813949801676  1.0000
  C   C26       1.0  0.929663560948221  0.06681919782052134  0.08941067294510664  1.0000
  C   C27       1.0  0.9927375747423003  0.9942905109921084  0.8663668244051621  1.0000
  C   C28       1.0  0.9954297888139293  0.9999684518038096  0.140426930686189  1.0000
  C   C29       1.0  0.9524879177136185  0.03973937664868278  0.008462195672244412  1.0000
  C   C30       1.0  0.03459493989238629  0.9535262278122688  0.999367677037803  1.0000
  C   C31       1.0  0.4132295151589247  0.5927413812887252  0.5633914157101642  1.0000
  C   C32       1.0  0.5962122311784557  0.42103663590887647  0.4236824706005323  1.0000
  C   C33       1.0  0.3635372467965466  0.6439118366732259  0.49634503187866125  1.0000
  C   C34       1.0  0.6458267639648626  0.36979843990270905  0.4908183673367219  1.0000
  C   C35       1.0  0.5116202398635112  0.5026461090195014  0.4501327639208554  1.0000
  C   C36       1.0  0.4984013066092245  0.5117470741181904  0.5363549435720499  1.0000
  C   C37       1.0  0.04225573563324766  0.6073856844447151  0.9002363491231761  1.0000
  C   C38       1.0  0.8951047636189671  0.618017664749303  0.8892375667028392  1.0000
  C   C39       1.0  0.8878452517056133  0.5371332687598739  0.9698927761688196  1.0000
  C   C40       1.0  0.9569584814442322  0.4869051123273635  0.02032971249432335  1.0000
  C   C41       1.0  0.9505181836938023  0.40397877950309874  0.10342711722707064  1.0000
  C   C42       1.0  0.09801661724817724  0.392954935622413  0.11408269864818266  1.0000
  C   C43       1.0  0.10545403923852353  0.4736758663349718  0.033270524508296345  1.0000
  C   C44       1.0  0.03607082067964738  0.5242146523852186  0.9830940206743718  1.0000
  C   C45       1.0  0.9732257829104259  0.6532905076856608  0.8543179890868942  1.0000
  C   C46       1.0  0.019551811384395903  0.35806001728190756  0.14932354682517257  1.0000
  C   C47       1.0  0.417747399886551  0.05896610312431954  0.4292353404606858  1.0000
  C   C48       1.0  0.5940618215477897  0.9333460240457825  0.5549936474120827  1.0000
  C   C49       1.0  0.36663120250301523  0.99293882245874  0.4956768489019512  1.0000
  C   C50       1.0  0.6446895780133273  0.9998497251707338  0.48908918285163594  1.0000
  C   C51       1.0  0.5116682065374505  0.9547459144661943  0.5324464036628029  1.0000
  C   C52       1.0  0.5012039097316147  0.036545567214858535  0.4507147268684903  1.0000
  S   S1        1.0  0.08787299231986623  0.41060018678506793  0.40765763296088403  1.0000
  S   S2        1.0  0.9018943080794913  0.6032695709740635  0.5789025120127606  1.0000
  S   S3        1.0  0.4169233432475893  0.08179353107819756  0.0999152677872814  1.0000
  S   S4        1.0  0.5944955391669565  0.9107752539750037  0.9070311108664838  1.0000
  S   S5        1.0  0.9027751958971068  0.08921400211460187  0.9181167044007238  1.0000
  S   S6        1.0  0.08452043784861012  0.9042812123794876  0.08951132832456915  1.0000
  S   S7        1.0  0.42097212588920746  0.592924263847081  0.400725322318671  1.0000
  S   S8        1.0  0.5890402886335268  0.4215159247063554  0.5857770190663345  1.0000
  S   S9        1.0  0.4205902723165308  0.9038615756948191  0.5836651815880457  1.0000
  S   S10       1.0  0.5918900364614572  0.08782709232900723  0.3999598196274334  1.0000
  Cl  Cl1       1.0  0.20266445382428333  0.5149450493848065  0.9912020899399893  1.0000
  Cl  Cl2       1.0  0.7913883236603991  0.49505596265032636  0.011254515455227801  1.0000
  O   O1        1.0  0.9248176302909529  0.7754702125834639  0.5525385433908382  1.0000
  O   O2        1.0  0.24743837602259336  0.0562080639912637  0.2715341099283748  1.0000
  O   O3        1.0  0.06959291355161668  0.23415723605237565  0.438506732944397  1.0000
  O   O4        1.0  0.7579208325880061  0.9422134718796186  0.7300757379002291  1.0000
  O   O5        1.0  0.052561429260862366  0.7704005332507364  0.7352897436333024  1.0000
  O   O6        1.0  0.7655292246035615  0.07282672732122818  0.42208240627920185  1.0000
  O   O7        1.0  0.9419860645119301  0.2391788266066113  0.26649552156140294  1.0000
  O   O8        1.0  0.2397644419313775  0.9259500835766376  0.5687780259211335  1.0000
  O   O9        1.0  0.24048275304710395  0.7623952200998118  0.4276750685856001  1.0000
  O   O10       1.0  0.9245097734454861  0.06743118868364208  0.7431835848756022  1.0000
  O   O11       1.0  0.7646546167875742  0.24713884495671573  0.5635149885034493  1.0000
  O   O12       1.0  0.0691937613487351  0.9317137390464298  0.2584547833249289  1.0000
  O   O13       1.0  0.06096278854088406  0.927338724802496  0.7393038611048154  1.0000
  O   O14       1.0  0.7723303994008862  0.24329172151659137  0.42333464106366847  1.0000
  O   O15       1.0  0.9334848669623456  0.07249319956762416  0.2616141311806288  1.0000
  O   O16       1.0  0.23233775654904334  0.7655705823546626  0.5684392629455388  1.0000
  O   O17       1.0  0.9153258342843316  0.777327683532249  0.7269214586164665  1.0000
  O   O18       1.0  0.2395612094866237  0.061123002540739456  0.43463086350057983  1.0000
  O   O19       1.0  0.08072017129282467  0.23071757970917162  0.273403949534206  1.0000
  O   O20       1.0  0.7647924373116268  0.9386038150509252  0.5571450625903295  1.0000
  O   O21       1.0  0.7595774298587445  0.0782910158741785  0.7340637526239391  1.0000
  O   O22       1.0  0.06715293299787105  0.7710219301295355  0.4171294425980889  1.0000
  O   O23       1.0  0.24476160788454124  0.9209400758022072  0.26702691570346104  1.0000
  O   O24       1.0  0.9278632537887717  0.2380117131898768  0.574614558343761  1.0000
  O   O25       1.0  0.8175588747237372  0.06848399343503069  0.5548151457159918  1.0000
  O   O26       1.0  0.05921271408817564  0.05881016849249226  0.5644684980934259  1.0000
  O   O27       1.0  0.06635263114736033  0.058113003389877356  0.3194604890666922  1.0000
  O   O28       1.0  0.05609584072816167  0.8234653735143952  0.5541508075736417  1.0000
  O   O29       1.0  0.13427270757892254  0.9530792952301469  0.4564346263529373  1.0000
  O   O30       1.0  0.9562098222040095  0.9604721881009866  0.4490758913151608  1.0000
  O   O31       1.0  0.9581989629154251  0.13366654864675787  0.4572611777509861  1.0000
  O   O32       1.0  0.95092974326257  0.9612754939954296  0.629691057510726  1.0000
  O   O33       1.0  0.8484694458611132  0.39984513873674377  0.6453316554692137  1.0000
  O   O34       1.0  0.1429251292639933  0.612608960712734  0.34283228937706395  1.0000
  O   O35       1.0  0.40249561767365094  0.845785358737558  0.10928196960293941  1.0000
  O   O36       1.0  0.6075741885972902  0.14800002610746074  0.8964959781896695  1.0000
  O   O37       1.0  0.13427698901750762  0.8471168365923419  0.891745634135496  1.0000
  O   O38       1.0  0.8541000538956639  0.1473669298922502  0.11470444002790711  1.0000
  O   O39       1.0  0.3827733755368639  0.6179495386513593  0.6440477132127  1.0000
  O   O40       1.0  0.6257184937467244  0.3948197790942771  0.3439539053729277  1.0000
  O   O41       1.0  0.390076690004058  0.13488491654244678  0.35437960037881305  1.0000
  O   O42       1.0  0.6206347727476352  0.8585533660897795  0.6309547099355227  1.0000
