data_image0
_chemical_formula_structural       MnFeH18C30S2N2O4F12
_chemical_formula_sum              "Mn1 Fe1 H18 C30 S2 N2 O4 F12"
_cell_length_a       8.49082485648344
_cell_length_b       10.168026463331222
_cell_length_c       10.682841224193602
_cell_angle_alpha    95.42925380260333
_cell_angle_beta     112.47678951904591
_cell_angle_gamma    98.52857572989251

_space_group_name_H-M_alt    "P 1"
_space_group_IT_number       1

loop_
  _space_group_symop_operation_xyz
  'x, y, z'

loop_
  _atom_site_type_symbol
  _atom_site_label
  _atom_site_symmetry_multiplicity
  _atom_site_fract_x
  _atom_site_fract_y
  _atom_site_fract_z
  _atom_site_occupancy
  Mn  Mn1       1.0  0.5000001374125419  0.49999969319221543  2.4467902895006065e-07  1.0000
  Fe  Fe1       1.0  3.1246495514731375e-07  0.9999969733389094  0.500000109143045  1.0000
  H   H1        1.0  0.6624616682494204  0.5121250250964876  0.32045502528733755  1.0000
  H   H2        1.0  0.3375299850228898  0.48787416103687065  0.679542341996033  1.0000
  H   H3        1.0  0.6046448924375551  0.40328143575044345  0.500927728466202  1.0000
  H   H4        1.0  0.3953546149766182  0.5967136676532263  0.4990698489663645  1.0000
  H   H5        1.0  0.1728343262361776  0.12668405322774132  0.17746295541084586  1.0000
  H   H6        1.0  0.8271648999403494  0.8733101016309703  0.8225400765401077  1.0000
  H   H7        1.0  0.24993501757300143  0.24542881095567273  0.009860355650900467  1.0000
  H   H8        1.0  0.7500581100860798  0.754566363317636  0.9901399509004283  1.0000
  H   H9        1.0  0.16441273370804052  0.8839547146279403  0.3478244769512744  1.0000
  H   H10       1.0  0.8355873062222795  0.11604240544398443  0.6521734254391023  1.0000
  H   H11       1.0  0.8118030297599146  0.8156680406312233  0.2526030591559731  1.0000
  H   H12       1.0  0.18819447324793967  0.18432904799938404  0.7473903178846161  1.0000
  H   H13       1.0  0.6922875960202217  0.041385143153995295  0.2923302268305861  1.0000
  H   H14       1.0  0.30771143421714703  0.9586129994259809  0.7076683838624478  1.0000
  H   H15       1.0  0.9700560939976055  0.24959432218436464  0.4134844997312684  1.0000
  H   H16       1.0  0.02994467688460386  0.7504008168696857  0.5865172127086213  1.0000
  H   H17       1.0  0.028258659602293772  0.6935835456833886  0.8703756964598884  1.0000
  H   H18       1.0  0.9717380700115398  0.3064156933677396  0.12962978535685468  1.0000
  C   C1        1.0  0.5569769198686956  0.424718374852283  0.292467816863237  1.0000
  C   C2        1.0  0.443015740599968  0.5752797987378814  0.7075297782836928  1.0000
  C   C3        1.0  0.524817790562345  0.3636965100740213  0.39318536027816725  1.0000
  C   C4        1.0  0.47517942871127145  0.6362996399764925  0.6068144074470256  1.0000
  C   C5        1.0  0.38318691987240067  0.25515021535352383  0.3545008383422684  1.0000
  C   C6        1.0  0.6168092922048628  0.7448469472401772  0.6454987015193654  1.0000
  C   C7        1.0  0.2832006129325109  0.2109764867425241  0.21364433875594108  1.0000
  C   C8        1.0  0.7167955916549645  0.789020705745763  0.7863580096043424  1.0000
  C   C9        1.0  0.3263097131980216  0.27732706932687995  0.1199324433461868  1.0000
  C   C10       1.0  0.6736814050615505  0.7226701101030883  0.8800655351455975  1.0000
  C   C11       1.0  0.12779713157465267  0.0939988050442508  0.39830990108701786  1.0000
  C   C12       1.0  0.8722016224182596  0.905998369061045  0.6016922917919703  1.0000
  C   C13       1.0  0.07625723045113379  0.9513942723258143  0.34593091932783454  1.0000
  C   C14       1.0  0.9237397300541943  0.04860083949598251  0.6540658774198037  1.0000
  C   C15       1.0  0.8908145169461787  0.9164141709047303  0.2956451848513312  1.0000
  C   C16       1.0  0.10918324732654838  0.0835839459897301  0.704350227000589  1.0000
  C   C17       1.0  0.8274713760216698  0.0362610615235965  0.31682837759270654  1.0000
  C   C18       1.0  0.17252993486647472  0.963736064304122  0.6831708513063435  1.0000
  C   C19       1.0  0.972868055721463  0.1462142903976087  0.3802582316740272  1.0000
  C   C20       1.0  0.027130165755309556  0.8537808670394328  0.6197436362471509  1.0000
  C   C21       1.0  0.2849663318326491  0.8570455241275993  0.08018037324437437  1.0000
  C   C22       1.0  0.7150366419296431  0.1429626676899787  0.919817444081517  1.0000
  C   C23       1.0  0.2869437570582817  0.7115754025113858  0.02372758916313696  1.0000
  C   C24       1.0  0.7130550497773808  0.2884268374033283  0.976276898100345  1.0000
  C   C25       1.0  0.13683459473384119  0.6428445792852031  0.909761021022  1.0000
  C   C26       1.0  0.8631636745924849  0.35715566389097825  0.09024501361610507  1.0000
  C   C27       1.0  0.12218577080893304  0.5139866424486996  0.8426177538535601  1.0000
  C   C28       1.0  0.8778160501259931  0.48601258973102557  0.15739022549924897  1.0000
  C   C29       1.0  0.9527244263664727  0.4537731010579904  0.7160086346881588  1.0000
  C   C30       1.0  0.04728363622031394  0.5462350938530561  0.28399261634002226  1.0000
  S   S1        1.0  0.34123641723960674  0.1866926683061365  0.4855067565003497  1.0000
  S   S2        1.0  0.6587633489428482  0.8133034733262434  0.5144937919097716  1.0000
  N   N1        1.0  0.4598468502073132  0.38354491601905494  0.15683011374702013  1.0000
  N   N2        1.0  0.5401427233465766  0.6164512792155818  0.8431691842558282  1.0000
  O   O1        1.0  0.42733685520191494  0.6725726965765518  0.08342755963141708  1.0000
  O   O2        1.0  0.5726645035357762  0.3274295149903068  0.91657583598456  1.0000
  O   O3        1.0  0.2304093393591485  0.43596276841850573  0.8712685510489354  1.0000
  O   O4        1.0  0.7695919869228048  0.5640395726915486  0.12874701472784983  1.0000
  F   F1        1.0  0.12043585582234324  0.8784167024221645  0.05259692544072439  1.0000
  F   F2        1.0  0.8795714558397802  0.12159355322563668  0.9474080048676614  1.0000
  F   F3        1.0  0.3591536648499341  0.9477107631980032  0.022379544022484744  1.0000
  F   F4        1.0  0.6408459253661289  0.05228928643674642  0.9776090937999843  1.0000
  F   F5        1.0  0.3761990779758618  0.8876003334221991  0.21828054027724167  1.0000
  F   F6        1.0  0.6238144150055971  0.1124138490420918  0.7817181758206789  1.0000
  F   F7        1.0  0.8504384020698409  0.5449048144668397  0.6693173959292908  1.0000
  F   F8        1.0  0.14957576902077108  0.4551023211701662  0.330682835833649  1.0000
  F   F9        1.0  0.854209102118922  0.35165509549182156  0.7448492465821632  1.0000
  F   F10       1.0  0.14578847869763217  0.6483469592995875  0.2551370631807545  1.0000
  F   F11       1.0  0.9870389241591226  0.400505779251077  0.609388763977201  1.0000
  F   F12       1.0  0.012981667046339842  0.5995064011500091  0.39061571388254634  1.0000
