data_image0
_chemical_formula_structural       U4H68C44N4O28
_chemical_formula_sum              "U4 H68 C44 N4 O28"
_cell_length_a       10.474452885307725
_cell_length_b       11.574102574
_cell_length_c       12.2553
_cell_angle_alpha    90.0
_cell_angle_beta     105.62058839914083
_cell_angle_gamma    90.0

_space_group_name_H-M_alt    "P 1"
_space_group_IT_number       1

loop_
  _space_group_symop_operation_xyz
  'x, y, z'

loop_
  _atom_site_type_symbol
  _atom_site_label
  _atom_site_symmetry_multiplicity
  _atom_site_fract_x
  _atom_site_fract_y
  _atom_site_fract_z
  _atom_site_occupancy
  U   U1        1.0  0.4033907766700366  0.5157272420765366  0.2744484909059963  1.0000
  U   U2        1.0  0.096609812965454  0.015734265256043  0.22555217517444243  1.0000
  U   U3        1.0  0.5966113939181881  0.4842725355304083  0.7255530693948697  1.0000
  U   U4        1.0  0.9033903749882911  0.9842655123509019  0.7744464809259524  1.0000
  H   H1        1.0  0.5746150556743643  0.6523382656864314  0.9673889478853822  1.0000
  H   H2        1.0  0.925384730597642  0.1523383768829589  0.5326117781024635  1.0000
  H   H3        1.0  0.4253851322793878  0.3476615119205206  0.03261052418851309  1.0000
  H   H4        1.0  0.0746144660388666  0.8476622647218619  0.4673874658314431  1.0000
  H   H5        1.0  0.4164484073585655  0.7480484940101774  0.8198743810386873  1.0000
  H   H6        1.0  0.0835511909596889  0.24804860520670496  0.680126872875263  1.0000
  H   H7        1.0  0.5835517805951866  0.2519504195988986  0.18012590700870848  1.0000
  H   H8        1.0  0.9164480056768198  0.751951172400247  0.31987400300563706  1.0000
  H   H9        1.0  0.3394518059913807  0.6216749811915036  0.8498791777020214  1.0000
  H   H10       1.0  0.1605468010096303  0.1216742283901553  0.6501210320984397  1.0000
  H   H11       1.0  0.660547390645128  0.3783247964154413  0.1501208822053783  1.0000
  H   H12       1.0  0.8394523956268783  0.8783246852189135  0.34987902780896  1.0000
  H   H13       1.0  0.1878219035577686  0.7952150018676675  0.8193365595684412  1.0000
  H   H14       1.0  0.3121767034432423  0.29521424906631916  0.6806636502320201  1.0000
  H   H15       1.0  0.8121772930787402  0.2047847757392773  0.1806626843654655  1.0000
  H   H16       1.0  0.6878224931932664  0.7047855285406257  0.31933640967537963  1.0000
  H   H17       1.0  0.2093860274848538  0.732619220003123  0.9550769931324935  1.0000
  H   H18       1.0  0.2906135708334006  0.23261846720177456  0.5449226288344561  1.0000
  H   H19       1.0  0.7906141604688983  0.2673831495974426  0.0449232949149021  1.0000
  H   H20       1.0  0.7093856258031082  0.767383038400915  0.4550766150994434  1.0000
  H   H21       1.0  0.3444639059580723  0.9492805104977435  0.8969760412552075  1.0000
  H   H22       1.0  0.1555337097257024  0.4492788936985264  0.6030239404052649  1.0000
  H   H23       1.0  0.6555362819956798  0.05072099510494609  0.10302179887169419  1.0000
  H   H24       1.0  0.8444635042763267  0.5507208839084186  0.3969772951691509  1.0000
  H   H25       1.0  0.4555905685896917  0.9640505541280859  0.10467092297436409  1.0000
  H   H26       1.0  0.0444080384113192  0.4640498013267376  0.3953276548790967  1.0000
  H   H27       1.0  0.5444096193640533  0.0359509514746037  0.895327733126031  1.0000
  H   H28       1.0  0.9555921495424329  0.5359499762802072  0.6046710012212984  1.0000
  H   H29       1.0  0.3821091781564263  0.8340085063427907  0.12971495544717024  1.0000
  H   H30       1.0  0.11789042016182802  0.3340077535414423  0.3702846665197796  1.0000
  H   H31       1.0  0.6178900184800824  0.1659912712641542  0.8702826565397357  1.0000
  H   H32       1.0  0.8821107591091603  0.6659920240655026  0.629716665641098  1.0000
  H   H33       1.0  0.6159351408823142  0.8012189230836526  0.12269560749237483  1.0000
  H   H34       1.0  0.884063654072449  0.3012173062844354  0.37730325840848167  1.0000
  H   H35       1.0  0.3840640557541946  0.1987817185211682  0.8773028204680314  1.0000
  H   H36       1.0  0.11593554256405982  0.6987824713225166  0.6226951695519246  1.0000
  H   H37       1.0  0.5791711497105325  0.8592018203069358  0.9840552120199888  1.0000
  H   H38       1.0  0.9208266539269873  0.35920279550133216  0.5159442417143723  1.0000
  H   H39       1.0  0.4208300295604559  0.1407962293042644  0.015944488193895306  1.0000
  H   H40       1.0  0.0791715513922782  0.6407978461034816  0.4840547740795386  1.0000
  H   H41       1.0  0.14131128127989  0.6948927529005359  0.1373508747046941  1.0000
  H   H42       1.0  0.3586893083556077  0.1948928640970564  0.362650607349245  1.0000
  H   H43       1.0  0.8586889066738622  0.305107024706416  0.8626485973692012  1.0000
  H   H44       1.0  0.641309888280901  0.8051069135098885  0.6373486365846617  1.0000
  H   H45       1.0  0.9556546025285683  0.7746535804979827  0.04815962599703029  1.0000
  H   H46       1.0  0.5443451837434381  0.2746536916945104  0.45184028401731513  1.0000
  H   H47       1.0  0.0443455854251837  0.225347061106838  0.9518398460768649  1.0000
  H   H48       1.0  0.4556540128930706  0.7253469499103105  0.5481589599165914  1.0000
  H   H49       1.0  0.8197767310424667  0.7368355296209045  0.1028239985418296  1.0000
  H   H50       1.0  0.6802240465467762  0.23683477681956328  0.39717532363900426  1.0000
  H   H51       1.0  0.1802244482285218  0.2631642479860403  0.8971748856985613  1.0000
  H   H52       1.0  0.3197751500897326  0.7631641367895128  0.6028239202948952  1.0000
  H   H53       1.0  0.8332536889236195  0.6758001279140871  0.9719622968461079  1.0000
  H   H54       1.0  0.666746097348387  0.1758011031084905  0.5280376131682303  1.0000
  H   H55       1.0  0.1667464990301326  0.3241996496928579  0.02803635925428691  1.0000
  H   H56       1.0  0.3332521079708854  0.8241995384963303  0.4719622185991739  1.0000
  H   H57       1.0  0.961099908129242  0.439222822460536  0.17724239106235737  1.0000
  H   H58       1.0  0.5388998781427645  0.9392227112640086  0.3227567029784879  1.0000
  H   H59       1.0  0.0389002798245102  0.5607769551464159  0.8227570810115379  1.0000
  H   H60       1.0  0.46109931849374425  0.0607770663429434  0.6772425409554116  1.0000
  H   H61       1.0  0.8254064216498237  0.4782539263505895  0.058072589157724515  1.0000
  H   H62       1.0  0.6745943559394192  0.9782529511561933  0.44192754899660963  1.0000
  H   H63       1.0  0.1745937663039214  0.5217475792521  0.9419285148631642  1.0000
  H   H64       1.0  0.3254048406970895  0.021746826450751697  0.5580725109107901  1.0000
  H   H65       1.0  0.8293399684591237  0.5313284516602224  0.19468158498459326  1.0000
  H   H66       1.0  0.6706608091301192  0.0313285628567499  0.3053185531697408  1.0000
  H   H67       1.0  0.1706622021291082  0.4686721899445985  0.8053183433692795  1.0000
  H   H68       1.0  0.329339378823633  0.9686720787480708  0.694682550851148  1.0000
  C   C1        1.0  0.4907555650529575  0.6925945185596873  0.9910294628036593  1.0000
  C   C2        1.0  0.009244033265297  0.1925946297562149  0.5089717911102838  1.0000
  C   C3        1.0  0.509245614218031  0.3074052590472576  0.008970237410224494  1.0000
  C   C4        1.0  0.9907551633712117  0.8074060118486057  0.49102826879711603  1.0000
  C   C5        1.0  0.3753979604399618  0.7069446592239926  0.8840466808481506  1.0000
  C   C6        1.0  0.124602629195536  0.2069447704205203  0.6159548012057882  1.0000
  C   C7        1.0  0.6246022275137904  0.2930542543850763  0.11595360719923781  1.0000
  C   C8        1.0  0.8753975587582161  0.7930558711843005  0.38404630281510055  1.0000
  C   C9        1.0  0.2604388653575427  0.7794625926563015  0.9011811348200067  1.0000
  C   C10       1.0  0.23955974164347538  0.279462703852829  0.5988182590069542  1.0000
  C   C11       1.0  0.7395613225962094  0.22053804894851936  0.0988183372538813  1.0000
  C   C12       1.0  0.760438463675797  0.7205388017498676  0.4011815727604571  1.0000
  C   C13       1.0  0.3092205954328264  0.8966820480158617  0.957974083639442  1.0000
  C   C14       1.0  0.1907780115681845  0.3966821592123893  0.5420261261610122  1.0000
  C   C15       1.0  0.6907786012036823  0.1033185935889591  0.042024344320964205  1.0000
  C   C16       1.0  0.8092211850683242  0.6033193463903004  0.45797474971988805  1.0000
  C   C17       1.0  0.4211452684428494  0.8797044898212931  0.0667632444742026  1.0000
  C   C18       1.0  0.078854329875405  0.37970373701994475  0.4332371934662475  1.0000
  C   C19       1.0  0.578855910828139  0.12029528778565178  0.933234823792688  1.0000
  C   C20       1.0  0.9211448667611037  0.6202960405870002  0.5667636824146527  1.0000
  C   C21       1.0  0.5364007673801012  0.8118262249642993  0.04383913062338961  1.0000
  C   C22       1.0  0.9635990188918981  0.31182547216295115  0.4561599634174555  1.0000
  C   C23       1.0  0.4636004118908872  0.1881726886447765  0.9561581216700075  1.0000
  C   C24       1.0  0.0364001777446106  0.6881743054439937  0.5438392805164439  1.0000
  C   C25       1.0  0.4608851939698511  0.6158896514372643  0.080834952435282  1.0000
  C   C26       1.0  0.0391144043484033  0.1158871706401712  0.4191671174521615  1.0000
  C   C27       1.0  0.5391169766183808  0.38411099016755657  0.919165791892091  1.0000
  C   C28       1.0  0.9608857836053488  0.8841117429689048  0.5808339865687272  1.0000
  C   C29       1.0  0.1893752976732372  0.9568318519033737  0.9777024268223895  1.0000
  C   C30       1.0  0.3106262832794968  0.4568293711062807  0.5223009153185316  1.0000
  C   C31       1.0  0.8106258815977513  0.043168789701447  0.02229727339149431  1.0000
  C   C32       1.0  0.6893739046742482  0.5431695425027954  0.4777026366228511  1.0000
  C   C33       1.0  0.0964799504069873  0.6138013685794377  0.1557443152242044  1.0000
  C   C34       1.0  0.4035206392285104  0.1137997517802205  0.3442563508562344  1.0000
  C   C35       1.0  0.9035202375467648  0.3862010010211279  0.844255156849691  1.0000
  C   C36       1.0  0.5964795487252346  0.8861991618288554  0.655743121217661  1.0000
  C   C37       1.0  0.8891332504390661  0.7045531131129223  0.05681647762768451  1.0000
  C   C38       1.0  0.6108675271501767  0.20455236031157398  0.4431844765001429  1.0000
  C   C39       1.0  0.1108669375146789  0.29544666449402257  0.9431829944462036  1.0000
  C   C40       1.0  0.389131669486332  0.7954474172953708  0.556815583407257  1.0000
  C   C41       1.0  0.8915619776776751  0.5077240297835957  0.1387124747780817  1.0000
  C   C42       1.0  0.6084387999115677  0.007723276982254399  0.3612868474027593  1.0000
  C   C43       1.0  0.1084372189588336  0.4922774758190939  0.8612867691558249  1.0000
  C   C44       1.0  0.3915613880421773  0.9922765006246974  0.6387134406446364  1.0000
  N   N1        1.0  0.9654607126690848  0.608659717240208  0.11898263975595576  1.0000
  N   N2        1.0  0.5345380822856782  0.10865982843673548  0.3810170421184012  1.0000
  N   N3        1.0  0.0345384839674239  0.39134006036673696  0.881016604177951  1.0000
  N   N4        1.0  0.4654591317163508  0.8913399491702164  0.6189825615090213  1.0000
  O   O1        1.0  0.3984351817860485  0.3683292050285232  0.22311340941198668  1.0000
  O   O2        1.0  0.1015673904839289  0.8683256378405061  0.2768885289219298  1.0000
  O   O3        1.0  0.6015719453883861  0.6316697085805529  0.7768909235358307  1.0000
  O   O4        1.0  0.8984288322008568  0.1316706837749493  0.7231108465654967  1.0000
  O   O5        1.0  0.4069991714245376  0.6623882889393187  0.32658814994940844  1.0000
  O   O6        1.0  0.0929984442592371  0.1623884001358462  0.17341591157854447  1.0000
  O   O7        1.0  0.5930000252119711  0.3376123526655022  0.673411093984498  1.0000
  O   O8        1.0  0.9070067002807107  0.8376113774711057  0.8265887810627888  1.0000
  O   O9        1.0  0.3416921829543398  0.5886365665450839  0.0796172329361795  1.0000
  O   O10       1.0  0.1583074153639146  0.08863408574799789  0.4203856529247574  1.0000
  O   O11       1.0  0.6583109789511283  0.4113623470639922  0.920383739531182  1.0000
  O   O12       1.0  0.8416917812725941  0.9113622358674647  0.5796168549031364  1.0000
  O   O13       1.0  0.555695766144261  0.5805780583883049  0.16386474120407263  1.0000
  O   O14       1.0  0.9443040201277455  0.08057903358270119  0.33613516881027283  1.0000
  O   O15       1.0  0.44430739576120715  0.4194225832165159  0.8361362312632963  1.0000
  O   O16       1.0  0.0556951765087632  0.9194207440242436  0.6638632591501333  1.0000
  O   O17       1.0  0.11318562853961818  0.013265823334322099  0.8961371992645084  1.0000
  O   O18       1.0  0.3868119871441564  0.5132657121377946  0.6038652303164509  1.0000
  O   O19       1.0  0.8868155507313701  0.9867365462662434  0.10386250094937574  1.0000
  O   O20       1.0  0.6131872094923523  0.4867332014712815  0.3961389094584361  1.0000
  O   O21       1.0  0.1651009124113187  0.9440481393819056  0.07321997500483228  1.0000
  O   O22       1.0  0.3349016598586516  0.4440465225826813  0.4267835952760775  1.0000
  O   O23       1.0  0.8349002668596697  0.0559525022229153  0.9267805411825449  1.0000
  O   O24       1.0  0.665094562826134  0.5559567110157531  0.5732149642378488  1.0000
  O   O25       1.0  0.1671241908986687  0.5318312984220128  0.20827717319242106  1.0000
  O   O26       1.0  0.3328744161023494  0.0318296816227956  0.2917238525815335  1.0000
  O   O27       1.0  0.8328769883723269  0.4681702071806768  0.791722527021463  1.0000
  O   O28       1.0  0.667123789216916  0.9681683679884046  0.7082776111328711  1.0000
