data_image0
_chemical_formula_structural       CuAg2H6C14N2O8
_chemical_formula_sum              "Cu1 Ag2 H6 C14 N2 O8"
_cell_length_a       5.182956084979719
_cell_length_b       8.675089742569563
_cell_length_c       8.609537959499228
_cell_angle_alpha    107.26769188969962
_cell_angle_beta     94.18248392429793
_cell_angle_gamma    99.59719488407967

_space_group_name_H-M_alt    "P 1"
_space_group_IT_number       1

loop_
  _space_group_symop_operation_xyz
  'x, y, z'

loop_
  _atom_site_type_symbol
  _atom_site_label
  _atom_site_symmetry_multiplicity
  _atom_site_fract_x
  _atom_site_fract_y
  _atom_site_fract_z
  _atom_site_occupancy
  Cu  Cu1       1.0  0.9999982375594954  9.086111134994792e-07  0.9999995023219341  1.0000
  Ag  Ag1       1.0  0.8183746003431125  0.04570781662619792  0.6087221771024574  1.0000
  Ag  Ag2       1.0  0.18162733389412733  0.9542905727403697  0.39127594536437027  1.0000
  H   H1        1.0  0.26085868826778125  0.5366701325550026  0.9003597559312198  1.0000
  H   H2        1.0  0.739139384436065  0.463328247170658  0.0996393682508412  1.0000
  H   H3        1.0  0.8173295047383959  0.43674390409870534  0.5537102828761107  1.0000
  H   H4        1.0  0.18267090793076332  0.5632556872262953  0.4462916322742387  1.0000
  H   H5        1.0  0.07575334461785856  0.7288000165392321  0.6942676246935663  1.0000
  H   H6        1.0  0.9242474437421107  0.27120082592127664  0.30573236756256245  1.0000
  C   C1        1.0  0.5975541065799632  0.7282041673220905  0.9255894127656603  1.0000
  C   C2        1.0  0.40244241477108034  0.27179545379011233  0.0744088687931352  1.0000
  C   C3        1.0  0.4413334766165704  0.5730783062807846  0.852191461537508  1.0000
  C   C4        1.0  0.5586653623612465  0.4269225560018343  0.14780613450949426  1.0000
  C   C5        1.0  0.5195737200134616  0.4657348588892064  0.7158619276283106  1.0000
  C   C6        1.0  0.48042667031715064  0.5342647620068776  0.2841365110419575  1.0000
  C   C7        1.0  0.751904250951121  0.5193570577689216  0.6581043852009286  1.0000
  C   C8        1.0  0.24809614682568085  0.4806425532701369  0.34189521229603065  1.0000
  C   C9        1.0  0.8959900095209151  0.6782714825452701  0.735371649835372  1.0000
  C   C10       1.0  0.10401077883904723  0.32172935991523843  0.2646283424207567  1.0000
  C   C11       1.0  0.466122033648027  0.14808173041682696  0.926121150322139  1.0000
  C   C12       1.0  0.5338764370851692  0.8519178708732655  0.07387952744579006  1.0000
  C   C13       1.0  0.3483121540943586  0.2981165152640771  0.6325335885143346  1.0000
  C   C14       1.0  0.6516882436824362  0.7018830957749745  0.3674660089826248  1.0000
  N   N1        1.0  0.18087699806468294  0.22092507838888764  0.1331426319436844  1.0000
  N   N2        1.0  0.8191234146044691  0.7790745129361202  0.8668592832066723  1.0000
  O   O1        1.0  0.2924117157727864  0.013284199536627706  0.8655329680723653  1.0000
  O   O2        1.0  0.7075848130244397  0.9867154117185493  0.13446647231312886  1.0000
  O   O3        1.0  0.6795599908331056  0.18121659609894894  0.8725688156171146  1.0000
  O   O4        1.0  0.32043808187074074  0.8187817836267118  0.12743030856494647  1.0000
  O   O5        1.0  0.12929802974935004  0.2726639785620791  0.6863042464859105  1.0000
  O   O6        1.0  0.8707043025172326  0.7273356323689129  0.3136954295667849  1.0000
  O   O7        1.0  0.4358268992871927  0.2004370533267022  0.5156465215426138  1.0000
  O   O8        1.0  0.564173498489602  0.7995625577123494  0.4843530759543455  1.0000
