data_image0
_chemical_formula_structural       Zn4H10C32S4O25F8
_chemical_formula_sum              "Zn4 H10 C32 S4 O25 F8"
_cell_length_a       13.035337283056103
_cell_length_b       13.088779489477902
_cell_length_c       17.969506233981
_cell_angle_alpha    69.99559247422486
_cell_angle_beta     69.77022996044595
_cell_angle_gamma    87.28203035553999

_space_group_name_H-M_alt    "P 1"
_space_group_IT_number       1

loop_
  _space_group_symop_operation_xyz
  'x, y, z'

loop_
  _atom_site_type_symbol
  _atom_site_label
  _atom_site_symmetry_multiplicity
  _atom_site_fract_x
  _atom_site_fract_y
  _atom_site_fract_z
  _atom_site_occupancy
  Zn  Zn1       1.0  0.5819575155701529  0.559821614123777  0.5567101380907216  1.0000
  Zn  Zn2       1.0  0.6037880886603944  0.41408715681595254  0.44067752673334565  1.0000
  Zn  Zn3       1.0  0.4572321255054419  0.6146176075928764  0.42407807372027395  1.0000
  Zn  Zn4       1.0  0.3801708534661048  0.3999660759677326  0.5964312784053403  1.0000
  H   H1        1.0  0.575860518063287  0.10702527193927838  0.44664015316518385  1.0000
  H   H2        1.0  0.7799804258373868  0.5140389822321508  0.2538282750495994  1.0000
  H   H3        1.0  0.570842401036913  0.9576785798771469  0.383125143271492  1.0000
  H   H4        1.0  0.936965080471559  0.37952571475504737  0.47723927380670966  1.0000
  H   H5        1.0  0.0486692310424033  0.5412012353106945  0.5781527472981052  1.0000
  H   H6        1.0  0.72762438024089  0.7049254744091656  0.8818933862417917  1.0000
  H   H7        1.0  0.3406347230166916  0.43695545045090967  0.17173304480385096  1.0000
  H   H8        1.0  0.2629683256040209  0.16495666266534664  0.6328754951576837  1.0000
  H   H9        1.0  0.08555682706850833  0.7587631370938793  0.39814024155344885  1.0000
  H   H10       1.0  0.09071001147134443  0.5086086360422898  0.29121848356623997  1.0000
  C   C1        1.0  0.4570438334951704  0.21079365023284416  0.5398219377494865  1.0000
  C   C2        1.0  0.5877672028564405  0.6066990000527497  0.9031668430916892  1.0000
  C   C3        1.0  0.6604488815470192  0.6456091032022613  0.9285109281642289  1.0000
  C   C4        1.0  0.5541737167843123  0.7820721450454613  0.4564640633487469  1.0000
  C   C5        1.0  0.643967093957464  0.6130141067154041  0.015697216610234904  1.0000
  C   C6        1.0  0.5467608502338805  0.5470331089902345  0.07680951664931966  1.0000
  C   C7        1.0  0.7209806740819146  0.6500544484515487  0.04250958034021586  1.0000
  C   C8        1.0  0.70453938652701  0.6282075896449442  0.12681296662569944  1.0000
  C   C9        1.0  0.5330546993704959  0.527051619203185  0.16242534698450567  1.0000
  C   C10       1.0  0.5571432150864128  0.8988065115572184  0.4461892281260942  1.0000
  C   C11       1.0  0.5281823508913348  0.9348801099949567  0.5120074908180567  1.0000
  C   C12       1.0  0.2771884494777765  0.4057559440159507  0.8749087355433286  1.0000
  C   C13       1.0  0.4419029247013668  0.09170661775714001  0.5556512828175711  1.0000
  C   C14       1.0  0.5160172774220656  0.0487118681042418  0.5028686925505564  1.0000
  C   C15       1.0  0.11247078976568053  0.5345479560083746  0.5218399741861075  1.0000
  C   C16       1.0  0.7833731346780441  0.45927779472631874  0.48740428459148405  1.0000
  C   C17       1.0  0.08365212264791921  0.5317658363025686  0.45765434538378685  1.0000
  C   C18       1.0  0.9026049649529355  0.4578700054400713  0.4747846026741056  1.0000
  C   C19       1.0  0.9692307722395769  0.5425468025850934  0.4607679835811992  1.0000
  C   C20       1.0  0.22636693810701305  0.5287172043547484  0.5235697219663108  1.0000
  C   C21       1.0  0.5778970168716313  0.5426167482902003  0.2811509913143339  1.0000
  C   C22       1.0  0.42230854489788083  0.44723944162144147  0.7287589913286819  1.0000
  C   C23       1.0  0.45874560185141894  0.47017897368132827  0.8511112128987218  1.0000
  C   C24       1.0  0.3862626917670582  0.4392560818764863  0.8192465977711901  1.0000
  C   C25       1.0  0.6061697124065972  0.5668478679209414  0.18796407466466283  1.0000
  C   C26       1.0  0.24490489819034175  0.3999854787087854  0.9582414683697915  1.0000
  C   C27       1.0  0.4265266350927348  0.4804716118696461  0.9317144570849504  1.0000
  C   C28       1.0  0.31787078765762544  0.43529859187076175  0.9886420167574596  1.0000
  C   C29       1.0  0.49737999646907843  0.5286486101827492  0.9597990414344647  1.0000
  C   C30       1.0  0.4710303141928379  0.5075829852398926  0.04795820718907601  1.0000
  C   C31       1.0  0.366425484188305  0.45304091069422014  0.10435245321288272  1.0000
  C   C32       1.0  0.29293509994904104  0.42481121723325543  0.0747752290211778  1.0000
  S   S1        1.0  0.3266671441285283  0.012416620002596803  0.6448500543956113  1.0000
  S   S2        1.0  0.9234288742713731  0.6770094000526116  0.45215821249344373  1.0000
  S   S3        1.0  0.18712243368629808  0.5192492411585762  0.36424709687293677  1.0000
  S   S4        1.0  0.7988213193982788  0.6734881806143419  0.16414499851822484  1.0000
  O   O1        1.0  0.5043392304819959  0.4946777579938272  0.5043151040818398  1.0000
  O   O2        1.0  0.636994194046018  0.47585335328351164  0.31668636513173687  1.0000
  O   O3        1.0  0.3736852812606202  0.3817121758416491  0.7105453261271888  1.0000
  O   O4        1.0  0.4974727426685135  0.5870783520069692  0.3167459792578667  1.0000
  O   O5        1.0  0.4971580773692495  0.5218393648199324  0.6771630174718906  1.0000
  O   O6        1.0  0.2957683208850099  0.9204297290944936  0.629075716070751  1.0000
  O   O7        1.0  0.34995554367181825  0.0007084979400389135  0.7197787980806322  1.0000
  O   O8        1.0  0.23315366583016586  0.09390396113535361  0.6362854406211012  1.0000
  O   O9        1.0  0.8371050373577307  0.6952087745246515  0.41817025738345126  1.0000
  O   O10       1.0  0.9142127668957871  0.6932220718509825  0.5294475418232664  1.0000
  O   O11       1.0  0.02753472500442909  0.7516582134697314  0.37667985808470644  1.0000
  O   O12       1.0  0.7230787869196433  0.49450835569354  0.5442506708630646  1.0000
  O   O13       1.0  0.22342419776634873  0.6262911059417888  0.301722476173154  1.0000
  O   O14       1.0  0.2614209169147871  0.44379663347829995  0.3911810190880727  1.0000
  O   O15       1.0  0.11866921690786823  0.45535976741042106  0.33183398889606497  1.0000
  O   O16       1.0  0.8907531235441439  0.7385016752958863  0.09569310655960067  1.0000
  O   O17       1.0  0.7322317981351747  0.7118676374692967  0.23045828547125766  1.0000
  O   O18       1.0  0.8439200179747885  0.5601695401847521  0.2056642113834427  1.0000
  O   O19       1.0  0.24027557212768616  0.4477952510332841  0.5821307302413528  1.0000
  O   O20       1.0  0.5438333279391259  0.26228673629876204  0.48070537724304757  1.0000
  O   O21       1.0  0.515609573832329  0.7576297432560254  0.407551489363591  1.0000
  O   O22       1.0  0.38354221406214617  0.2517647597099  0.5879188598545679  1.0000
  O   O23       1.0  0.5874030025850133  0.7173225121908118  0.5128155259385775  1.0000
  O   O24       1.0  0.7539677566716494  0.4194223682989673  0.44167216150579214  1.0000
  O   O25       1.0  0.2953101924811535  0.6068576647874623  0.46862050546751266  1.0000
  F   F1        1.0  0.19199321435959862  0.38093697454527836  0.1312949280932614  1.0000
  F   F2        1.0  0.8117356997854728  0.7095021060725769  0.9810166388191276  1.0000
  F   F3        1.0  0.5069954125244893  0.8654167965305034  0.5917766134189928  1.0000
  F   F4        1.0  0.4449571817461687  0.46254148243004767  0.22571549150050868  1.0000
  F   F5        1.0  0.14109835274180682  0.36064811734048163  0.009207426631391477  1.0000
  F   F6        1.0  0.20158400829835443  0.377602374781361  0.8485912201116146  1.0000
  F   F7        1.0  0.5665212118939779  0.48177117949345666  0.8049421905540437  1.0000
  F   F8        1.0  0.5985364904427897  0.652307864854791  0.8207312412197677  1.0000
