data_image0
_chemical_formula_structural       Zn2H36C58S2N4O30
_chemical_formula_sum              "Zn2 H36 C58 S2 N4 O30"
_cell_length_a       14.460811224387523
_cell_length_b       15.734767686602911
_cell_length_c       23.86111718634826
_cell_angle_alpha    89.88097449304833
_cell_angle_beta     90.16257841215251
_cell_angle_gamma    88.42305619046363

_space_group_name_H-M_alt    "P 1"
_space_group_IT_number       1

loop_
  _space_group_symop_operation_xyz
  'x, y, z'

loop_
  _atom_site_type_symbol
  _atom_site_label
  _atom_site_symmetry_multiplicity
  _atom_site_fract_x
  _atom_site_fract_y
  _atom_site_fract_z
  _atom_site_occupancy
  Zn  Zn1       1.0  0.3952471450817256  0.5049318646585237  0.5078356788604526  1.0000
  Zn  Zn2       1.0  0.5942324463830603  0.5030961288311249  0.5177694875976471  1.0000
  H   H1        1.0  0.4189141258619955  0.7041631975738841  0.0714301959144876  1.0000
  H   H2        1.0  0.6782129897450275  0.542825198866993  0.32332953042091367  1.0000
  H   H3        1.0  0.4115592179304031  0.42988218925845  0.21774241284286697  1.0000
  H   H4        1.0  0.4182267546073176  0.0902536272834453  0.41983586766323105  1.0000
  H   H5        1.0  0.572059534290439  0.07225373038441059  0.42205705215513944  1.0000
  H   H6        1.0  0.4271609676818287  0.9444164525763273  0.407933703514999  1.0000
  H   H7        1.0  0.6072140014965226  0.9278202276480914  0.4282606094951831  1.0000
  H   H8        1.0  0.6410947209667199  0.9326243024959737  0.49945785979592483  1.0000
  H   H9        1.0  0.3498436520141794  0.930942559613392  0.46422569177984496  1.0000
  H   H10       1.0  0.409206001514164  0.924973626645624  0.563094297271931  1.0000
  H   H11       1.0  0.529230206391162  0.9111242984894619  0.5767734386977352  1.0000
  H   H12       1.0  0.4269232240497444  0.06983998041739882  0.5792010923316653  1.0000
  H   H13       1.0  0.548526992181209  0.0581169359120395  0.5807117140831366  1.0000
  H   H14       1.0  0.06846243189407629  0.6195395725381871  0.4375495895667001  1.0000
  H   H15       1.0  0.9151614534196711  0.5724356129603906  0.4215919088872511  1.0000
  H   H16       1.0  0.4028427244769403  0.7138063101478664  0.965858544003652  1.0000
  H   H17       1.0  0.9416033607467114  0.36197033753865787  0.4871136525082492  1.0000
  H   H18       1.0  0.0805997437210308  0.37114504169707635  0.44985802130659636  1.0000
  H   H19       1.0  0.9285860689760526  0.4264597744094801  0.5738951402737413  1.0000
  H   H20       1.0  0.0755848553139913  0.399408428253068  0.5459961757756773  1.0000
  H   H21       1.0  0.8954705984561926  0.6337875299507305  0.483207073321097  1.0000
  H   H22       1.0  0.05256092205338089  0.6276183998612839  0.5113524786152368  1.0000
  H   H23       1.0  0.6165822681097027  0.3305181340258798  0.9405023854866104  1.0000
  H   H24       1.0  0.6300603064844593  0.31969337732393655  0.046364870939172007  1.0000
  H   H25       1.0  0.39284795696550384  0.42632158569566064  0.7979692160729925  1.0000
  H   H26       1.0  0.5670857777754037  0.631672640381943  0.6836318325112601  1.0000
  H   H27       1.0  0.5746644086610361  0.6374356079347835  0.7885270783625629  1.0000
  H   H28       1.0  0.6720219973208897  0.5555109422309742  0.219363507214986  1.0000
  H   H29       1.0  0.2656464556342399  0.3904658240879328  0.3308609119341313  1.0000
  H   H30       1.0  0.7469198946717623  0.1196415982460408  0.544209446621018  1.0000
  H   H31       1.0  0.22267351889983902  0.0711369931623835  0.5338910776187831  1.0000
  H   H32       1.0  0.685961560014853  0.46522504095413814  0.4007746866312587  1.0000
  H   H33       1.0  0.9542868451249049  0.4051850293901823  0.3391166044800613  1.0000
  H   H34       1.0  0.9339511649767118  0.576190329534633  0.6741072513098131  1.0000
  H   H35       1.0  0.221993362465831  0.47783912613838453  0.6376023566223807  1.0000
  H   H36       1.0  0.26640555568081226  0.33800177194721925  0.6869102453833947  1.0000
  C   C1        1.0  0.49601867128711763  0.6595622519730286  0.4892633883872861  1.0000
  C   C2        1.0  0.44477738888000556  0.6531087169593237  0.04438882217598209  1.0000
  C   C3        1.0  0.4359609370076996  0.6584652146225025  0.9858138219908881  1.0000
  C   C4        1.0  0.4693012393621173  0.5928193273817685  0.9518878451946051  1.0000
  C   C5        1.0  0.5126608290352265  0.5198287190389693  0.9762846036896137  1.0000
  C   C6        1.0  0.547969841996931  0.4522436353245426  0.9428790966795191  1.0000
  C   C7        1.0  0.5901112028584093  0.38113379711863626  0.9676756324044078  1.0000
  C   C8        1.0  0.5977066522679308  0.3752063910991623  0.0261934695938635  1.0000
  C   C9        1.0  0.45848256789624026  0.5991868318588301  0.8901706666061315  1.0000
  C   C10       1.0  0.5402279556441486  0.4564967020891332  0.8811454799530766  1.0000
  C   C11       1.0  0.4296903370959058  0.47211795979079346  0.7727514982121947  1.0000
  C   C12       1.0  0.474991850922045  0.5231308493126222  0.6193136440869864  1.0000
  C   C13       1.0  0.42659716179848317  0.4680992944078853  0.7143054891113252  1.0000
  C   C14       1.0  0.47621582213130864  0.5260828750911275  0.6821179233940954  1.0000
  C   C15       1.0  0.5286284453691792  0.587315238471632  0.7091056382880369  1.0000
  C   C16       1.0  0.5330053826833137  0.5905301026846744  0.7673637815245726  1.0000
  C   C17       1.0  0.4841711832319433  0.5321117068960817  0.7987926897304831  1.0000
  C   C18       1.0  0.6169284033314426  0.524752078223088  0.2421380610730068  1.0000
  C   C19       1.0  0.6203321032262893  0.5167429292635362  0.30028426889218457  1.0000
  C   C20       1.0  0.5486407628610193  0.4778503515660406  0.3291649449631748  1.0000
  C   C21       1.0  0.4730953274225057  0.44519770643653095  0.2994128916316896  1.0000
  C   C22       1.0  0.4697945168831906  0.45416785320080083  0.2412989524431453  1.0000
  C   C23       1.0  0.49187183807252666  0.3446796651272166  0.5116602813507853  1.0000
  C   C24       1.0  0.541261496200363  0.4937894888884172  0.2133075086770475  1.0000
  C   C25       1.0  0.4151262300974423  0.9597103008378342  0.4522437518766154  1.0000
  C   C26       1.0  0.5877838533288795  0.9540256443964309  0.4692825216211035  1.0000
  C   C27       1.0  0.580947247633766  0.0526268354986925  0.4659810398852926  1.0000
  C   C28       1.0  0.40983721763399916  0.05773460452672909  0.4601767905075107  1.0000
  C   C29       1.0  0.4939867587063489  0.25353669855112326  0.5088684997664359  1.0000
  C   C30       1.0  0.4939313532376842  0.9195247534018023  0.48837335212395067  1.0000
  C   C31       1.0  0.4928972695962344  0.08523295243341521  0.4984061339203408  1.0000
  C   C32       1.0  0.4866546819828129  0.04238649217105461  0.5568123600030078  1.0000
  C   C33       1.0  0.4780526892587035  0.9453761488741322  0.5504277234442299  1.0000
  C   C34       1.0  0.49323448490040533  0.17684758212317322  0.5041342329280525  1.0000
  C   C35       1.0  0.4945268420644452  0.8276985170894451  0.4845573920370115  1.0000
  C   C36       1.0  0.5457091920099657  0.4808859715106877  0.3913751759283741  1.0000
  C   C37       1.0  0.4957046699412685  0.7505000285872611  0.4838503880975438  1.0000
  C   C38       1.0  0.9338164943214267  0.5790492911008867  0.4659726292810191  1.0000
  C   C39       1.0  0.0379001080211268  0.589410299711176  0.4741325054930385  1.0000
  C   C40       1.0  0.9403634712728888  0.4187000244446607  0.4601653526959879  1.0000
  C   C41       1.0  0.04306180303896671  0.4317881699059641  0.4427541333761838  1.0000
  C   C42       1.0  0.9066994941097164  0.4960098127531084  0.4962912182527291  1.0000
  C   C43       1.0  0.08291996343592702  0.49969160053621653  0.4832267685128642  1.0000
  C   C44       1.0  0.06049485109418381  0.4680545197645074  0.5444186398488854  1.0000
  C   C45       1.0  0.955161325373396  0.48443703420574025  0.5546561060351536  1.0000
  C   C46       1.0  0.18274869784268327  0.5032075731160647  0.4791454479494421  1.0000
  C   C47       1.0  0.808368025427832  0.4967512602628261  0.5075932674120837  1.0000
  C   C48       1.0  0.5716809520353366  0.4326467712524576  0.1216767220729125  1.0000
  C   C49       1.0  0.49457094380547056  0.5771967853929637  0.1312806829948556  1.0000
  C   C50       1.0  0.48661285827765244  0.5819370868935324  0.0692899051747204  1.0000
  C   C51       1.0  0.52106527379285  0.5141263086889296  0.0356897773941469  1.0000
  C   C52       1.0  0.5636193911491959  0.44064874152488204  0.05993245020341222  1.0000
  C   C53       1.0  0.3994590177076276  0.3952094842873635  0.3281089340289256  1.0000
  C   C54       1.0  0.6727129199336586  0.089732793194095  0.4827009301309176  1.0000
  C   C55       1.0  0.316809141281297  0.09101148220770483  0.48128611444155217  1.0000
  C   C56       1.0  0.9313547086000965  0.5558840848076443  0.5959684954254456  1.0000
  C   C57       1.0  0.12289592265057792  0.5092801561931143  0.5877336754945759  1.0000
  C   C58       1.0  0.3801579393864358  0.3949022510338054  0.687542880076613  1.0000
  S   S1        1.0  0.849722607979224  0.38390176515982694  0.40988545103356  1.0000
  S   S2        1.0  0.08318416437476371  0.4537819043608735  0.3691202022210121  1.0000
  N   N1        1.0  0.5361420434397673  0.5019094552865299  0.1530930447811016  1.0000
  N   N2        1.0  0.4936957075366948  0.5293992552166955  0.8588526180944456  1.0000
  N   N3        1.0  0.2624016070056783  0.506374043666895  0.4827895929976975  1.0000
  N   N4        1.0  0.7322868579110065  0.5008066061069629  0.5225451639441445  1.0000
  O   O1        1.0  0.4173603233238055  0.6261625179182316  0.4959454557496343  1.0000
  O   O2        1.0  0.5744652213715113  0.6204413239534999  0.4881405978314532  1.0000
  O   O3        1.0  0.3979245640959165  0.5117934557787152  0.5948778081764559  1.0000
  O   O4        1.0  0.5529572778448255  0.5334385445668276  0.5960992709742925  1.0000
  O   O5        1.0  0.4126917333605675  0.3813558915889885  0.5063718165152268  1.0000
  O   O6        1.0  0.5690416612063203  0.3808612541727072  0.5186143103065107  1.0000
  O   O7        1.0  0.47238766529619625  0.4920733569181266  0.4168042053578561  1.0000
  O   O8        1.0  0.6248281955930466  0.4758613077893301  0.4204904274990113  1.0000
  O   O9        1.0  0.6066824567188006  0.37008039141227306  0.1451024993259225  1.0000
  O   O10       1.0  0.46692062178637167  0.6341638635496379  0.16257386315943026  1.0000
  O   O11       1.0  0.42094939394198155  0.6605044561495108  0.8666230400146021  1.0000
  O   O12       1.0  0.571674873977905  0.40066537591238227  0.8501388877389928  1.0000
  O   O13       1.0  0.41642499819408835  0.3361525293500521  0.36003457882716117  1.0000
  O   O14       1.0  0.3145323998174874  0.4220424627222884  0.3113671181984686  1.0000
  O   O15       1.0  0.7316848088434327  0.109537454606432  0.44922154594078034  1.0000
  O   O16       1.0  0.6861386583135385  0.09452061660614672  0.5393562677029706  1.0000
  O   O17       1.0  0.27466573779447145  0.15261369070164935  0.4622911102851718  1.0000
  O   O18       1.0  0.2824032491672668  0.04387524907291149  0.5246080112585929  1.0000
  O   O19       1.0  0.9016751443086619  0.3419874504679044  0.36342625713209026  1.0000
  O   O20       1.0  0.7959996331407951  0.32717579102907024  0.4434492831741679  1.0000
  O   O21       1.0  0.7994211011005631  0.4620971122470152  0.39090689385290744  1.0000
  O   O22       1.0  0.12606205079926977  0.5354235546708496  0.36884064318839904  1.0000
  O   O23       1.0  0.14016446846981265  0.379215203155546  0.3558573465149095  1.0000
  O   O24       1.0  0.9962268022621215  0.4601636871832824  0.33178408407937354  1.0000
  O   O25       1.0  0.8997110775947375  0.6261628482905337  0.5845935367696526  1.0000
  O   O26       1.0  0.9468945217037046  0.5278451476026408  0.6491881120786118  1.0000
  O   O27       1.0  0.12378307354905617  0.585136968034462  0.5977909320329786  1.0000
  O   O28       1.0  0.1785874115689694  0.44989112254317826  0.612182361131751  1.0000
  O   O29       1.0  0.4165942371454746  0.343822158884393  0.655839794085864  1.0000
  O   O30       1.0  0.28999304579730983  0.389165446712731  0.704851473586267  1.0000
