data_image0
_chemical_formula_structural       Zn2P2H14C12N2O6
_chemical_formula_sum              "Zn2 P2 H14 C12 N2 O6"
_cell_length_a       5.125475470895783
_cell_length_b       8.847447404714334
_cell_length_c       11.278500005252848
_cell_angle_alpha    84.07758705409952
_cell_angle_beta     79.23593033080269
_cell_angle_gamma    74.0936324158756

_space_group_name_H-M_alt    "P 1"
_space_group_IT_number       1

loop_
  _space_group_symop_operation_xyz
  'x, y, z'

loop_
  _atom_site_type_symbol
  _atom_site_label
  _atom_site_symmetry_multiplicity
  _atom_site_fract_x
  _atom_site_fract_y
  _atom_site_fract_z
  _atom_site_occupancy
  Zn  Zn1       1.0  0.15073389627944778  0.15950271879265196  0.9200094771447382  1.0000
  Zn  Zn2       1.0  0.8492678052241516  0.840496237872941  0.07998913398667185  1.0000
  P   P1        1.0  0.5709517880849334  0.2080131122306952  0.06372626296479925  1.0000
  P   P2        1.0  0.42905189394424786  0.7919858322985079  0.936273072526568  1.0000
  H   H1        1.0  0.8136739874614279  0.3440008619769372  0.15576663363096802  1.0000
  H   H2        1.0  0.1863236683848797  0.655998189839103  0.8442349630551649  1.0000
  H   H3        1.0  0.48608608821133  0.3462172063952097  0.24584385071350576  1.0000
  H   H4        1.0  0.5139140567879535  0.6537806424349882  0.7541576475562553  1.0000
  H   H5        1.0  0.5097047782203816  0.4769488651516838  0.11324379114113009  1.0000
  H   H6        1.0  0.4902958415638495  0.5230478211801426  0.8867586580621637  1.0000
  H   H7        1.0  0.8985737875669175  0.4481839964916078  0.7750582678681754  1.0000
  H   H8        1.0  0.10142087049903382  0.5518174491597136  0.22494425001064405  1.0000
  H   H9        1.0  0.03706853009968821  0.6086025880735164  0.5937549200633683  1.0000
  H   H10       1.0  0.9629276167856773  0.3914000221153203  0.4062482580968095  1.0000
  H   H11       1.0  0.8336852002013161  0.26755009558812765  0.5511796157572776  1.0000
  H   H12       1.0  0.1663095763132034  0.7324512508344654  0.4488166941370578  1.0000
  H   H13       1.0  0.6577333588112495  0.12375379880578662  0.7360148908225883  1.0000
  H   H14       1.0  0.34225995950599497  0.8762510634630091  0.2639803399810106  1.0000
  C   C1        1.0  0.5947928885570591  0.3593743475799158  0.1533939876200492  1.0000
  C   C2        1.0  0.40520977943764785  0.6406222699133864  0.8466056385234924  1.0000
  C   C3        1.0  0.10327302028566271  0.4127176530731163  0.721534533542318  1.0000
  C   C4        1.0  0.8967281218268752  0.5872825369685231  0.2784675609301956  1.0000
  C   C5        1.0  0.1839386121946518  0.5012727688306455  0.6192801376625356  1.0000
  C   C6        1.0  0.8160566020420534  0.49873215217941436  0.38072025177565655  1.0000
  C   C7        1.0  0.4514424936379983  0.45332554550828524  0.5537710400567094  1.0000
  C   C8        1.0  0.5485537209322616  0.546677007978424  0.4462285906837595  1.0000
  C   C9        1.0  0.6232554518634358  0.31320044381934753  0.5962434092143951  1.0000
  C   C10       1.0  0.3767368354981144  0.6868021055890737  0.40375299909630513  1.0000
  C   C11       1.0  0.5279217794274373  0.23087172471870332  0.6993548692233703  1.0000
  C   C12       1.0  0.47208034609742805  0.7691261119751049  0.30064735340634746  1.0000
  N   N1        1.0  0.2715644506613302  0.2800910953529652  0.7611238190471854  1.0000
  N   N2        1.0  0.7284387565829106  0.7199090116746166  0.2388745655106491  1.0000
  O   O1        1.0  0.26609563166579164  0.2378545459399533  0.05101456603784981  1.0000
  O   O2        1.0  0.733912540183475  0.762138460556699  0.9489831536417057  1.0000
  O   O3        1.0  0.6799695942089344  0.05127029803903581  0.13407876517048586  1.0000
  O   O4        1.0  0.32003806579263755  0.9487286080418471  0.8659211321858677  1.0000
  O   O5        1.0  0.7494755378700121  0.2221008678944472  0.9377393890787573  1.0000
  O   O6        1.0  0.2505321221315597  0.7778980381864359  0.06226050827759623  1.0000
