data_image0
_chemical_formula_structural       Cu4H36C28S4I4N4
_chemical_formula_sum              "Cu4 H36 C28 S4 I4 N4"
_cell_length_a       7.382685731165332
_cell_length_b       9.473676909136854
_cell_length_c       14.850766886181905
_cell_angle_alpha    89.0334689986993
_cell_angle_beta     87.94213516983336
_cell_angle_gamma    68.51107441447331

_space_group_name_H-M_alt    "P 1"
_space_group_IT_number       1

loop_
  _space_group_symop_operation_xyz
  'x, y, z'

loop_
  _atom_site_type_symbol
  _atom_site_label
  _atom_site_symmetry_multiplicity
  _atom_site_fract_x
  _atom_site_fract_y
  _atom_site_fract_z
  _atom_site_occupancy
  Cu  Cu1       1.0  0.5235361809590274  0.870948591633187  0.5418695853046742  1.0000
  Cu  Cu2       1.0  0.4764615143584977  0.12905576684887168  0.4581301103764376  1.0000
  Cu  Cu3       1.0  0.5372066553807288  0.8612493114594882  0.9667601217201426  1.0000
  Cu  Cu4       1.0  0.4627933062470433  0.13874712289859303  0.03323892833083161  1.0000
  H   H1        1.0  0.49831325170715984  0.901267909803785  0.7574083286595511  1.0000
  H   H2        1.0  0.5016846245727039  0.0987330521311094  0.2425927378585798  1.0000
  H   H3        1.0  0.8761953217394306  0.0010960174639791024  0.6020755809897622  1.0000
  H   H4        1.0  0.12380508618736044  0.9989083084923815  0.3979254198682158  1.0000
  H   H5        1.0  0.6575991939172356  0.07839228106432469  0.6689453690931944  1.0000
  H   H6        1.0  0.34240206808004103  0.9216131727572615  0.33105426291584916  1.0000
  H   H7        1.0  0.059395286856691654  0.8773877617878654  0.7389355375825633  1.0000
  H   H8        1.0  0.9406029310713394  0.12261546561558835  0.2610634856114943  1.0000
  H   H9        1.0  0.965440813220866  0.07563158818197728  0.7470261514003483  1.0000
  H   H10       1.0  0.03456011731643132  0.9243716066957787  0.252974176970561  1.0000
  H   H11       1.0  0.6778703566335764  0.06588747271511862  0.8423080081810995  1.0000
  H   H12       1.0  0.3221305739037135  0.9341157221626377  0.15769232018981685  1.0000
  H   H13       1.0  0.9062107739973302  0.9745084771097724  0.8929405646941506  1.0000
  H   H14       1.0  0.0937906791504588  0.025493586689371697  0.10705909118969004  1.0000
  H   H15       1.0  0.2940278260397592  0.7734740889638801  0.8052896212064411  1.0000
  H   H16       1.0  0.7059731553385759  0.2265200669251684  0.19471145127592857  1.0000
  H   H17       1.0  0.2005604951412181  0.5461056561844658  0.7996549699055822  1.0000
  H   H18       1.0  0.7994539446325888  0.45388271094638105  0.20034863433000547  1.0000
  H   H19       1.0  0.4422220484007796  0.2998586704011714  0.7448944713998105  1.0000
  H   H20       1.0  0.5577952595740286  0.7001353229573442  0.2551076973326475  1.0000
  H   H21       1.0  0.7781582940434719  0.28358905960570974  0.6957691992522115  1.0000
  H   H22       1.0  0.22185591902104557  0.716411746323388  0.3042316165537927  1.0000
  H   H23       1.0  0.8684797061026829  0.5094528773427242  0.7023430285646699  1.0000
  H   H24       1.0  0.13152019449587732  0.49055258947934277  0.2976566243370513  1.0000
  H   H25       1.0  0.24047093592916724  0.48440697897389384  0.46169723205226637  1.0000
  H   H26       1.0  0.7595274019319831  0.515601884346374  0.5383037648295501  1.0000
  H   H27       1.0  0.03798063653670887  0.6230979809545829  0.5198587372663044  1.0000
  H   H28       1.0  0.9620046455065034  0.3769008325160996  0.48014456061000044  1.0000
  H   H29       1.0  0.22305922319195304  0.479336899513882  0.5815383224963357  1.0000
  H   H30       1.0  0.7769425563217353  0.5206674199667276  0.418461310506757  1.0000
  H   H31       1.0  0.03698602338167948  0.630144041114704  0.0056857631552987035  1.0000
  H   H32       1.0  0.9630050866572902  0.36985701192150344  0.9943100199773627  1.0000
  H   H33       1.0  0.18237822593384592  0.5370136271787798  0.09785382842483871  1.0000
  H   H34       1.0  0.8176155967143828  0.462987393331737  0.9021432598846816  1.0000
  H   H35       1.0  0.24936302574097619  0.4599891016117114  0.9870706488079863  1.0000
  H   H36       1.0  0.7506323596446691  0.5400085224006048  0.012925095521445907  1.0000
  C   C1        1.0  0.6317991292138814  0.7989385195716493  0.7523722903123942  1.0000
  C   C2        1.0  0.36819875725416296  0.2010624488879671  0.24762742924352216  1.0000
  C   C3        1.0  0.8007890571368325  0.9855876859666352  0.6644518819741805  1.0000
  C   C4        1.0  0.19920863818069276  0.014416672515423598  0.3355478137069384  1.0000
  C   C5        1.0  0.9228940995168884  0.9757628534387736  0.7461943815681238  1.0000
  C   C6        1.0  0.0771059871380899  0.0242392200984938  0.2538059686895053  1.0000
  C   C7        1.0  0.8183530075530357  0.9705262476516198  0.8354873598533106  1.0000
  C   C8        1.0  0.18164538624323973  0.029473579942290894  0.16451370765886256  1.0000
  C   C9        1.0  0.5839366602596812  0.6576933571112703  0.751912925861376  1.0000
  C   C10       1.0  0.4160701032676074  0.34230300898203575  0.24808669320731985  1.0000
  C   C11       1.0  0.39775308177037544  0.6655959906807779  0.7804534731770121  1.0000
  C   C12       1.0  0.6022550329674632  0.33440035588731826  0.21954747196122076  1.0000
  C   C13       1.0  0.3472411129657901  0.5374486222102844  0.7781549684749296  1.0000
  C   C14       1.0  0.6527706243869247  0.46253978397098894  0.22184598362158436  1.0000
  C   C15       1.0  0.4832527853937094  0.3993020633229065  0.7474356741478871  1.0000
  C   C16       1.0  0.5167650299093298  0.6006907891699099  0.2525678425408273  1.0000
  C   C17       1.0  0.6704883183678874  0.39014396713346844  0.7202039418543296  1.0000
  C   C18       1.0  0.3295255988952661  0.609854602688344  0.279792855945793  1.0000
  C   C19       1.0  0.7214661000338367  0.5180444186022725  0.7231147029084258  1.0000
  C   C20       1.0  0.2785423461639811  0.481954186909654  0.2768855458679341  1.0000
  C   C21       1.0  0.3002620433450432  0.6554542429832466  0.5261803308125794  1.0000
  C   C22       1.0  0.699725212175828  0.34455811436332334  0.47382080933585524  1.0000
  C   C23       1.0  0.19440144317083952  0.5548564061509397  0.5224266009773261  1.0000
  C   C24       1.0  0.8055950462398656  0.4451445524726195  0.4775778538390157  1.0000
  C   C25       1.0  0.30253642931255337  0.6579383310768279  0.01168328427706911  1.0000
  C   C26       1.0  0.6974529979560417  0.34205141092841984  0.9883193480704481  1.0000
  C   C27       1.0  0.18658762622622055  0.5655796286444924  0.025970148492042707  1.0000
  C   C28       1.0  0.8134028514573047  0.4344169260782423  0.9740229864777066  1.0000
  S   S1        1.0  0.7588948154114092  0.8111265643668729  0.646668287615242  1.0000
  S   S2        1.0  0.24110183977920502  0.1888800595347675  0.35333207955890344  1.0000
  S   S3        1.0  0.7711173031400448  0.7962404464289107  0.8526818303505339  1.0000
  S   S4        1.0  0.228879884849249  0.2037650529188468  0.1473165173743283  1.0000
  I   I1        1.0  0.7488779095070939  0.868190485701625  0.39848310774223  1.0000
  I   I2        1.0  0.25111965059505087  0.13180822707652598  0.6015166346944485  1.0000
  I   I3        1.0  0.7411472260609386  0.891330476777888  0.10179544347618473  1.0000
  I   I4        1.0  0.258853574355058  0.10866707565832459  0.8982042581691803  1.0000
  N   N1        1.0  0.38503144011293233  0.7374585033858096  0.5289317520610197  1.0000
  N   N2        1.0  0.6149502295035775  0.2625482569964247  0.47107019189478905  1.0000
  N   N3        1.0  0.39528068453196863  0.7331567955047474  0.9987997686756034  1.0000
  N   N4        1.0  0.6047160469701327  0.2668408057200009  0.0011979752044694997  1.0000
