data_image0
_chemical_formula_structural       U2H32C32N4O12
_chemical_formula_sum              "U2 H32 C32 N4 O12"
_cell_length_a       7.419367428823261
_cell_length_b       9.988094211699366
_cell_length_c       12.157989965541331
_cell_angle_alpha    89.42796495086478
_cell_angle_beta     99.69525912218573
_cell_angle_gamma    105.5243144253263

_space_group_name_H-M_alt    "P 1"
_space_group_IT_number       1

loop_
  _space_group_symop_operation_xyz
  'x, y, z'

loop_
  _atom_site_type_symbol
  _atom_site_label
  _atom_site_symmetry_multiplicity
  _atom_site_fract_x
  _atom_site_fract_y
  _atom_site_fract_z
  _atom_site_occupancy
  U   U1        1.0  0.6164428489259848  0.2953857987181152  0.24929068777964145  1.0000
  U   U2        1.0  0.38355169604962913  0.7046117704982394  0.7507118258510844  1.0000
  H   H1        1.0  0.9379800786009012  0.9403092727304312  0.18930102284559777  1.0000
  H   H2        1.0  0.06201520022353439  0.059690392737039084  0.8106990904258281  1.0000
  H   H3        1.0  0.0865452443310204  0.1058577900705941  0.17721843773031049  1.0000
  H   H4        1.0  0.9134585433596952  0.8941388648501629  0.8227800884395008  1.0000
  H   H5        1.0  0.8817428049672316  0.1061421973789791  0.9783363367249223  1.0000
  H   H6        1.0  0.11825769051424835  0.8938606489915987  0.021661007613822406  1.0000
  H   H7        1.0  0.785541915413816  0.9282160603293547  0.9914694614999034  1.0000
  H   H8        1.0  0.2144588530743476  0.07178366879437452  0.008529567332132601  1.0000
  H   H9        1.0  0.08728449614168451  0.29515579917936213  0.9947743391926309  1.0000
  H   H10       1.0  0.9127159030350567  0.7048428621912636  0.005228768456703358  1.0000
  H   H11       1.0  0.2332063088296862  0.4184827141105742  0.9212930203946641  1.0000
  H   H12       1.0  0.766789610266862  0.5815148850395246  0.07870716595645179  1.0000
  H   H13       1.0  0.0770883527217663  0.4940115758933956  0.12378445530046629  1.0000
  H   H14       1.0  0.9229131468872183  0.5059902270499564  0.8762154630438842  1.0000
  H   H15       1.0  0.19069727157463495  0.611702517720076  0.030137484215401904  1.0000
  H   H16       1.0  0.8093042280343495  0.38829928522327617  0.9698624341289417  1.0000
  H   H17       1.0  0.5890167308200418  0.6308116725724915  0.2493425342928006  1.0000
  H   H18       1.0  0.4109886092790377  0.36919326451662476  0.7506594098021679  1.0000
  H   H19       1.0  0.7191390889683474  0.8611265170482553  0.35245546189020865  1.0000
  H   H20       1.0  0.2808576507337435  0.13887728484270673  0.6475480753416533  1.0000
  H   H21       1.0  0.8709205875381014  0.8646928396644925  0.5563088506148118  1.0000
  H   H22       1.0  0.12907605995125948  0.13530681087375032  0.4436955151202326  1.0000
  H   H23       1.0  0.881747387909634  0.6426755289479189  0.6436408205111235  1.0000
  H   H24       1.0  0.11825264400168577  0.3573220814932228  0.3563638985518125  1.0000
  H   H25       1.0  0.8068727692126954  0.45241084574819734  0.7128067962161777  1.0000
  H   H26       1.0  0.19311629019120594  0.5475866934591237  0.28719186704652333  1.0000
  H   H27       1.0  0.8040526846937298  0.2177498240938647  0.7841770315295022  1.0000
  H   H28       1.0  0.19594012639755218  0.7822467259458463  0.215820373647496  1.0000
  H   H29       1.0  0.7279090659387393  0.016228901358957205  0.6458772785772666  1.0000
  H   H30       1.0  0.27209033252050574  0.9837708314782536  0.35411914272695094  1.0000
  H   H31       1.0  0.672062125621558  0.06331761417254711  0.4419071274585633  1.0000
  H   H32       1.0  0.32794111537378257  0.9366852696340401  0.5580888521925828  1.0000
  C   C1        1.0  0.8050855609291859  0.1047799014682411  0.1845730244135169  1.0000
  C   C2        1.0  0.19492151987424944  0.8952261108762376  0.8154258034561579  1.0000
  C   C3        1.0  0.9434462054446653  0.0379670936600007  0.14530576980146034  1.0000
  C   C4        1.0  0.05655456236149806  0.9620326298558555  0.854694081498472  1.0000
  C   C5        1.0  0.9135466547223957  0.014100138347295399  0.018946632584089667  1.0000
  C   C6        1.0  0.08644926642015348  0.9858974776264233  0.9810510863633225  1.0000
  C   C7        1.0  0.3575154764077766  0.38357608484627553  0.08549704690852879  1.0000
  C   C8        1.0  0.6424859323524927  0.6164215779600896  0.91450205500319  1.0000
  C   C9        1.0  0.19000870595854016  0.3989396575969266  0.0033287782362804975  1.0000
  C   C10       1.0  0.8099958114889957  0.6010590599277067  0.9966722823816525  1.0000
  C   C11       1.0  0.09645740954695735  0.5070116190569325  0.03653852823752151  1.0000
  C   C12       1.0  0.9035457371896526  0.49298709657330886  0.9634607473205036  1.0000
  C   C13       1.0  0.6558661089360739  0.637977219464503  0.3368391799081181  1.0000
  C   C14       1.0  0.34413538930891013  0.36202457226310975  0.6631623833720326  1.0000
  C   C15       1.0  0.7275745235538975  0.7658274986490596  0.39504927101081216  1.0000
  C   C16       1.0  0.2724273392284928  0.23417532157655077  0.604953970727351  1.0000
  C   C17       1.0  0.809482855279654  0.7678676051707781  0.5071034150806426  1.0000
  C   C18       1.0  0.19051553018605455  0.23213309819133335  0.49290112430070815  1.0000
  C   C19       1.0  0.8156407918533333  0.6427662612603695  0.5568305785309775  1.0000
  C   C20       1.0  0.18435933295271667  0.3572355061413647  0.4431724895608794  1.0000
  C   C21       1.0  0.7412574940538477  0.5183400379490024  0.4928499687503772  1.0000
  C   C22       1.0  0.2587426314342024  0.4816617350606122  0.507152276873569  1.0000
  C   C23       1.0  0.7455396965647266  0.3821472582074677  0.5396079038940015  1.0000
  C   C24       1.0  0.2544590588944047  0.6178545185156281  0.46039173420214036  1.0000
  C   C25       1.0  0.7820298672989663  0.364683271515304  0.654944562048712  1.0000
  C   C26       1.0  0.21796404081455018  0.6353163920577742  0.3450537661628132  1.0000
  C   C27       1.0  0.7787092512654609  0.2331707376210161  0.694552827585305  1.0000
  C   C28       1.0  0.2212808149939534  0.7668257805905585  0.30544511981139516  1.0000
  C   C29       1.0  0.73788335321332  0.12155970101748181  0.6181523722614486  1.0000
  C   C30       1.0  0.2621143065875701  0.8784389733879795  0.38184469786436637  1.0000
  C   C31       1.0  0.7033911417053034  0.14681420227915962  0.5048473352179812  1.0000
  C   C32       1.0  0.29660862333734883  0.8531865758796758  0.49514829714054537  1.0000
  N   N1        1.0  0.6621501424227033  0.5166697269316103  0.38381300430014414  1.0000
  N   N2        1.0  0.3378544651915548  0.48333312512213694  0.6161896952183169  1.0000
  N   N3        1.0  0.707702686810201  0.27364650216182446  0.46547776140274516  1.0000
  N   N4        1.0  0.29229808304196325  0.7263532381776443  0.5345196224934767  1.0000
  O   O1        1.0  0.40502407322271244  0.1652995037405347  0.2741369295918332  1.0000
  O   O2        1.0  0.5949737646441307  0.8346918796338656  0.7258659434020558  1.0000
  O   O3        1.0  0.833098608680487  0.42119669693880724  0.2276208031478788  1.0000
  O   O4        1.0  0.16689813511361243  0.5788071385993873  0.772377799276569  1.0000
  O   O5        1.0  0.8172990742767464  0.1316349912218797  0.2895194288834588  1.0000
  O   O6        1.0  0.1827083731100956  0.8683720664442093  0.7104786100405177  1.0000
  O   O7        1.0  0.68082272985189  0.14298212335944535  0.11531258234031579  1.0000
  O   O8        1.0  0.31918535917106544  0.8570228792050263  0.8846838847275436  1.0000
  O   O9        1.0  0.46992947606599944  0.3180585740324204  0.05692204791673559  1.0000
  O   O10       1.0  0.5300694615510935  0.6819359453068331  0.9430784582400662  1.0000
  O   O11       1.0  0.3862743741168656  0.42842830620768524  0.18742055672979055  1.0000
  O   O12       1.0  0.6137307849667762  0.5715683562153302  0.812578932032025  1.0000
