data_image0
_chemical_formula_structural       Cu12H36C60N64
_chemical_formula_sum              "Cu12 H36 C60 N64"
_cell_length_a       26.043620901855107
_cell_length_b       26.40852957896893
_cell_length_c       27.62519424726256
_cell_angle_alpha    91.59332281359833
_cell_angle_beta     93.23364817125673
_cell_angle_gamma    90.42073412742118

_space_group_name_H-M_alt    "P 1"
_space_group_IT_number       1

loop_
  _space_group_symop_operation_xyz
  'x, y, z'

loop_
  _atom_site_type_symbol
  _atom_site_label
  _atom_site_symmetry_multiplicity
  _atom_site_fract_x
  _atom_site_fract_y
  _atom_site_fract_z
  _atom_site_occupancy
  Cu  Cu1       1.0  0.08392469715166581  0.12901711600881777  0.1759687600891766  1.0000
  Cu  Cu2       1.0  0.1349120740418144  0.17190319681135685  0.08379453611347998  1.0000
  Cu  Cu3       1.0  0.17746467760814974  0.07058957373296691  0.1351009229604685  1.0000
  Cu  Cu4       1.0  0.4180470990716429  0.862158785250017  0.6932651032050359  1.0000
  Cu  Cu5       1.0  0.3702745566830573  0.8257484306055857  0.5898657496093661  1.0000
  Cu  Cu6       1.0  0.3320298131742875  0.9285492858073281  0.6403685552738452  1.0000
  Cu  Cu7       1.0  0.9088861166118536  0.6325040953183106  0.32711272064197056  1.0000
  Cu  Cu8       1.0  0.8545992903968413  0.6817873703717722  0.41628285567832524  1.0000
  Cu  Cu9       1.0  0.8051919534221741  0.5835512203197197  0.3642553774914034  1.0000
  Cu  Cu10      1.0  0.5808997027091112  0.36482283180561836  0.8113497873957626  1.0000
  Cu  Cu11      1.0  0.6295894810052334  0.350024230148108  0.9177617410020174  1.0000
  Cu  Cu12      1.0  0.696716186231676  0.3962328268412918  0.838032278607521  1.0000
  H   H1        1.0  0.0054480914313544  0.21606332816853063  0.1982586116988188  1.0000
  H   H2        1.0  0.06563291287611861  0.2710880638552311  0.0659042899143714  1.0000
  H   H3        1.0  0.18649174846853367  0.9779563333261623  0.20845278090931874  1.0000
  H   H4        1.0  0.0500945123262042  0.05347164209810979  0.25642541077974806  1.0000
  H   H5        1.0  0.21071216353764305  0.17816046562612087  0.9978679259361413  1.0000
  H   H6        1.0  0.26462904655340236  0.0400731375434304  0.06465253977411578  1.0000
  H   H7        1.0  0.49510965189527684  0.7716684409787787  0.7165009832794664  1.0000
  H   H8        1.0  0.439444314673935  0.7285568939149911  0.569964668742017  1.0000
  H   H9        1.0  0.3273211631203381  0.022263860090575304  0.7160895053389564  1.0000
  H   H10       1.0  0.4499074291075332  0.9342003082415002  0.784483392100732  1.0000
  H   H11       1.0  0.29697186475508636  0.8221811672923989  0.49378101566656335  1.0000
  H   H12       1.0  0.2499382665746097  0.9645369902453493  0.5590059491064565  1.0000
  H   H13       1.0  0.008141636678701  0.7052686634494804  0.32452458775499327  1.0000
  H   H14       1.0  0.9345532283880832  0.7689575375214235  0.449135254415978  1.0000
  H   H15       1.0  0.7834275162733919  0.4972872064378321  0.2831818137280564  1.0000
  H   H16       1.0  0.9267998714774636  0.5593187949813867  0.23680665215007923  1.0000
  H   H17       1.0  0.7729112624314852  0.7050351850862738  0.4952264123471081  1.0000
  H   H18       1.0  0.7119717956959591  0.5629388748684575  0.4326331671034821  1.0000
  H   H19       1.0  0.4864703045281971  0.2860919472274333  0.8110455946980932  1.0000
  H   H20       1.0  0.5431656989179603  0.28213126657671944  0.9616592685007885  1.0000
  H   H21       1.0  0.721545351751658  0.4609915041276623  0.7472723028335861  1.0000
  H   H22       1.0  0.5577530085590328  0.43474431461999774  0.7190706440068481  1.0000
  H   H23       1.0  0.7086244526040418  0.3597198172519569  0.01051915447536802  1.0000
  H   H24       1.0  0.8073121186742827  0.39998847996225356  0.8958242844841917  1.0000
  H   H25       1.0  0.9536829859880528  0.3105213005543773  0.06525851908652668  1.0000
  H   H26       1.0  0.5552132740032647  0.7006216279299124  0.5791079652577054  1.0000
  H   H27       1.0  0.033483366207022414  0.8233642423978224  0.3307102750259289  1.0000
  H   H28       1.0  0.47064994810047994  0.17406896656365223  0.848440976544367  1.0000
  H   H29       1.0  0.17372376143788412  0.9669631097465726  0.32982682069513186  1.0000
  H   H30       1.0  0.5793260840103969  0.5480792634934274  0.6972614073896962  1.0000
  H   H31       1.0  0.32845805232846476  0.04156099996364301  0.8336707296520911  1.0000
  H   H32       1.0  0.9319818308827055  0.45689640847559326  0.19928368001086477  1.0000
  H   H33       1.0  0.32121382932854203  0.17436145096340994  0.9729551702654643  1.0000
  H   H34       1.0  0.6941435632697264  0.5635796321119528  0.5458631575795465  1.0000
  H   H35       1.0  0.7850900366593406  0.4077025662818343  0.0673284422539027  1.0000
  H   H36       1.0  0.17998520390083436  0.8347325615345865  0.46535748917571595  1.0000
  C   C1        1.0  0.0258872977377322  0.2219405071338585  0.16572715668531393  1.0000
  C   C2        1.0  0.0217269479461208  0.26133925081373377  0.1330903639886287  1.0000
  C   C3        1.0  0.05658554834658251  0.2502835137315174  0.09768468512653067  1.0000
  C   C4        1.0  0.15461642845761506  0.0031557018388070996  0.21440832047331776  1.0000
  C   C5        1.0  0.11554386289618183  0.9998686158904561  0.24687588849805303  1.0000
  C   C6        1.0  0.0844866224136709  0.042004039790832316  0.23881937587705682  1.0000
  C   C7        1.0  0.21773754295464443  0.14576346267959647  0.02054124937045289  1.0000
  C   C8        1.0  0.2532300008801229  0.10663607940454511  0.016384674145129494  1.0000
  C   C9        1.0  0.24520610841034343  0.0748108385655755  0.054874150648892284  1.0000
  C   C10       1.0  0.4755939564753363  0.7684729847785546  0.680818534986038  1.0000
  C   C11       1.0  0.4814171881242118  0.7325330394468562  0.6435267898585195  1.0000
  C   C12       1.0  0.4471875529644508  0.7464034871692319  0.6054995470445234  1.0000
  C   C13       1.0  0.35558197503475253  0.9940159531128641  0.7265180517438308  1.0000
  C   C14       1.0  0.3916623695643295  0.993986951587793  0.765959846146579  1.0000
  C   C15       1.0  0.4186608335540996  0.9487577003274835  0.7614151494170611  1.0000
  C   C16       1.0  0.29145098766974803  0.8554337555813164  0.5167838449787965  1.0000
  C   C17       1.0  0.25864592598416186  0.896513976517376  0.5095939638376448  1.0000
  C   C18       1.0  0.267553333369044  0.928602152235669  0.5502954860629143  1.0000
  C   C19       1.0  0.9830220963345585  0.7146166618439976  0.35341073483173346  1.0000
  C   C20       1.0  0.9883998595433641  0.7520387712651413  0.39017254219166375  1.0000
  C   C21       1.0  0.9452638662840089  0.7471436246226871  0.4175153300591176  1.0000
  C   C22       1.0  0.8186168278570563  0.5184658882100946  0.2789450360821277  1.0000
  C   C23       1.0  0.8547752194558528  0.5130514043978635  0.24374471737630188  1.0000
  C   C24       1.0  0.8923160826794501  0.5501932657398356  0.2551374777507788  1.0000
  C   C25       1.0  0.7651699709145847  0.6703608093636785  0.47406192156620347  1.0000
  C   C26       1.0  0.7263876783136497  0.634215839081939  0.4782286435899578  1.0000
  C   C27       1.0  0.733813538130896  0.5972475453634799  0.4421932074845499  1.0000
  C   C28       1.0  0.5071095465501045  0.29115707042865313  0.8460697462882862  1.0000
  C   C29       1.0  0.49818985013465084  0.26953228651780853  0.8904916440915113  1.0000
  C   C30       1.0  0.5362672247243552  0.28941363173231577  0.9234170770687056  1.0000
  C   C31       1.0  0.6817267170129285  0.4487266132116972  0.7473100297003157  1.0000
  C   C32       1.0  0.6396583281254993  0.46216949044110583  0.7169068056895114  1.0000
  C   C33       1.0  0.597572835932624  0.4354634529834557  0.7329110187743665  1.0000
  C   C34       1.0  0.7250463345799432  0.36954246829483844  0.9767688476775118  1.0000
  C   C35       1.0  0.7759050092224199  0.38116171358861817  0.9673489351227713  1.0000
  C   C36       1.0  0.7757129205161563  0.3899553765346794  0.917703150429716  1.0000
  C   C37       1.0  0.9321913947768083  0.3616146911803568  0.12793825145126186  1.0000
  C   C38       1.0  0.9569867061576433  0.32376651487685126  0.10265411934508957  1.0000
  C   C39       1.0  0.5729638467010718  0.6355287664290401  0.6288969005818001  1.0000
  C   C40       1.0  0.5489461656732645  0.6782533626178375  0.6103416860840055  1.0000
  C   C41       1.0  0.08677391284983568  0.8456554565528693  0.3954733389973554  1.0000
  C   C42       1.0  0.0489243303584175  0.8193798782007208  0.367459179407902  1.0000
  C   C43       1.0  0.41008820101492205  0.1687598976255344  0.9038055368731647  1.0000
  C   C44       1.0  0.4489304660032048  0.18905697938628666  0.8776680097880527  1.0000
  C   C45       1.0  0.10859934172957252  0.9119495641654893  0.34094520268261863  1.0000
  C   C46       1.0  0.13752447124425524  0.9484986346301981  0.3193371963755638  1.0000
  C   C47       1.0  0.6278045640473805  0.5612660094622584  0.6332520040033102  1.0000
  C   C48       1.0  0.6089377181380797  0.5378555168601125  0.6731282346724825  1.0000
  C   C49       1.0  0.39809876270867767  0.0888961984239955  0.859483243101941  1.0000
  C   C50       1.0  0.36791692847067753  0.0540319765349508  0.8320880830271589  1.0000
  C   C51       1.0  0.8694851073824099  0.42572010017677536  0.14617075020406384  1.0000
  C   C52       1.0  0.8928184578690619  0.4541407073608283  0.18430440346756424  1.0000
  C   C53       1.0  0.34657035689542687  0.10730340529345027  0.9278444549790518  1.0000
  C   C54       1.0  0.3192530857478673  0.1351055302928543  0.9609732098566253  1.0000
  C   C55       1.0  0.6387680489112242  0.6232157436864014  0.5710396087864638  1.0000
  C   C56       1.0  0.6755278677549726  0.5998538122792354  0.5436732215254165  1.0000
  C   C57       1.0  0.8688438415098929  0.3866291704540216  0.06570229831981318  1.0000
  C   C58       1.0  0.8183200864052723  0.3943725938351079  0.04922771951383709  1.0000
  C   C59       1.0  0.16173981986561617  0.8988358281008857  0.4144931293777532  1.0000
  C   C60       1.0  0.18693577502980935  0.8714266890635044  0.45063271061462007  1.0000
  N   N1        1.0  0.61213674015076  0.6057462416803999  0.6102217878887756  1.0000
  N   N2        1.0  0.8919498071008012  0.39329507465728153  0.11245839067737509  1.0000
  N   N3        1.0  0.3843492535704911  0.12226967259052658  0.8969042199833337  1.0000
  N   N4        1.0  0.11973342035823721  0.8847665523546484  0.3829703259618141  1.0000
  N   N5        1.0  0.0803537722498149  0.206440131279642  0.10872711373968968  1.0000
  N   N6        1.0  0.061424938080371305  0.1891713226407745  0.1506816490404859  1.0000
  N   N7        1.0  0.103934262688874  0.06905636675671899  0.20343215231083175  1.0000
  N   N8        1.0  0.14720438716036455  0.04522201795408879  0.1883618900840247  1.0000
  N   N9        1.0  0.20692837863079921  0.09390974096920249  0.08059568602484997  1.0000
  N   N10       1.0  0.1900341194948325  0.13773313420603733  0.05954509086514288  1.0000
  N   N11       1.0  0.4222829302312335  0.7885179688013154  0.6193709831198929  1.0000
  N   N12       1.0  0.4397456588632808  0.8020504287587897  0.6658178228186172  1.0000
  N   N13       1.0  0.3996706561608789  0.9230920293754677  0.7214300961918239  1.0000
  N   N14       1.0  0.36073200332840133  0.9509129389487397  0.6999082121651765  1.0000
  N   N15       1.0  0.3037013103611059  0.9077557067315708  0.5802311781186588  1.0000
  N   N16       1.0  0.3183742509894643  0.8625592690564758  0.5596459584220737  1.0000
  N   N17       1.0  0.9157430658125494  0.7087936703251572  0.3981536584377991  1.0000
  N   N18       1.0  0.9388708688440277  0.6887639630415309  0.35855972346973886  1.0000
  N   N19       1.0  0.8793686193378961  0.5763198509401661  0.29525250036719086  1.0000
  N   N20       1.0  0.8339077157496819  0.5568390467749111  0.3097854300052915  1.0000
  N   N21       1.0  0.7751822489767478  0.6105769769347517  0.4179536681839053  1.0000
  N   N22       1.0  0.7943724576518039  0.6556759272057846  0.43756900948398675  1.0000
  N   N23       1.0  0.5663065757351475  0.32125037072641754  0.8999528405964269  1.0000
  N   N24       1.0  0.5484278201126572  0.32228489031291463  0.8522096816045204  1.0000
  N   N25       1.0  0.6136711880695032  0.4078245155369584  0.7711604224411841  1.0000
  N   N26       1.0  0.6656017832536636  0.4159799137413672  0.7799387079065453  1.0000
  N   N27       1.0  0.727176275627045  0.38387424310469936  0.8985094947283654  1.0000
  N   N28       1.0  0.6959145901488527  0.3714975452529004  0.9348921887708667  1.0000
  N   N29       1.0  0.9857694662029817  0.3273502574256852  0.18102269130051238  1.0000
  N   N30       1.0  0.9510524639429365  0.36284261256534467  0.17512559638455366  1.0000
  N   N31       1.0  0.9894395550409743  0.30331241121310637  0.13729710062899866  1.0000
  N   N32       1.0  0.517076583525899  0.6587271236550123  0.6815156652819353  1.0000
  N   N33       1.0  0.5523807734461245  0.6251284089520085  0.672068111406041  1.0000
  N   N34       1.0  0.5149093462620301  0.6911264505148577  0.6442071354036683  1.0000
  N   N35       1.0  0.053101917391387615  0.7920446599473506  0.4439661956804669  1.0000
  N   N36       1.0  0.08800704552920283  0.8278650743048458  0.4415320637577479  1.0000
  N   N37       1.0  0.029008749336441007  0.7868578472696368  0.39913638465512236  1.0000
  N   N38       1.0  0.429377284067833  0.24247091208912508  0.938597829045676  1.0000
  N   N39       1.0  0.3992721957158383  0.20235971530690486  0.9402966692688465  1.0000
  N   N40       1.0  0.459539252073327  0.23463424879467715  0.9006493797319378  1.0000
  N   N41       1.0  0.06191209506795301  0.9353611479751721  0.27724024155136107  1.0000
  N   N42       1.0  0.06316957238951912  0.9051079079461033  0.31419581535179464  1.0000
  N   N43       1.0  0.10691501598263643  0.9618539956354012  0.2801283966716354  1.0000
  N   N44       1.0  0.6760117187107612  0.4946273426795571  0.6457111051630375  1.0000
  N   N45       1.0  0.6683451740268752  0.5336290335316322  0.6177699103745551  1.0000
  N   N46       1.0  0.6400654737348644  0.49691334335800974  0.679330906353222  1.0000
  N   N47       1.0  0.4493870882707612  0.052811788108584785  0.8091835151748297  1.0000
  N   N48       1.0  0.4471800053092778  0.08672785081780178  0.8445672804738745  1.0000
  N   N49       1.0  0.4012912957195311  0.03228841605365319  0.8016882241203049  1.0000
  N   N50       1.0  0.807343765077178  0.4661800786245747  0.18016502061558265  1.0000
  N   N51       1.0  0.8176287101666944  0.4337402302330204  0.14522180350925848  1.0000
  N   N52       1.0  0.8529032523726345  0.4783498594475759  0.20440100937629066  1.0000
  N   N53       1.0  0.2962815974247449  0.052753047286458396  0.9605500067704394  1.0000
  N   N54       1.0  0.3314963126152932  0.05763016387362539  0.9288305990324018  1.0000
  N   N55       1.0  0.2888013540505839  0.0995500648838572  0.9805555557704648  1.0000
  N   N56       1.0  0.6610701551286055  0.6791371688039548  0.5187862340442919  1.0000
  N   N57       1.0  0.6311842461822794  0.6711138330118301  0.554495495592654  1.0000
  N   N58       1.0  0.6882093726426177  0.6361178894771129  0.5120734368149584  1.0000
  N   N59       1.0  0.8655747107502522  0.36737680651970084  0.9880684886440462  1.0000
  N   N60       1.0  0.8962836508183971  0.3704613767796162  0.027458737192276306  1.0000
  N   N61       1.0  0.8183002142539663  0.38241899348143693  0.0009038476090168887  1.0000
  N   N62       1.0  0.22198446960332777  0.9492242994131459  0.4471556569524182  1.0000
  N   N63       1.0  0.1842092161772585  0.9457217149335334  0.41362110087310094  1.0000
  N   N64       1.0  0.2236408788277019  0.9042840073106645  0.4700236333195632  1.0000
