data_image0
_chemical_formula_structural       Zn2H36C44S2N6O12
_chemical_formula_sum              "Zn2 H36 C44 S2 N6 O12"
_cell_length_a       8.699272672693288
_cell_length_b       9.6846425855388
_cell_length_c       13.341234020309923
_cell_angle_alpha    87.49975155485063
_cell_angle_beta     88.62198794634523
_cell_angle_gamma    77.58905284976419

_space_group_name_H-M_alt    "P 1"
_space_group_IT_number       1

loop_
  _space_group_symop_operation_xyz
  'x, y, z'

loop_
  _atom_site_type_symbol
  _atom_site_label
  _atom_site_symmetry_multiplicity
  _atom_site_fract_x
  _atom_site_fract_y
  _atom_site_fract_z
  _atom_site_occupancy
  Zn  Zn1       1.0  0.7133809706764821  0.8474993622927443  0.7746843736454352  1.0000
  Zn  Zn2       1.0  0.2866198541083662  0.1525007206047206  0.225316120027891  1.0000
  H   H1        1.0  0.22331780138434  0.25908205225682923  0.6986859534626646  1.0000
  H   H2        1.0  0.7766790761489091  0.7409149519072001  0.30131543514720954  1.0000
  H   H3        1.0  0.07269575681347358  0.20713820795108256  0.8511140017352902  1.0000
  H   H4        1.0  0.927300651935013  0.7928556441357415  0.1488875046296059  1.0000
  H   H5        1.0  0.8125094304314755  0.5861111819974312  0.9239035682959907  1.0000
  H   H6        1.0  0.18749777801507855  0.4138909423685391  0.07610129408419648  1.0000
  H   H7        1.0  0.496784591368133  0.10906483153040368  0.6698616952567633  1.0000
  H   H8        1.0  0.5032141382276903  0.8909342454482072  0.3301396025138317  1.0000
  H   H9        1.0  0.4527102251716215  0.6329052327609829  0.1570136891972709  1.0000
  H   H10       1.0  0.5472887505155981  0.3670875005140175  0.8429863359800648  1.0000
  H   H11       1.0  0.709690534252374  0.4958409389171548  0.08660145603367651  1.0000
  H   H12       1.0  0.29031372548977424  0.5041590978188424  0.9134005087351014  1.0000
  H   H13       1.0  0.193488086708264  0.010969692076408003  0.9708212889421405  1.0000
  H   H14       1.0  0.8065136235632764  0.98902617760276  0.0291808482532545  1.0000
  H   H15       1.0  0.3107416322801981  0.8477462455890361  0.06311220014997332  1.0000
  H   H16       1.0  0.6892536363169199  0.15224761886468488  0.936888566041219  1.0000
  H   H17       1.0  0.3880347825388739  0.49305988159621716  0.6647892846107553  1.0000
  H   H18       1.0  0.6119646879745205  0.5069412624423392  0.3352096832955169  1.0000
  H   H19       1.0  0.4744768373373205  0.6557324264187088  0.7750992257434888  1.0000
  H   H20       1.0  0.5255239874475279  0.34426765647875607  0.2249012679298374  1.0000
  H   H21       1.0  0.7556476357595798  0.7893515059706998  0.5534764298438404  1.0000
  H   H22       1.0  0.24435318902527564  0.210648576926765  0.4465240638294787  1.0000
  H   H23       1.0  0.6821916957667468  0.6301087143383767  0.43017589667643114  1.0000
  H   H24       1.0  0.31780569109584883  0.3698966915284386  0.5698236852367202  1.0000
  H   H25       1.0  0.20235445834315877  0.8906240665016439  0.6972575320277059  1.0000
  H   H26       1.0  0.7976510575757985  0.10937588538133271  0.3027391775094657  1.0000
  H   H27       1.0  0.24589871964955273  0.9993361737266112  0.5279582947002197  1.0000
  H   H28       1.0  0.7541093196986067  0.0006626865268372943  0.4720391819263838  1.0000
  H   H29       1.0  0.06323762713407892  0.6796954389332867  0.3869006117108214  1.0000
  H   H30       1.0  0.9367526176811153  0.3203111442737238  0.6130982401207348  1.0000
  H   H31       1.0  0.022036260251851996  0.5683962978232059  0.5568860081423708  1.0000
  H   H32       1.0  0.9779590604280912  0.4316080840032299  0.4431128790167165  1.0000
  H   H33       1.0  0.9747964900051048  0.8672490397046888  0.861949231361983  1.0000
  H   H34       1.0  0.025206001728598403  0.13275414666001945  0.1380488870273808  1.0000
  H   H35       1.0  0.88092653408016  0.018789871660871395  0.8173052243381917  1.0000
  H   H36       1.0  0.11907015537441619  0.9812134399637031  0.1826944391622902  1.0000
  C   C1        1.0  0.486198899707908  0.8292749091089036  0.9435137781724023  1.0000
  C   C2        1.0  0.5138000585111797  0.1707231100347428  0.05648755576587659  1.0000
  C   C3        1.0  0.40752786703124133  0.9535445587144833  0.8807679271066462  1.0000
  C   C4        1.0  0.5924727030889301  0.04645132333158838  0.1192334699150379  1.0000
  C   C5        1.0  0.2736172294174749  0.1723792607978538  0.7504633784500641  1.0000
  C   C6        1.0  0.7263775529267562  0.8276167374473145  0.2495388142570789  1.0000
  C   C7        1.0  0.1899082058455335  0.1438185593443819  0.8366341806664509  1.0000
  C   C8        1.0  0.8100881593934162  0.8561753199247374  0.1633695739754373  1.0000
  C   C9        1.0  0.7018017993509601  0.6397264885355796  0.9581582121047348  1.0000
  C   C10       1.0  0.29820057932224847  0.3602714935073691  0.0418453423546552  1.0000
  C   C11       1.0  0.423880902070465  0.09101353338703429  0.7348212272998823  1.0000
  C   C12       1.0  0.5761189386703762  0.908985549346205  0.2651823094957422  1.0000
  C   C13       1.0  0.501586500494973  0.6666008027379036  0.0863349496721071  1.0000
  C   C14       1.0  0.4984131580970939  0.33339403384011496  0.9136657433435644  1.0000
  C   C15       1.0  0.6437402673478231  0.590472851234658  0.0478013953921916  1.0000
  C   C16       1.0  0.3562619117084794  0.40952617052171547  0.9522006240481886  1.0000
  C   C17       1.0  0.2568006882161527  0.03307589363881651  0.9026286097484616  1.0000
  C   C18       1.0  0.7431991844959996  0.9669178941650073  0.09737286886055331  1.0000
  C   C19       1.0  0.42139656462004627  0.7869884248878093  0.03386525447472621  1.0000
  C   C20       1.0  0.5786037623736817  0.2130085240539827  0.9661368558049402  1.0000
  C   C21       1.0  0.525794647157916  0.5468416344951236  0.5352132571030879  1.0000
  C   C22       1.0  0.47420599251321244  0.453159479055003  0.46478495212556226  1.0000
  C   C23       1.0  0.4713662599256736  0.554088696906895  0.6349396020178589  1.0000
  C   C24       1.0  0.5286327533411921  0.4459145628015832  0.3650592935530454  1.0000
  C   C25       1.0  0.5192550819012709  0.6463271160262282  0.6981334960790092  1.0000
  C   C26       1.0  0.48074597150684184  0.3536719090362794  0.30186703376200086  1.0000
  C   C27       1.0  0.6739902655029297  0.7214769207900175  0.5735809527839635  1.0000
  C   C28       1.0  0.3260103306586544  0.2785242199424047  0.4264195047216717  1.0000
  C   C29       1.0  0.6311906399765873  0.6328355878834415  0.5055197272452148  1.0000
  C   C30       1.0  0.36880811566064853  0.36716874778151976  0.49448063100932416  1.0000
  C   C31       1.0  0.10911306565177628  0.7242342636845008  0.6359271370871867  1.0000
  C   C32       1.0  0.8908848074637136  0.275769008390874  0.3640710183100068  1.0000
  C   C33       1.0  0.15610910089917956  0.8464986441024815  0.44766758312376  1.0000
  C   C34       1.0  0.8438912811423193  0.15350354540412778  0.5523320887885318  1.0000
  C   C35       1.0  0.1726799934471187  0.8449086184173282  0.6291143711091394  1.0000
  C   C36       1.0  0.8273220295018219  0.15509141587018144  0.3708838650352392  1.0000
  C   C37       1.0  0.19656751636903635  0.9050803014244975  0.5349000374347597  1.0000
  C   C38       1.0  0.8034381701604687  0.09491862886657998  0.46509970597275446  1.0000
  C   C39       1.0  0.09326769674034095  0.7245982616069212  0.4555167713735173  1.0000
  C   C40       1.0  0.9067264692850472  0.27540614164718136  0.5444821250375327  1.0000
  C   C41       1.0  0.07049822183554966  0.663153358429291  0.5494292373550849  1.0000
  C   C42       1.0  0.9295010490609386  0.336848825322697  0.4505681955321704  1.0000
  C   C43       1.0  0.17404661427315904  0.9168227734931238  0.3466012496179474  1.0000
  C   C44       1.0  0.8259491636533128  0.08317949266339039  0.6533977098765149  1.0000
  S   S1        1.0  0.07888876025361914  0.641984565462046  0.7549245952953925  1.0000
  S   S2        1.0  0.9211114076678019  0.3580186728187584  0.2450742910235491  1.0000
  N   N1        1.0  0.6252126708491942  0.7560783389278569  0.9076836243894845  1.0000
  N   N2        1.0  0.3747897368303795  0.2439196249935591  0.09231843121857959  1.0000
  N   N3        1.0  0.4890728311380528  0.9849789808973313  0.7986831898487736  1.0000
  N   N4        1.0  0.5109291367631243  0.0150158128253537  0.20131748466297947  1.0000
  N   N5        1.0  0.6186883710576012  0.728963912869041  0.668665290177934  1.0000
  N   N6        1.0  0.3813124537272543  0.27103617002842384  0.33133520349539214  1.0000
  O   O1        1.0  0.9064877949007483  0.6542029690880042  0.7649036301087976  1.0000
  O   O2        1.0  0.09351255813439247  0.3457992385401453  0.23509754065482014  1.0000
  O   O3        1.0  0.13971528943648073  0.7218192243680335  0.831035257772797  1.0000
  O   O4        1.0  0.8602874309204864  0.27818290416171715  0.16896289678424378  1.0000
  O   O5        1.0  0.1628706592088349  0.49447868477104595  0.7493115918223056  1.0000
  O   O6        1.0  0.8371327585561589  0.5055255380009597  0.2506864811474045  1.0000
  O   O7        1.0  0.22990947595351943  0.0291741241004857  0.3467446812889817  1.0000
  O   O8        1.0  0.7700939592795988  0.9708248128028669  0.6532520829197921  1.0000
  O   O9        1.0  0.1322424487121694  0.8631956490446981  0.2695158971201934  1.0000
  O   O10       1.0  0.8677475674797605  0.13681199199726987  0.7304829185436787  1.0000
  O   O11       1.0  0.8722400111409383  0.9356093409501369  0.8653756115410899  1.0000
  O   O12       1.0  0.12776152555511538  0.06439282712881318  0.1346240511192462  1.0000
