data_image0
_chemical_formula_structural       NiH20C22N4O6
_chemical_formula_sum              "Ni1 H20 C22 N4 O6"
_cell_length_a       7.546072474059354
_cell_length_b       8.056824061310182
_cell_length_c       8.9020214170262
_cell_angle_alpha    90.00584790090514
_cell_angle_beta     82.99603093732982
_cell_angle_gamma    83.96037834993263

_space_group_name_H-M_alt    "P 1"
_space_group_IT_number       1

loop_
  _space_group_symop_operation_xyz
  'x, y, z'

loop_
  _atom_site_type_symbol
  _atom_site_label
  _atom_site_symmetry_multiplicity
  _atom_site_fract_x
  _atom_site_fract_y
  _atom_site_fract_z
  _atom_site_occupancy
  Ni  Ni1       1.0  0.999998520135911  7.237643067989616e-06  8.495037498327557e-06  1.0000
  H   H1        1.0  0.8030496463682512  0.3134594700984863  0.15212817738922266  1.0000
  H   H2        1.0  0.1969525308850066  0.6865593245066961  0.8478782099050194  1.0000
  H   H3        1.0  0.6249400813926228  0.07057011752356594  0.6731157603153761  1.0000
  H   H4        1.0  0.37506291797926394  0.92942271643971  0.3268773494962574  1.0000
  H   H5        1.0  0.7287507232580951  0.7729235753756143  0.7147322475530729  1.0000
  H   H6        1.0  0.2712455903710236  0.22707263870689323  0.28525459250913343  1.0000
  H   H7        1.0  0.9050663626488672  0.5982859248765421  0.5121777353518199  1.0000
  H   H8        1.0  0.09492869040865776  0.40170502326756713  0.48780980617037534  1.0000
  H   H9        1.0  0.9961070762908124  0.7169799248504916  0.2556109011066923  1.0000
  H   H10       1.0  0.003884031069191019  0.2830261704136845  0.7443789894458845  1.0000
  H   H11       1.0  0.6802578823465382  0.32668538347104453  0.6697874733199143  1.0000
  H   H12       1.0  0.3197447331012739  0.6733221426767384  0.3302211420966046  1.0000
  H   H13       1.0  0.48309814079226493  0.5695108274271307  0.7730343847765653  1.0000
  H   H14       1.0  0.5168915135144516  0.430489839177568  0.22697660136558537  1.0000
  H   H15       1.0  0.37891097856595474  0.05410580651115283  0.9243221437937238  1.0000
  H   H16       1.0  0.6210937833862147  0.9458760732979101  0.07567412218843113  1.0000
  H   H17       1.0  0.6268385345634827  0.33458729924775094  0.9469749404520867  1.0000
  H   H18       1.0  0.3731971031718189  0.6654054214680231  0.053018502585381065  1.0000
  H   H19       1.0  0.7152508494167549  0.5002289186837102  0.943069536919694  1.0000
  H   H20       1.0  0.28476757091364385  0.4997734547960703  0.05692965676797  1.0000
  C   C1        1.0  0.8049659790717031  0.21042123592433631  0.23142648954266318  1.0000
  C   C2        1.0  0.19503132366396866  0.7895902591178795  0.7685790112170707  1.0000
  C   C3        1.0  0.7545371834004514  0.0603243620554181  0.44015715942875033  1.0000
  C   C4        1.0  0.24544355941736745  0.939673013711932  0.5598485265259399  1.0000
  C   C5        1.0  0.7047412557656259  0.9952461589587925  0.5827701928224513  1.0000
  C   C6        1.0  0.2952484112219622  0.004762085077253209  0.41722870875366175  1.0000
  C   C7        1.0  0.7628535415243718  0.82825411772626  0.6048436978532122  1.0000
  C   C8        1.0  0.23713241422741763  0.17175154374118054  0.3951491616396012  1.0000
  C   C9        1.0  0.8653665048985532  0.7287012096790946  0.48882227353099944  1.0000
  C   C10       1.0  0.1346099911991062  0.271304303033034  0.5111706881293118  1.0000
  C   C11       1.0  0.9147515611335636  0.7919533833925952  0.3461635238645187  1.0000
  C   C12       1.0  0.08524148572873003  0.2080608852511787  0.6538275415424692  1.0000
  C   C13       1.0  0.8575272143518617  0.9598609082246766  0.32350432842387994  1.0000
  C   C14       1.0  0.14246490682757704  0.040146866529703104  0.6764875210711168  1.0000
  C   C15       1.0  0.6111546283920293  0.3605952063043105  0.4406217254856911  1.0000
  C   C16       1.0  0.3888395563903161  0.6394086244711445  0.5593883535045876  1.0000
  C   C17       1.0  0.5986458038802527  0.39847225373635803  0.594887158525779  1.0000
  C   C18       1.0  0.4013404832326302  0.6015299656919525  0.4051195792194592  1.0000
  C   C19       1.0  0.48725929022067044  0.5375285101985625  0.6538123141509403  1.0000
  C   C20       1.0  0.5127476854456177  0.4624812194679321  0.34618759945831096  1.0000
  C   C21       1.0  0.3109952943803762  0.17110360849374467  0.9796718329585516  1.0000
  C   C22       1.0  0.6890162749268145  0.8288755773761166  0.02033627038402835  1.0000
  N   N1        1.0  0.8848374641667079  0.058420022983710906  0.19567845082320184  1.0000
  N   N2        1.0  0.11515472082685821  0.9415828001354711  0.8043150281800279  1.0000
  N   N3        1.0  0.7224222189188723  0.218518881261808  0.3770573187894968  1.0000
  N   N4        1.0  0.277571335577676  0.7814823165444549  0.622953110930773  1.0000
  O   O1        1.0  0.14029055548890312  0.17962263117319568  0.017467295120795305  1.0000
  O   O2        1.0  0.8597179938036277  0.8203781957061268  0.9825423731641507  1.0000
  O   O3        1.0  0.4014250850837371  0.2879077733093851  0.004301843291493396  1.0000
  O   O4        1.0  0.5986155146568848  0.71205867623798  0.9957026966878927  1.0000
  O   O5        1.0  0.7445542146920446  0.3787149432212047  0.9269503368919914  1.0000
  O   O6        1.0  0.25547635708326777  0.6212853328371963  0.07303733108628307  1.0000
