data_image0
_chemical_formula_structural       Cd4H32C64N40O4
_chemical_formula_sum              "Cd4 H32 C64 N40 O4"
_cell_length_a       7.452393169263045
_cell_length_b       14.001877009860587
_cell_length_c       18.562
_cell_angle_alpha    81.15689585153986
_cell_angle_beta     83.3003886359557
_cell_angle_gamma    78.235677920582

_space_group_name_H-M_alt    "P 1"
_space_group_IT_number       1

loop_
  _space_group_symop_operation_xyz
  'x, y, z'

loop_
  _atom_site_type_symbol
  _atom_site_label
  _atom_site_symmetry_multiplicity
  _atom_site_fract_x
  _atom_site_fract_y
  _atom_site_fract_z
  _atom_site_occupancy
  Cd  Cd1       1.0  0.7322682080051877  0.1400470170161228  0.17268861420933487  1.0000
  Cd  Cd2       1.0  0.26770822203231864  0.8599585125484095  0.8273143267432345  1.0000
  Cd  Cd3       1.0  0.7667469838635484  0.6588056777992647  0.2848756778879391  1.0000
  Cd  Cd4       1.0  0.23325964388868675  0.34119469894547183  0.7151210588170329  1.0000
  H   H1        1.0  0.7610814527385087  0.5776649605801508  0.13569514731992885  1.0000
  H   H2        1.0  0.23892112178349117  0.4223354161645858  0.8643044729096444  1.0000
  H   H3        1.0  0.8176384081930549  0.8561476342503056  0.16763537543852175  1.0000
  H   H4        1.0  0.18236909660954131  0.1438578953142269  0.832356951506469  1.0000
  H   H5        1.0  0.8445093217757605  0.9127108732741218  0.03413335357746663  1.0000
  H   H6        1.0  0.15549730597646771  0.08728950347062177  0.9658569183068976  1.0000
  H   H7        1.0  0.82795420450384  0.7935202624430744  0.9461509702578823  1.0000
  H   H8        1.0  0.1720466633490929  0.2064734892476352  0.0538441108184742  1.0000
  H   H9        1.0  0.699218852319824  0.3622778292016022  0.852236755053454  1.0000
  H   H10       1.0  0.30079178123098427  0.6377188669575702  0.14776345324442994  1.0000
  H   H11       1.0  0.6708532113963771  0.184338447635902  0.8756241049439237  1.0000
  H   H12       1.0  0.32915149638942864  0.8156597207574947  0.12437944259718851  1.0000
  H   H13       1.0  0.6750595552525882  0.0974390862355889  0.0038863394500054985  1.0000
  H   H14       1.0  0.3249309070103834  0.902564971094719  0.9961171924410196  1.0000
  H   H15       1.0  0.7341209730888281  0.3474553749982761  0.08514810575790219  1.0000
  H   H16       1.0  0.2658816488648341  0.6525486823320321  0.9148516241747515  1.0000
  H   H17       1.0  0.7569071165190522  0.216800476237033  0.3222752225953016  1.0000
  H   H18       1.0  0.24307545258082555  0.7831991643905949  0.6777281137060669  1.0000
  H   H19       1.0  0.7504153587161467  0.9331248730738082  0.2855209542770822  1.0000
  H   H20       1.0  0.24959963622556106  0.0668747675538128  0.714476014613993  1.0000
  H   H21       1.0  0.7737012613400227  0.8680263561155783  0.41666571553022896  1.0000
  H   H22       1.0  0.2263393091964829  0.131965923340907  0.5833287541053238  1.0000
  H   H23       1.0  0.7799224861407907  0.9866052536250578  0.5066436417060203  1.0000
  H   H24       1.0  0.22010239293284437  0.0133855535972032  0.4933533498316507  1.0000
  H   H25       1.0  0.7639209988478798  0.4385093813888332  0.6079736372823489  1.0000
  H   H26       1.0  0.23607342178200952  0.5614873147703391  0.3920267916778997  1.0000
  H   H27       1.0  0.7538948267872387  0.6205253795307186  0.5864262793845824  1.0000
  H   H28       1.0  0.2460947584253717  0.3794735249797937  0.41357358124066923  1.0000
  H   H29       1.0  0.7442221963578179  0.7080040650995796  0.4566849767584671  1.0000
  H   H30       1.0  0.255765208159346  0.29199336717670116  0.5433146179975097  1.0000
  H   H31       1.0  0.7416202065105325  0.4501319344985006  0.37495140726161935  1.0000
  H   H32       1.0  0.25839526245754746  0.5498625533093247  0.6250499081063123  1.0000
  C   C1        1.0  0.7801353417952585  0.6509844334652186  0.1106231741870118  1.0000
  C   C2        1.0  0.21987429627113647  0.3490188877479737  0.8893736188045693  1.0000
  C   C3        1.0  0.8109645029675011  0.8063176584663551  0.128772720010204  1.0000
  C   C4        1.0  0.18904565655692815  0.19368419051260585  0.8712215256056622  1.0000
  C   C5        1.0  0.825547152615769  0.8377859289638678  0.053576947784023325  1.0000
  C   C6        1.0  0.1744613476712402  0.1622129755466375  0.9464177169971677  1.0000
  C   C7        1.0  0.8160891414878934  0.7726852036542979  0.0053457346502128345  1.0000
  C   C8        1.0  0.18392497640345337  0.2273092841535345  0.9946513341204336  1.0000
  C   C9        1.0  0.7917080626077962  0.6769590619424973  0.03452189414104368  1.0000
  C   C10       1.0  0.20830797524998704  0.3230376342166678  0.9654753673491144  1.0000
  C   C11       1.0  0.77182985515865  0.6076948582373163  0.9869625627293814  1.0000
  C   C12       1.0  0.22817620370389594  0.3923033101560804  0.013037150383269112  1.0000
  C   C13       1.0  0.7351987784144641  0.4710766747372403  0.9572000574646964  1.0000
  C   C14       1.0  0.26480645082936866  0.528920021421932  0.042800403965657124  1.0000
  C   C15       1.0  0.7179055917153576  0.3686938259654156  0.9672525315167775  1.0000
  C   C16       1.0  0.28210395148771983  0.6313021340766412  0.0327494294191411  1.0000
  C   C17       1.0  0.7004084684641043  0.32186131906883014  0.9073586262969543  1.0000
  C   C18       1.0  0.2995992022041988  0.6781361132074577  0.0926443290926429  1.0000
  C   C19       1.0  0.6843854634750102  0.22343362754941853  0.9204475297704916  1.0000
  C   C20       1.0  0.31561540437792257  0.776560124141298  0.0795545548615166  1.0000
  C   C21       1.0  0.6872158692217525  0.1746960495623355  0.9919676628808958  1.0000
  C   C22       1.0  0.3127823439093478  0.8253013827139526  0.008034658020434897  1.0000
  C   C23       1.0  0.7197826189852209  0.31420643720250035  0.03728496654674271  1.0000
  C   C24       1.0  0.2802245776567034  0.6857961478935763  0.9627131036309463  1.0000
  C   C25       1.0  0.7601344757274404  0.1403017135374967  0.34567396646482956  1.0000
  C   C26       1.0  0.2398553702141869  0.8596964548558998  0.6543243511050392  1.0000
  C   C27       1.0  0.7588158143305039  0.981917659844427  0.32487932350124277  1.0000
  C   C28       1.0  0.24118680762315853  0.0180863974858809  0.6751209451664621  1.0000
  C   C29       1.0  0.7691076431302123  0.9461777017355786  0.3991009701343274  1.0000
  C   C30       1.0  0.23091000653332835  0.05381825830647809  0.6008968399575281  1.0000
  C   C31       1.0  0.7730666097268895  0.011025562130384999  0.4481911049098741  1.0000
  C   C32       1.0  0.2269464178167271  0.9889681895603317  0.5518093327039679  1.0000
  C   C33       1.0  0.7670362610890464  0.1110889058766418  0.4210850169133025  1.0000
  C   C34       1.0  0.23296652673032275  0.8889070541654147  0.5789177991732615  1.0000
  C   C35       1.0  0.7679136776835804  0.18290669984957464  0.46951296073986987  1.0000
  C   C36       1.0  0.23209228631565554  0.817084107372686  0.5304903041119644  1.0000
  C   C37       1.0  0.7594597162553214  0.3249022188659083  0.5015959810597224  1.0000
  C   C38       1.0  0.24054868916837796  0.6750893244734683  0.4984060066060039  1.0000
  C   C39       1.0  0.7521204721255901  0.4303355369572799  0.492877950855096  1.0000
  C   C40       1.0  0.24787800173452718  0.5696611592018853  0.5071244431960052  1.0000
  C   C41       1.0  0.7566691045505679  0.4793874369519527  0.5530972798105155  1.0000
  C   C42       1.0  0.24332422573159831  0.5206085230901039  0.44690274684757725  1.0000
  C   C43       1.0  0.7526437130415077  0.5804121496488291  0.5406796679156541  1.0000
  C   C44       1.0  0.24734956980900344  0.4195801298076631  0.45932132650945323  1.0000
  C   C45       1.0  0.7461593553097644  0.6290790603929821  0.4691734854548386  1.0000
  C   C46       1.0  0.2538372460155784  0.3709191080004146  0.5308261319045897  1.0000
  C   C47       1.0  0.7444183404684424  0.4853624995646086  0.4230649461443861  1.0000
  C   C48       1.0  0.2555870546410972  0.5146260993063123  0.5769337528244236  1.0000
  C   C49       1.0  0.49172581855400926  0.49925671008743666  0.269132190417416  1.0000
  C   C50       1.0  0.5082829898936722  0.5007451388915243  0.730864812156824  1.0000
  C   C51       1.0  0.4926587608737094  0.3433294385754735  0.2434491829702523  1.0000
  C   C52       1.0  0.5073203713172846  0.6566760909890659  0.7565547088861847  1.0000
  C   C53       1.0  0.0036883848357120944  0.2834212833865877  0.2152235468526413  1.0000
  C   C54       1.0  0.9962972420099804  0.7165849822950605  0.7847864202590245  1.0000
  C   C55       1.0  0.0045504411116326  0.4305387052806892  0.2574059921423739  1.0000
  C   C56       1.0  0.9954571111226188  0.5694705048694146  0.7425988354118472  1.0000
  C   C57       1.0  0.404136392463343  0.811455755920626  0.29084993110325286  1.0000
  C   C58       1.0  0.5958837934879713  0.18854830140968196  0.7091425113282596  1.0000
  C   C59       1.0  0.1151106905546655  0.784145810998929  0.2841599764502902  1.0000
  C   C60       1.0  0.8848879730320789  0.21586560750251485  0.7158417789430372  1.0000
  C   C61       1.0  0.1177129893545583  0.0104962939255628  0.12111270417170769  1.0000
  C   C62       1.0  0.8822513284239264  0.9895129162245409  0.8788860674165588  1.0000
  C   C63       1.0  0.41154605393389704  0.02331430122803369  0.1392316115584364  1.0000
  C   C64       1.0  0.5884231466935221  0.9766963811562943  0.8607721479483174  1.0000
  N   N1        1.0  0.7892185247488895  0.7144885207549763  0.15646901104157246  1.0000
  N   N2        1.0  0.2107867993582602  0.2855155365753248  0.8435284373846484  1.0000
  N   N3        1.0  0.753956824960639  0.6226314105932786  0.9165277161654188  1.0000
  N   N4        1.0  0.24604382959493168  0.3773667578001181  0.0834722500797014  1.0000
  N   N5        1.0  0.7296191276318  0.5344651916401304  0.8973356806521197  1.0000
  N   N6        1.0  0.2703804365760406  0.4655322406361505  0.10266334455579337  1.0000
  N   N7        1.0  0.7052652593206687  0.21930180218969744  0.04916643443810639  1.0000
  N   N8        1.0  0.2947319108943632  0.780698574555039  0.9508372100692881  1.0000
  N   N9        1.0  0.7559783873863423  0.07711121213821308  0.2989829223501346  1.0000
  N   N10       1.0  0.2440166495648981  0.9228913729578707  0.7010194885209771  1.0000
  N   N11       1.0  0.7814424589594965  0.16912364301092705  0.5403019774454805  1.0000
  N   N12       1.0  0.2185743610853309  0.8308708447969051  0.4596976584341874  1.0000
  N   N13       1.0  0.775727825661001  0.2608916830018586  0.5609079427631016  1.0000
  N   N14       1.0  0.22428946841020556  0.7390976519861707  0.43909550085837173  1.0000
  N   N15       1.0  0.7428357615558242  0.5821987058840037  0.4114905573297989  1.0000
  N   N16       1.0  0.25716885136666434  0.4177921013382573  0.5885057672495009  1.0000
  N   N17       1.0  0.5250612529831217  0.579505253364637  0.2624724812093007  1.0000
  N   N18       1.0  0.47495701300175613  0.4204965956143311  0.737523539648059  1.0000
  N   N19       1.0  0.44580817375107534  0.4138575553650412  0.2835817919685439  1.0000
  N   N20       1.0  0.5541896127853008  0.5861487103166141  0.7164216795095086  1.0000
  N   N21       1.0  0.5281278361769921  0.2736787733855479  0.21228525565936712  1.0000
  N   N22       1.0  0.47184776424180813  0.7263252839447603  0.7877211272861615  1.0000
  N   N23       1.0  0.9695143572935907  0.22752938317055535  0.1794032145339841  1.0000
  N   N24       1.0  0.03046399271035229  0.7724783547453171  0.8206074614287927  1.0000
  N   N25       1.0  0.047236371155179334  0.3362251723102573  0.25924132420129803  1.0000
  N   N26       1.0  0.9527551814555228  0.6637796211371594  0.7407685360774322  1.0000
  N   N27       1.0  0.9732927983034473  0.5155484540498918  0.2624947160487423  1.0000
  N   N28       1.0  0.0267280039692182  0.4844614922173278  0.7375029407039263  1.0000
  N   N29       1.0  0.5535724497448696  0.797864089531565  0.3108015764637244  1.0000
  N   N30       1.0  0.4464071564725103  0.20213628721317176  0.6891856512026137  1.0000
  N   N31       1.0  0.2462285469681049  0.83307846002117  0.2643170337401699  1.0000
  N   N32       1.0  0.7537540695634278  0.1669248611920295  0.7356810249137807  1.0000
  N   N33       1.0  0.9866031345820616  0.7455107042815357  0.2978532099541127  1.0000
  N   N34       1.0  0.013381710076579595  0.2544977697514597  0.7021522278278454  1.0000
  N   N35       1.0  0.9578881508559436  0.0113965651557351  0.13186488809661506  1.0000
  N   N36       1.0  0.04207751799928164  0.9886126449943686  0.8681332814734902  1.0000
  N   N37       1.0  0.2904478355742414  0.006026590810620299  0.10100877467090899  1.0000
  N   N38       1.0  0.7095151311274964  0.9939826193394834  0.8989938313458339  1.0000
  N   N39       1.0  0.5344426666840791  0.0361234751251374  0.16883180379892337  1.0000
  N   N40       1.0  0.46551406609198426  0.9638842627907422  0.8311734198731457  1.0000
  O   O1        1.0  0.7617071663637917  0.5124251091360748  0.01685960363170842  1.0000
  O   O2        1.0  0.2383053871534457  0.4875737953744377  0.9831402586506215  1.0000
  O   O3        1.0  0.7531632737709871  0.2806056354263333  0.44090223028199926  1.0000
  O   O4        1.0  0.2468395140483823  0.7193903246157232  0.5590978921293086  1.0000
