data_image0
_chemical_formula_structural       Cu4H12C20N20O8
_chemical_formula_sum              "Cu4 H12 C20 N20 O8"
_cell_length_a       7.624497498752223
_cell_length_b       7.624968855852582
_cell_length_c       13.08041237498632
_cell_angle_alpha    96.55054380925091
_cell_angle_beta     96.55045552963333
_cell_angle_gamma    99.20458722022667

_space_group_name_H-M_alt    "P 1"
_space_group_IT_number       1

loop_
  _space_group_symop_operation_xyz
  'x, y, z'

loop_
  _atom_site_type_symbol
  _atom_site_label
  _atom_site_symmetry_multiplicity
  _atom_site_fract_x
  _atom_site_fract_y
  _atom_site_fract_z
  _atom_site_occupancy
  Cu  Cu1       1.0  0.60427546299681  0.3957287274922123  0.7500003740869519  1.0000
  Cu  Cu2       1.0  0.3957635336880827  0.6042324235895008  0.2499901681894769  1.0000
  Cu  Cu3       1.0  0.3243979652054065  0.6756164168126092  0.7499972825754995  1.0000
  Cu  Cu4       1.0  0.6753708148699998  0.32462769152364496  0.250003303782556  1.0000
  H   H1        1.0  0.8307134181528966  0.3039847821315433  0.9458301523309416  1.0000
  H   H2        1.0  0.6960064235325163  0.16928833033916388  0.554185452867145  1.0000
  H   H3        1.0  0.1711535708635239  0.6956861540218641  0.0558279530640036  1.0000
  H   H4        1.0  0.3043349081724783  0.8288185706746773  0.4441587264984932  1.0000
  H   H5        1.0  0.6132474973880092  0.7420334352146513  0.943529501602356  1.0000
  H   H6        1.0  0.2579794268995953  0.38676736963127917  0.5564735310601918  1.0000
  H   H7        1.0  0.3875858217157742  0.2576585484866953  0.05698997435742109  1.0000
  H   H8        1.0  0.7423221986477345  0.6124397396440954  0.443011782734807  1.0000
  H   H9        1.0  0.8348002770965763  0.020704869912364605  0.0288216861020771  1.0000
  H   H10       1.0  0.9792999444802603  0.16519786850245308  0.4711916473903699  1.0000
  H   H11       1.0  0.16658423077170434  0.9782060685991996  0.9719045795316248  1.0000
  H   H12       1.0  0.0218059295694246  0.8334221524982297  0.5280898292498506  1.0000
  C   C1        1.0  0.39512946966238627  0.026997402642095398  0.685276527187611  1.0000
  C   C2        1.0  0.9730100245530124  0.6048740609899924  0.8147247049760367  1.0000
  C   C3        1.0  0.6061200887121814  0.975552514175064  0.3165740921664479  1.0000
  C   C4        1.0  0.02440694453073889  0.393857279120013  0.183440407365616  1.0000
  C   C5        1.0  0.5169169415367207  0.0281590022229494  0.7860328418437988  1.0000
  C   C6        1.0  0.9718454762554102  0.4830869509869729  0.7139648108981618  1.0000
  C   C7        1.0  0.4839301500071471  0.9729195753395746  0.2157365796210655  1.0000
  C   C8        1.0  0.027066680733540186  0.5160561899571193  0.2842669407618814  1.0000
  C   C9        1.0  0.621582984176321  0.8698716428465048  0.9133715166824317  1.0000
  C   C10       1.0  0.1301404200469847  0.37842501278144175  0.5866267474101292  1.0000
  C   C11       1.0  0.3792131719645653  0.13005778468815518  0.08746742691226218  1.0000
  C   C12       1.0  0.8699254566994344  0.6207981752341639  0.4125331897070765  1.0000
  C   C13       1.0  0.7439737374088864  0.021860169900414006  0.9586528445237334  1.0000
  C   C14       1.0  0.9781497507072457  0.25603362941475893  0.5413562169035231  1.0000
  C   C15       1.0  0.25728939470531736  0.9776445315831523  0.04224326031177131  1.0000
  C   C16       1.0  0.022363688602027292  0.7427065646873389  0.4577516085926803  1.0000
  C   C17       1.0  0.7425615323967277  0.17826323097713007  0.913384471054407  1.0000
  C   C18       1.0  0.8217360699753371  0.2574420168482234  0.5866271147597217  1.0000
  C   C19       1.0  0.2589908974626666  0.8217652543524353  0.08801663465980168  1.0000
  C   C20       1.0  0.1782487510774686  0.7409953512675287  0.4119767513418325  1.0000
  N   N1        1.0  0.5069736909672358  0.875119067367109  0.8279256158111253  1.0000
  N   N2        1.0  0.12489300604660508  0.4930363916281806  0.6720708404661053  1.0000
  N   N3        1.0  0.4932431822223294  0.1255262603920642  0.1732758533580778  1.0000
  N   N4        1.0  0.8744498530164719  0.5067619692101388  0.3267303958962344  1.0000
  N   N5        1.0  0.6295155566727217  0.179153009800693  0.8266332763023315  1.0000
  N   N6        1.0  0.8208438672923605  0.37048712523912297  0.6733722946889459  1.0000
  N   N7        1.0  0.3718414940816075  0.8216664891590072  0.1750737501457422  1.0000
  N   N8        1.0  0.1783418814220568  0.6281280306437652  0.3249261971638475  1.0000
  N   N9        1.0  0.4214399148776025  0.46724189462229054  0.8428927412957351  1.0000
  N   N10       1.0  0.5327654000656564  0.5785757956183988  0.6570967351558396  1.0000
  N   N11       1.0  0.5765371895740259  0.5337236678792223  0.15689416804791284  1.0000
  N   N12       1.0  0.4663462956660425  0.4233831547350135  0.3430402339094414  1.0000
  N   N13       1.0  0.2991790552372677  0.35374001401261523  0.8568595642502004  1.0000
  N   N14       1.0  0.6462697663432024  0.700836922970268  0.6431377701802035  1.0000
  N   N15       1.0  0.6995831666919727  0.6467653915386079  0.143288190163787  1.0000
  N   N16       1.0  0.353290221909063  0.3003920634739431  0.35669481925103236  1.0000
  N   N17       1.0  0.1783255733132307  0.2478171821362523  0.8702078263261583  1.0000
  N   N18       1.0  0.7521977319657934  0.8216962555570221  0.6297956517266385  1.0000
  N   N19       1.0  0.8213380939277144  0.7516244868832163  0.12998925003147116  1.0000
  N   N20       1.0  0.24841509903262704  0.1787018217014094  0.3700375496776189  1.0000
  O   O1        1.0  0.4108356616821567  0.1696173829142964  0.6445000828497527  1.0000
  O   O2        1.0  0.830381801508061  0.5891680834790876  0.8555032580564799  1.0000
  O   O3        1.0  0.5912635357154201  0.8341122086034574  0.35814798491637845  1.0000
  O   O4        1.0  0.16582219170596346  0.40866210918287743  0.14184638889955886  1.0000
  O   O5        1.0  0.2912693190230655  0.8801574715229779  0.6504911297153768  1.0000
  O   O6        1.0  0.11986053350282332  0.7087352811803884  0.8495036948407417  1.0000
  O   O7        1.0  0.7098682728320824  0.12326480915331932  0.3501545109376636  1.0000
  O   O8        1.0  0.8766562266239148  0.29013287080650235  0.14987919112034837  1.0000
