data_image0
_chemical_formula_structural       Sm2H26C32O24
_chemical_formula_sum              "Sm2 H26 C32 O24"
_cell_length_a       8.901152113353266
_cell_length_b       9.794642602634086
_cell_length_c       12.1231586799379
_cell_angle_alpha    100.45045771958132
_cell_angle_beta     103.9561536706544
_cell_angle_gamma    108.42775992934752

_space_group_name_H-M_alt    "P 1"
_space_group_IT_number       1

loop_
  _space_group_symop_operation_xyz
  'x, y, z'

loop_
  _atom_site_type_symbol
  _atom_site_label
  _atom_site_symmetry_multiplicity
  _atom_site_fract_x
  _atom_site_fract_y
  _atom_site_fract_z
  _atom_site_occupancy
  Sm  Sm1       1.0  0.27193885296301806  0.03840561230610719  0.9612422362876458  1.0000
  Sm  Sm2       1.0  0.7280649660021511  0.9615955891826289  0.03875075826866241  1.0000
  H   H1        1.0  0.6835356175745773  0.42675837756495133  0.32538755018607896  1.0000
  H   H2        1.0  0.31646019524223584  0.5732427271232294  0.6746139672799529  1.0000
  H   H3        1.0  0.6793762840526938  0.46319569561717333  0.6847005613304802  1.0000
  H   H4        1.0  0.320620092046191  0.5367986832774676  0.3152983367625737  1.0000
  H   H5        1.0  0.2786030701609974  0.11420721012790838  0.39509664663540184  1.0000
  H   H6        1.0  0.72137948402586  0.8858007365631267  0.6049045249135929  1.0000
  H   H7        1.0  0.6577887849857903  0.5053295060471755  0.9507603395277612  1.0000
  H   H8        1.0  0.34221555525862624  0.49467272165416193  0.049238680971036806  1.0000
  H   H9        1.0  0.7740653365606036  0.13486204224926723  0.7944611297682371  1.0000
  H   H10       1.0  0.22594361808160102  0.8651401481078623  0.20553866945201094  1.0000
  H   H11       1.0  0.09562995189570245  0.5910560511281703  0.8419493500335521  1.0000
  H   H12       1.0  0.9043725621512095  0.4089473160470903  0.15804954040486052  1.0000
  H   H13       1.0  0.9309500169458645  0.9704364343762749  0.7933888065307926  1.0000
  H   H14       1.0  0.0690484690012525  0.029560190298681698  0.2066099810372748  1.0000
  H   H15       1.0  0.1432870494802714  0.7915807140832172  0.7390840510369543  1.0000
  H   H16       1.0  0.856713371980348  0.2084203667734954  0.2609174213445087  1.0000
  H   H17       1.0  0.018324622726616707  0.7231459047041541  0.5057813578203749  1.0000
  H   H18       1.0  0.9816766474014004  0.276838325798508  0.4942159402065158  1.0000
  H   H19       1.0  0.43984540536907707  0.2718767053185402  0.7037999956483104  1.0000
  H   H20       1.0  0.5601487613389511  0.7281233149293699  0.29619942022497275  1.0000
  H   H21       1.0  0.12545242077948868  0.3740658122766476  0.7427881910852817  1.0000
  H   H22       1.0  0.8745572237227179  0.6259352074043889  0.257214014933055  1.0000
  H   H23       1.0  0.0504417942462254  0.11438978475482742  0.7738326283389795  1.0000
  H   H24       1.0  0.9495578568083047  0.8856068035585807  0.22616800152149347  1.0000
  H   H25       1.0  0.33353895930520855  0.8075358908627308  0.8001972152389669  1.0000
  H   H26       1.0  0.6664635720036501  0.1924674357742973  0.19980414661750953  1.0000
  C   C1        1.0  0.47498543485210826  0.2621113773639864  0.347171592872904  1.0000
  C   C2        1.0  0.5250053861275462  0.7378942530350087  0.652830617518319  1.0000
  C   C3        1.0  0.625789305089299  0.386116245611035  0.3884834924956451  1.0000
  C   C4        1.0  0.37420323277186895  0.6138826496583717  0.6115162932029605  1.0000
  C   C5        1.0  0.6987721983922768  0.4573962286215477  0.5097912841558241  1.0000
  C   C6        1.0  0.3012230183531841  0.5425981731218882  0.49020659545083584  1.0000
  C   C7        1.0  0.621580415783349  0.40522426356865543  0.5905229141939543  1.0000
  C   C8        1.0  0.37840951972025044  0.5947712921441096  0.4094750751172569  1.0000
  C   C9        1.0  0.4696570187700003  0.28134675593374686  0.548683609431201  1.0000
  C   C10       1.0  0.5303334207508997  0.7186498665298586  0.4513179344044289  1.0000
  C   C11       1.0  0.39693805373953245  0.2100742108722358  0.4266975526883456  1.0000
  C   C12       1.0  0.6030471965935505  0.7899292017546031  0.5733041841867674  1.0000
  C   C13       1.0  0.40119740782999713  0.18651177331675936  0.21742913500653316  1.0000
  C   C14       1.0  0.5987988974961667  0.8134904251477411  0.7825742893718727  1.0000
  C   C15       1.0  0.857321180800554  0.5902840924372796  0.5549382725274512  1.0000
  C   C16       1.0  0.14268376875778443  0.4097113013685743  0.44506471904654177  1.0000
  C   C17       1.0  0.8809886633283668  0.5637194577131551  0.9006479249049447  1.0000
  C   C18       1.0  0.11901450605466835  0.43628281986246986  0.09934842949542141  1.0000
  C   C19       1.0  0.7371863329311239  0.4626627388047667  0.9109260031600003  1.0000
  C   C20       1.0  0.2628140482516344  0.5373384366411502  0.08906970257930175  1.0000
  C   C21       1.0  0.7012002557424568  0.3088590454352058  0.8744857215026016  1.0000
  C   C22       1.0  0.2988054412060491  0.6911408949649241  0.12551481736828407  1.0000
  C   C23       1.0  0.8021283188706294  0.25484072695975607  0.8218442130669601  1.0000
  C   C24       1.0  0.19787671698777126  0.7451603165527416  0.1781580380359458  1.0000
  C   C25       1.0  0.9408885671961897  0.3564795434556061  0.8067165513411397  1.0000
  C   C26       1.0  0.05912041621592583  0.6435225793378053  0.19328736690921738  1.0000
  C   C27       1.0  0.9837190844136713  0.5107970588434015  0.8488733704243502  1.0000
  C   C28       1.0  0.01628825864362675  0.4892039659969995  0.15112927003928428  1.0000
  C   C29       1.0  0.9224641727302655  0.7284467361371939  0.9474692639604642  1.0000
  C   C30       1.0  0.07754507707063141  0.27155881244868146  0.05253194228645701  1.0000
  C   C31       1.0  0.5540873955997228  0.20491936886470094  0.8949852875296571  1.0000
  C   C32       1.0  0.4459187881041444  0.795081678824495  0.10501633444759759  1.0000
  O   O1        1.0  0.2566404921768708  0.08185815529062522  0.1744059903842228  1.0000
  O   O2        1.0  0.7433606133897754  0.9181417684027406  0.8255970649893031  1.0000
  O   O3        1.0  0.4878427915402953  0.22691576085058066  0.1501002037307799  1.0000
  O   O4        1.0  0.5121571719348594  0.7730841451533407  0.84990430457443  1.0000
  O   O5        1.0  0.9180874832839904  0.6312390904354004  0.4680894789866771  1.0000
  O   O6        1.0  0.08191658079828555  0.3687462286842304  0.5319092915072972  1.0000
  O   O7        1.0  0.9300502146437992  0.6591171163003795  0.6599330741677106  1.0000
  O   O8        1.0  0.06994911248214213  0.34087618134800834  0.3400620296359805  1.0000
  O   O9        1.0  0.38261782878055334  0.22421653560828508  0.6186455992389099  1.0000
  O   O10       1.0  0.6173682799932864  0.7757835094537598  0.381354925289898  1.0000
  O   O11       1.0  0.053210947674927  0.8202786199955342  0.938391415494145  1.0000
  O   O12       1.0  0.9467930208841013  0.1797280825596701  0.0616099004573201  1.0000
  O   O13       1.0  0.8231449413916111  0.765458755215697  0.9942623480406924  1.0000
  O   O14       1.0  0.17686180961371184  0.23454906298195516  0.005738792765818315  1.0000
  O   O15       1.0  0.5667904528292029  0.09930476031771455  0.9411713825655781  1.0000
  O   O16       1.0  0.43321228158428954  0.9006962883541478  0.05883130298262531  1.0000
  O   O17       1.0  0.41756443889622125  0.22613073453912597  0.868495838274022  1.0000
  O   O18       1.0  0.5824428753911733  0.773870357864986  0.13150268315950342  1.0000
  O   O19       1.0  0.03197258292847491  0.29586224537320766  0.7505985837034288  1.0000
  O   O20       1.0  0.9680310847178862  0.7041411124659974  0.24940050141534442  1.0000
  O   O21       1.0  0.0420766445857481  0.015035641215540402  0.7834754169182077  1.0000
  O   O22       1.0  0.9579234989781255  0.9849620408742011  0.21652711985463913  1.0000
  O   O23       1.0  0.2585769243779836  0.8629217300617923  0.7831434757829997  1.0000
  O   O24       1.0  0.7414246334201381  0.13707938199709704  0.21685571986075297  1.0000
