data_image0
_chemical_formula_structural       Zn2H56C64N8O12
_chemical_formula_sum              "Zn2 H56 C64 N8 O12"
_cell_length_a       7.186576341491981
_cell_length_b       13.821475409058968
_cell_length_c       14.41581968777508
_cell_angle_alpha    89.99989590016162
_cell_angle_beta     101.86260552708383
_cell_angle_gamma    89.99970910335055

_space_group_name_H-M_alt    "P 1"
_space_group_IT_number       1

loop_
  _space_group_symop_operation_xyz
  'x, y, z'

loop_
  _atom_site_type_symbol
  _atom_site_label
  _atom_site_symmetry_multiplicity
  _atom_site_fract_x
  _atom_site_fract_y
  _atom_site_fract_z
  _atom_site_occupancy
  Zn  Zn1       1.0  0.2500025296700983  0.2558187210517389  0.2500019387859425  1.0000
  Zn  Zn2       1.0  0.7499977369382834  0.7441815133625977  0.750001376550621  1.0000
  H   H1        1.0  0.8188058852205842  0.2712411406676836  0.1721419706454128  1.0000
  H   H2        1.0  0.6812042223128217  0.2712433467968935  0.3278625706258467  1.0000
  H   H3        1.0  0.18120004784651655  0.7287612642764926  0.8278591404784948  1.0000
  H   H4        1.0  0.3188002889226666  0.7287576111257791  0.672138397339701  1.0000
  H   H5        1.0  0.18247527628275145  0.0403419218070979  0.136351636867758  1.0000
  H   H6        1.0  0.31753922128692835  0.04034514604938269  0.3636507977142571  1.0000
  H   H7        1.0  0.8175292506262153  0.9596575890900707  0.8636514137383317  1.0000
  H   H8        1.0  0.6824652742829683  0.9596558118752794  0.6363480876128165  1.0000
  H   H9        1.0  0.8136197707912698  0.9993856804563775  0.037385852899149086  1.0000
  H   H10       1.0  0.6863951401308555  0.999384724711774  0.4626109461156034  1.0000
  H   H11       1.0  0.18638189676126868  0.0006160009821058999  0.962614828744485  1.0000
  H   H12       1.0  0.31361074595920957  0.0006140626795598997  0.537383917098083  1.0000
  H   H13       1.0  0.49494847138719666  0.1880934866240409  0.10990651109597849  1.0000
  H   H14       1.0  0.005064404423819697  0.18809170130968764  0.3900941112637  1.0000
  H   H15       1.0  0.5050546179969544  0.8119096418359388  0.8900943137060153  1.0000
  H   H16       1.0  0.9949400859321074  0.811907809592121  0.6099040798526261  1.0000
  H   H17       1.0  0.4913519529476317  0.0785886017711235  0.04383220556430699  1.0000
  H   H18       1.0  0.0086606743744753  0.07858595883185869  0.4561658108837108  1.0000
  H   H19       1.0  0.5086511468841834  0.9214138031757738  0.956170007664369  1.0000
  H   H20       1.0  0.9913452273732871  0.9214142755810074  0.5438311349663749  1.0000
  H   H21       1.0  0.37242279597595035  0.24178755469986157  0.9543634349209569  1.0000
  H   H22       1.0  0.12759138263781716  0.24178537050975274  0.5456363586710324  1.0000
  H   H23       1.0  0.627580293416095  0.7582141267365969  0.04563738988311168  1.0000
  H   H24       1.0  0.8724116701893505  0.7582184814666136  0.45435960664016767  1.0000
  H   H25       1.0  0.6109653866380782  0.2757937187146736  0.9750830075357798  1.0000
  H   H26       1.0  0.889045106477745  0.27579088044826244  0.5249165374922953  1.0000
  H   H27       1.0  0.3890362652567702  0.7242065157022637  0.024915591471462082  1.0000
  H   H28       1.0  0.11095513926685636  0.7242050128981532  0.47508400099920334  1.0000
  H   H29       1.0  0.5148921404130389  0.35763906226088676  0.8489888255662807  1.0000
  H   H30       1.0  0.9851046478912905  0.35763717859356337  0.6510071136165578  1.0000
  H   H31       1.0  0.48511094898689316  0.6423611721520499  0.1510119992398629  1.0000
  H   H32       1.0  0.014899842472530596  0.6423608852847238  0.348991077501843  1.0000
  H   H33       1.0  0.4972611659683962  0.4440786254720733  0.6974714815875418  1.0000
  H   H34       1.0  0.0027351453599350974  0.44408135248810504  0.8025233801387799  1.0000
  H   H35       1.0  0.5027504544685328  0.5559216089287489  0.3025302021812236  1.0000
  H   H36       1.0  0.9972494392272109  0.5559210524890189  0.1974728067272835  1.0000
  H   H37       1.0  0.48097326033187926  0.35163713762719334  0.5477731036856711  1.0000
  H   H38       1.0  0.019024064383962997  0.3516359216493895  0.9522227174140951  1.0000
  H   H39       1.0  0.5190340893568005  0.6483645438038719  0.45222745638688633  1.0000
  H   H40       1.0  0.9809562651520807  0.6483621422619025  0.04777442840252628  1.0000
  H   H41       1.0  0.48257706293085073  0.17178730317515087  0.5504445043422876  1.0000
  H   H42       1.0  0.017423660688130796  0.17178609647893947  0.9495540584294702  1.0000
  H   H43       1.0  0.5174260264611945  0.8282143782613076  0.449556320461781  1.0000
  H   H44       1.0  0.9825722881949661  0.8282119674127839  0.050441885300664124  1.0000
  H   H45       1.0  0.5062871075975295  0.08426680289091587  0.7045557951692131  1.0000
  H   H46       1.0  0.9937155161539123  0.08426607109994681  0.7954426028870714  1.0000
  H   H47       1.0  0.4937088726009549  0.9157341550438785  0.29544431383371267  1.0000
  H   H48       1.0  0.0063003332563767  0.9157327162759258  0.2045546508753233  1.0000
  H   H49       1.0  0.3533877591492781  0.5079288890310777  0.5277297892846136  1.0000
  H   H50       1.0  0.1466022206884929  0.5079345321437073  0.9722712587788112  1.0000
  H   H51       1.0  0.6466011170932902  0.49206845135435623  0.4722702981341342  1.0000
  H   H52       1.0  0.8533866555343578  0.4920664258005231  0.027728828634749864  1.0000
  H   H53       1.0  0.8192791709434317  0.4051709435422452  0.3651094239593533  1.0000
  H   H54       1.0  0.6807081327362071  0.4051713442601468  0.1348905031113077  1.0000
  H   H55       1.0  0.18070827823778046  0.5948263968458675  0.6348898260861376  1.0000
  H   H56       1.0  0.3192807434866367  0.5948296136840909  0.8651095843022533  1.0000
  C   C1        1.0  0.8693157122785992  0.2029922304080714  0.149843712744385  1.0000
  C   C2        1.0  0.6306965457340611  0.202994528399536  0.3501590848107838  1.0000
  C   C3        1.0  0.1306859656979427  0.79701306858788  0.8501583573197067  1.0000
  C   C4        1.0  0.3693079602795635  0.7970064295238045  0.6498411889419344  1.0000
  C   C5        1.0  0.05257411159784199  0.08256045959757329  0.1285269493001522  1.0000
  C   C6        1.0  0.44743850371718713  0.08256187768594  0.3714752210262802  1.0000
  C   C7        1.0  0.9474304100813667  0.9174404983237848  0.8714754070910402  1.0000
  C   C8        1.0  0.5525660023003808  0.9174383567256398  0.6285250527274755  1.0000
  C   C9        1.0  0.8716805154310805  0.0609531879462253  0.07994185782465728  1.0000
  C   C10       1.0  0.6283332655276723  0.06095318987461697  0.4200578760880305  1.0000
  C   C11       1.0  0.1283197302859023  0.9390477699825154  0.9200586806595795  1.0000
  C   C12       1.0  0.37167406850331014  0.9390470445349094  0.5799406013481345  1.0000
  C   C13       1.0  0.554583605249391  0.15082898567510472  0.055487402971465385  1.0000
  C   C14       1.0  0.9454320392377297  0.15082665381628862  0.44451235946978335  1.0000
  C   C15       1.0  0.44542091642193066  0.8491734192697674  0.9445149534176525  1.0000
  C   C16       1.0  0.05457528435742629  0.8491721335710379  0.5554847295428047  1.0000
  C   C17       1.0  0.5175349574099073  0.21194755619694658  0.9656383961517321  1.0000
  C   C18       1.0  0.9824804870687557  0.2119451759362717  0.5343603730647857  1.0000
  C   C19       1.0  0.4824667205903025  0.7880534017284474  0.034363673918583984  1.0000
  C   C20       1.0  0.017528242700308297  0.788053611451019  0.465634776469777  1.0000
  C   C21       1.0  0.5349214521115898  0.15821529313814145  0.8761525381949655  1.0000
  C   C22       1.0  0.9650903285214554  0.15820989620372214  0.6238480383062212  1.0000
  C   C23       1.0  0.4650787883874797  0.841784941279499  0.1238473060774865  1.0000
  C   C24       1.0  0.034928380249198185  0.8417859971190893  0.3761515844196667  1.0000
  C   C25       1.0  0.5129623949002777  0.21428250358068363  0.7865077986477829  1.0000
  C   C26       1.0  0.9870388057367023  0.2142768794252561  0.7134895322715593  1.0000
  C   C27       1.0  0.4870378560346252  0.785719177859157  0.21349343404823173  1.0000
  C   C28       1.0  0.012969950169285498  0.7857168433764057  0.28650908833438393  1.0000
  C   C29       1.0  0.5073380034321815  0.3159706440854748  0.7841801353680609  1.0000
  C   C30       1.0  0.992662093413287  0.31597006521393217  0.7158175980792265  1.0000
  C   C31       1.0  0.4926636641164136  0.6840317608647623  0.21582054627453567  1.0000
  C   C32       1.0  0.007342396934752999  0.6840308927113908  0.2841805930350247  1.0000
  C   C33       1.0  0.49612158908082904  0.36516447462255286  0.6987199061682646  1.0000
  C   C34       1.0  0.003869905987080799  0.3651606893708885  0.8012759977050621  1.0000
  C   C35       1.0  0.5038843805550856  0.6348350362699549  0.301286064449549  1.0000
  C   C36       1.0  0.9961189232824097  0.6348323099499351  0.198717841804509  1.0000
  C   C37       1.0  0.48799376877843764  0.3134247916386457  0.6146785651092942  1.0000
  C   C38       1.0  0.0120053997284941  0.3134244439296339  0.885318202969046  1.0000
  C   C39       1.0  0.512015007967662  0.6865776133014948  0.38532283233548265  1.0000
  C   C40       1.0  0.9879848513410393  0.6865757905067724  0.114675779690586  1.0000
  C   C41       1.0  0.4893797884025942  0.21207164343864088  0.6162194565124253  1.0000
  C   C42       1.0  0.010619053181215997  0.21206623772868474  0.8837760707038527  1.0000
  C   C43       1.0  0.5106219052671432  0.7879285909730098  0.38378469619739525  1.0000
  C   C44       1.0  0.9893797289647707  0.7879267615780063  0.11621877092876788  1.0000
  C   C45       1.0  0.5024287006569991  0.16293786216245112  0.7014528375458939  1.0000
  C   C46       1.0  0.9975744765072959  0.16294000833963912  0.7985440895845599  1.0000
  C   C47       1.0  0.4975715293944063  0.8370630957682719  0.2985456182998689  1.0000
  C   C48       1.0  0.002435695968991099  0.8370623966017872  0.20145397995653982  1.0000
  C   C49       1.0  0.20060254311605522  0.39098440798105116  0.37947415572309506  1.0000
  C   C50       1.0  0.29938822989499403  0.3909888622263935  0.1205259630568776  1.0000
  C   C51       1.0  0.7993877601918198  0.6090122088899363  0.6205267690699543  1.0000
  C   C52       1.0  0.7006034952208252  0.6090135427366616  0.8794751048883002  1.0000
  C   C53       1.0  0.09662668467416317  0.4493646525508196  0.4401226000784676  1.0000
  C   C54       1.0  0.4033620507169573  0.44936677496263394  0.05987998494046559  1.0000
  C   C55       1.0  0.9033650404653314  0.5506334113416712  0.5598784678729416  1.0000
  C   C56       1.0  0.5966268359456705  0.5506349064920357  0.9401214908977098  1.0000
  C   C57       1.0  0.19885301587999754  0.5041140279162092  0.5154749125295908  1.0000
  C   C58       1.0  0.3011370160196307  0.5041170677001574  0.9845275349055883  1.0000
  C   C59       1.0  0.8011358655883783  0.49588258895680315  0.48452586910301687  1.0000
  C   C60       1.0  0.6988504435895277  0.4958831667336695  0.015473103561397661  1.0000
  C   C61       1.0  0.8975938211735651  0.4463205146909246  0.4249309867354185  1.0000
  C   C62       1.0  0.6023973149252554  0.4463205123009075  0.07507133442403809  1.0000
  C   C63       1.0  0.10239932579753487  0.5536789962230699  0.5750702243743574  1.0000
  C   C64       1.0  0.39759299880267907  0.5536804456393226  0.9249309787884314  1.0000
  N   N1        1.0  0.0483480546494661  0.17159144057488612  0.17175092640830775  1.0000
  N   N2        1.0  0.45166076169782343  0.17159365247251654  0.32825278486215853  1.0000
  N   N3        1.0  0.9516564670297497  0.828409517346465  0.8282514299828847  1.0000
  N   N4        1.0  0.5483437547595215  0.8284073054494954  0.6717488773162046  1.0000
  N   N5        1.0  0.7579411053091006  0.1376933233259194  0.09450716178792357  1.0000
  N   N6        1.0  0.7420718439678992  0.1376923276720632  0.4054930462210962  1.0000
  N   N7        1.0  0.2420619788531866  0.8623098051347213  0.905492968801248  1.0000
  N   N8        1.0  0.2579340682235837  0.8623079067394812  0.5945052880546273  1.0000
  O   O1        1.0  0.5641375082891784  0.06976593990687968  0.8780988461022688  1.0000
  O   O2        1.0  0.9358937208559437  0.06976207109236299  0.621903845186516  1.0000
  O   O3        1.0  0.43585563867008387  0.9302357415423899  0.1219023650043951  1.0000
  O   O4        1.0  0.06414772689115009  0.9302359927347296  0.37809667967759714  1.0000
  O   O5        1.0  0.0965958735780177  0.3268785604385799  0.3258200972245149  1.0000
  O   O6        1.0  0.40339132782129633  0.3268819142833406  0.1741790817412081  1.0000
  O   O7        1.0  0.9033915599257726  0.6731209504867977  0.6741770701793968  1.0000
  O   O8        1.0  0.5965989806689934  0.6731219377045858  0.8258225372542897  1.0000
  O   O9        1.0  0.3747915393478465  0.4026175184903947  0.3839137814774034  1.0000
  O   O10       1.0  0.1251991276802471  0.4026224428950941  0.11608908078530793  1.0000
  O   O11       1.0  0.6252044878868475  0.5973762043208453  0.6160925754513045  1.0000
  O   O12       1.0  0.8747897642042375  0.597379238558915  0.8839130892656899  1.0000
