data_image0
_chemical_formula_structural       Cu4H30C48I4N6O12
_chemical_formula_sum              "Cu4 H30 C48 I4 N6 O12"
_cell_length_a       7.857202825
_cell_length_b       16.534623631643438
_cell_length_c       17.658
_cell_angle_alpha    112.75676295594675
_cell_angle_beta     90.0
_cell_angle_gamma    103.74526410554694

_space_group_name_H-M_alt    "P 1"
_space_group_IT_number       1

loop_
  _space_group_symop_operation_xyz
  'x, y, z'

loop_
  _atom_site_type_symbol
  _atom_site_label
  _atom_site_symmetry_multiplicity
  _atom_site_fract_x
  _atom_site_fract_y
  _atom_site_fract_z
  _atom_site_occupancy
  Cu  Cu1       1.0  0.9450902765996004  0.9714147979485119  0.7216186054193515  1.0000
  Cu  Cu2       1.0  0.9726937796908572  0.0285875134473486  0.2785323054144371  1.0000
  Cu  Cu3       1.0  0.0890885870744214  0.03931741853497781  0.8668711668114283  1.0000
  Cu  Cu4       1.0  0.04867583051019145  0.960642809478081  0.13325543991375352  1.0000
  H   H1        1.0  0.8091867305104686  0.3887282795853366  0.5686620782628538  1.0000
  H   H2        1.0  0.4198776732421692  0.6113147576648573  0.43161458176712136  1.0000
  H   H3        1.0  0.5769531980682245  0.1486663374125712  0.3492693397204576  1.0000
  H   H4        1.0  0.42612637293677114  0.851412674342285  0.6507020813274025  1.0000
  H   H5        1.0  0.5737520884473  0.4129072193014026  0.35952664752940683  1.0000
  H   H6        1.0  0.16002638633190705  0.5871073098507651  0.6406745602684722  1.0000
  H   H7        1.0  0.03171736905230914  0.7110917432462855  0.4720571923470231  1.0000
  H   H8        1.0  0.3210167653616979  0.2888406554329777  0.5277552228393319  1.0000
  H   H9        1.0  0.08421014939406751  0.8710819044554727  0.5742921154346378  1.0000
  H   H10       1.0  0.21332563053893236  0.12884167028868632  0.4255006804752952  1.0000
  H   H11       1.0  0.7346830058391944  0.7949978633950892  0.7260540680963814  1.0000
  H   H12       1.0  0.9397703501062225  0.20505060396901345  0.2738887336582536  1.0000
  H   H13       1.0  0.6779447737531115  0.6311699691794885  0.6332734527848274  1.0000
  H   H14       1.0  0.0467106070083005  0.36883641480180535  0.36676680270467443  1.0000
  H   H15       1.0  0.9890378623484184  0.1597546300183055  0.5468358723086837  1.0000
  H   H16       1.0  0.8273186648542252  0.8401187161721781  0.4531505322879142  1.0000
  H   H17       1.0  0.10468571911697211  0.0845814905664568  0.6271161200104061  1.0000
  H   H18       1.0  0.018601536234022758  0.915378737446602  0.37308580668305774  1.0000
  H   H19       1.0  0.6067293506153105  0.9935771291109745  0.6878327008508052  1.0000
  H   H20       1.0  0.6118800174554551  0.0062324132410581  0.3119006691865849  1.0000
  H   H21       1.0  0.4692599592093743  0.061720032237985806  0.6080720573446355  1.0000
  H   H22       1.0  0.4059713994797889  0.938208972620082  0.39160830967041704  1.0000
  H   H23       1.0  0.19567531491000523  0.17959558748392376  0.17958087042134713  1.0000
  H   H24       1.0  0.01477790587146192  0.8206524365663983  0.8205321855297214  1.0000
  H   H25       1.0  0.01678771624863629  0.10556480824604361  0.04260754719430791  1.0000
  H   H26       1.0  0.910013903689084  0.8945800436399767  0.9575638460028202  1.0000
  H   H27       1.0  0.4632465724106894  0.08604897885083322  0.9177195823316141  1.0000
  H   H28       1.0  0.37609958157624857  0.9140232452616319  0.08230034855780845  1.0000
  H   H29       1.0  0.6612127992382711  0.15866317712225  0.05025580404461039  1.0000
  H   H30       1.0  0.5013152881701329  0.8414334825028149  0.9497078513653534  1.0000
  C   C1        1.0  0.6964222880610934  0.4103808588044232  0.4685826901372964  1.0000
  C   C2        1.0  0.28535351816495347  0.5896248464126332  0.5316272141617091  1.0000
  C   C3        1.0  0.7419340001666015  0.3574793315574851  0.5064349986575608  1.0000
  C   C4        1.0  0.38360221194031396  0.6425759234490016  0.4937758636485441  1.0000
  C   C5        1.0  0.6998726753362801  0.2638777430210482  0.4625450749882845  1.0000
  C   C6        1.0  0.4345996261731031  0.7361985536768503  0.5375493857420325  1.0000
  C   C7        1.0  0.6123131275915272  0.22202106746856035  0.3832913685493011  1.0000
  C   C8        1.0  0.3886116477202323  0.7780450477657512  0.6167518338376895  1.0000
  C   C9        1.0  0.5683166320186217  0.2776831288748768  0.3483774537112581  1.0000
  C   C10       1.0  0.28916693499312623  0.722345654326304  0.6516794097530153  1.0000
  C   C11       1.0  0.6092812143024918  0.3717130176460231  0.3891441116673776  1.0000
  C   C12       1.0  0.23656131423577154  0.6282811485789708  0.6110049815278771  1.0000
  C   C13       1.0  0.8242014778018928  0.5632568920263026  0.48402457927561926  1.0000
  C   C14       1.0  0.26071569872670614  0.4366985846370852  0.5160827506768585  1.0000
  C   C15       1.0  0.6349597783497531  0.16079992694612605  0.528391293960432  1.0000
  C   C16       1.0  0.47230496074665507  0.8390102941701445  0.4713717703414134  1.0000
  C   C17       1.0  0.563696422013017  0.22356321981921215  0.20322643951217864  1.0000
  C   C18       1.0  0.33873630516193043  0.7766067463436459  0.7967909514709605  1.0000
  C   C19       1.0  0.849847717719449  0.6582363719675897  0.5443763266618477  1.0000
  C   C20       1.0  0.1916981292542843  0.3417401463871954  0.4555987448794169  1.0000
  C   C21       1.0  0.9631156039832975  0.727136372324054  0.5274524898898462  1.0000
  C   C22       1.0  0.2362466263307894  0.27281095916846  0.4723964814794854  1.0000
  C   C23       1.0  0.9913678521202911  0.8162044945092646  0.5838967408835458  1.0000
  C   C24       1.0  0.1753730150609911  0.18375233968259866  0.41595000931151566  1.0000
  C   C25       1.0  0.7996124436567629  0.7733276363057942  0.6696535109072884  1.0000
  C   C26       1.0  0.026364321383141487  0.2266896079033245  0.330285909898123  1.0000
  C   C27       1.0  0.7678749827621091  0.6821152978900855  0.6175022582444853  1.0000
  C   C28       1.0  0.08580791019773668  0.3178924436196908  0.3824761942460099  1.0000
  C   C29       1.0  0.7185579996513739  0.1164949487841298  0.5711265360078954  1.0000
  C   C30       1.0  0.6002943367525616  0.8833729672924377  0.4286902723391676  1.0000
  C   C31       1.0  0.8996088687241227  0.12256649490058183  0.5763056685957935  1.0000
  C   C32       1.0  0.775273562528689  0.8773346806236902  0.4236353171647238  1.0000
  C   C33       1.0  0.9645437936768533  0.0808625413018333  0.6206558129552207  1.0000
  C   C34       1.0  0.8821445627210878  0.9190752874913388  0.37939075845348214  1.0000
  C   C35       1.0  0.6860304409535232  0.0290477156012798  0.6539464755447142  1.0000
  C   C36       1.0  0.6555900489731242  0.9708364908170211  0.3458915238615035  1.0000
  C   C37       1.0  0.6104102843338453  0.0677949721756335  0.6103568477991601  1.0000
  C   C38       1.0  0.5409962027840648  0.9320688713155081  0.38940808332904453  1.0000
  C   C39       1.0  0.44412072396487207  0.1768506649020409  0.12534220776193913  1.0000
  C   C40       1.0  0.26593896233993053  0.8233030109190835  0.8747043942460949  1.0000
  C   C41       1.0  0.2605024300232301  0.1606377022930445  0.12318302711802433  1.0000
  C   C42       1.0  0.09858875927858421  0.8395641657890422  0.8769110453762253  1.0000
  C   C43       1.0  0.160167938562644  0.1196450936166045  0.0468835908463205  1.0000
  C   C44       1.0  0.039286202376899816  0.8804929706270317  0.9532474006508596  1.0000
  C   C45       1.0  0.4098726469328682  0.10810202897084052  0.9772693356628822  1.0000
  C   C46       1.0  0.3006268904949323  0.8920048121178044  0.022774460183512635  1.0000
  C   C47       1.0  0.5192519174006095  0.1487756184550264  0.05069469665810541  1.0000
  C   C48       1.0  0.36925134026392203  0.8513468342111139  0.9493111475743349  1.0000
  I   I1        1.0  0.7584517862249314  0.9889913979133527  0.854075765190963  1.0000
  I   I2        1.0  0.7687917602320768  0.0112715589502272  0.1459594512017759  1.0000
  I   I3        1.0  0.29086888029900854  0.04143991430984072  0.7540755678294602  1.0000
  I   I4        1.0  0.24801835407345155  0.9581469933718554  0.2458716455910591  1.0000
  N   N1        1.0  0.9097376475483686  0.8398444954196835  0.6537103978448684  1.0000
  N   N2        1.0  0.06987199334960792  0.16013066540662635  0.3461973567497765  1.0000
  N   N3        1.0  0.8605119663159472  0.035183744320420415  0.659908393587827  1.0000
  N   N4        1.0  0.8239744765313547  0.9647506906515559  0.3400757864623429  1.0000
  N   N5        1.0  0.23286671808369167  0.0943516230203585  0.9747579246068838  1.0000
  N   N6        1.0  0.13735939213378856  0.9057355339053572  0.025334806660772865  1.0000
  O   O1        1.0  0.7339017438179809  0.5032568483695385  0.5162193080543532  1.0000
  O   O2        1.0  0.23033287506274286  0.4967400329124133  0.48396078328831754  1.0000
  O   O3        1.0  0.7589497775657037  0.21294531083099602  0.499453571890939  1.0000
  O   O4        1.0  0.5443998411339308  0.7871649240788444  0.50060447849215  1.0000
  O   O5        1.0  0.46994653767032446  0.23667898120637432  0.2710793877832955  1.0000
  O   O6        1.0  0.23164304339125866  0.7633369054742618  0.7289450549587144  1.0000
  O   O7        1.0  0.8769011158933822  0.540041118765153  0.415975183618329  1.0000
  O   O8        1.0  0.33634603863173146  0.4598213671975061  0.584148299857624  1.0000
  O   O9        1.0  0.47742966279402316  0.154513891330204  0.5210158844623791  1.0000
  O   O10       1.0  0.32086362801890533  0.8450261816190121  0.478498689293275  1.0000
  O   O11       1.0  0.7235984843600323  0.24811140728120765  0.208007742216445  1.0000
  O   O12       1.0  0.4741603767826774  0.7521291503624924  0.7919666935885415  1.0000
