data_image0
_chemical_formula_structural       Zn2H50C46N8O14
_chemical_formula_sum              "Zn2 H50 C46 N8 O14"
_cell_length_a       9.664363021104773
_cell_length_b       9.856364499880595
_cell_length_c       14.531
_cell_angle_alpha    80.15726886539021
_cell_angle_beta     76.84078195492778
_cell_angle_gamma    61.828887026868074

_space_group_name_H-M_alt    "P 1"
_space_group_IT_number       1

loop_
  _space_group_symop_operation_xyz
  'x, y, z'

loop_
  _atom_site_type_symbol
  _atom_site_label
  _atom_site_symmetry_multiplicity
  _atom_site_fract_x
  _atom_site_fract_y
  _atom_site_fract_z
  _atom_site_occupancy
  Zn  Zn1       1.0  0.8435079310464817  0.8136408992250779  0.5151218379788034  1.0000
  Zn  Zn2       1.0  0.15649256253502128  0.186359762401068  0.4848774600234336  1.0000
  H   H1        1.0  0.8348787982278337  0.9343746877410624  0.3361019762323707  1.0000
  H   H2        1.0  0.1651211576226075  0.0656271279512737  0.6638965811893199  1.0000
  H   H3        1.0  0.8181372528368769  0.0577760156618083  0.4034529189781821  1.0000
  H   H4        1.0  0.18186537883956083  0.9422223378319573  0.5965470111058834  1.0000
  H   H5        1.0  0.24975993132569133  0.41069291871253455  0.71404815908096  1.0000
  H   H6        1.0  0.7502373486987465  0.589312359178372  0.2859476493105859  1.0000
  H   H7        1.0  0.5500162797830299  0.24362337267459114  0.9833351591326573  1.0000
  H   H8        1.0  0.4499837017260334  0.7563738267529845  0.016668058769731414  1.0000
  H   H9        1.0  0.4090693442839424  0.778515740671196  0.5086453329176236  1.0000
  H   H10       1.0  0.5909327624907519  0.22148145875637942  0.4913548104584819  1.0000
  H   H11       1.0  0.8998611571087665  0.007399872409237701  0.6285222150342518  1.0000
  H   H12       1.0  0.10013826101061343  0.9926030973492886  0.3714790427263068  1.0000
  H   H13       1.0  0.7321290376784688  0.2134514662074949  0.7428463889980533  1.0000
  H   H14       1.0  0.26786717971314994  0.7865538116834117  0.257154397576052  1.0000
  H   H15       1.0  0.33588298026494107  0.1296870340167473  0.7320372051704638  1.0000
  H   H16       1.0  0.6641159001233703  0.8703170898079693  0.2679591829062531  1.0000
  H   H17       1.0  0.5194919429586304  0.9262662186912679  0.6214715960108633  1.0000
  H   H18       1.0  0.48051015098674554  0.0737332888686879  0.37852759349265597  1.0000
  H   H19       1.0  0.2210126765243602  0.6550883616681276  0.7968552165594786  1.0000
  H   H20       1.0  0.7789856789622007  0.3449146080903986  0.20314344936092973  1.0000
  H   H21       1.0  0.17582016616103155  0.5439771770430042  0.896912421088004  1.0000
  H   H22       1.0  0.8241803145911532  0.4560257927155221  0.10308729940940957  1.0000
  H   H23       1.0  0.9613498084688886  0.5487353919437012  0.8221753588926148  1.0000
  H   H24       1.0  0.03864907191942287  0.4512687318810151  0.1778237819196349  1.0000
  H   H25       1.0  0.008177435830120329  0.658622112341412  0.7226207732779314  1.0000
  H   H26       1.0  0.9918230577513825  0.3413785492847339  0.2773778365404239  1.0000
  H   H27       1.0  0.9348048307085934  0.8709460558814328  0.8246833683253385  1.0000
  H   H28       1.0  0.0651961749453491  0.1290580679432836  0.1753133861445093  1.0000
  H   H29       1.0  0.7748455759079889  0.8306206750761476  0.8260942185477019  1.0000
  H   H30       1.0  0.22515649237877258  0.1693834487485688  0.1739003104751262  1.0000
  H   H31       1.0  0.8408976146850476  0.6601166280572528  0.978980116402603  1.0000
  H   H32       1.0  0.159095427637439  0.33988634170127346  0.02101453670750429  1.0000
  H   H33       1.0  0.9760951953480587  0.7304938924458924  0.9834047713026165  1.0000
  H   H34       1.0  0.02390317296782032  0.2695067691802535  0.0165927839387265  1.0000
  H   H35       1.0  0.6217864828826619  0.9340700142669506  0.9753685259920671  1.0000
  H   H36       1.0  0.3782102594107073  0.06593641769014623  0.02462998273834668  1.0000
  H   H37       1.0  0.7005367186998797  0.8691445585590998  0.08180500677316617  1.0000
  H   H38       1.0  0.2994605998124912  0.1308537949346658  0.9181936632361384  1.0000
  H   H39       1.0  0.8569523746662497  0.0131713574246106  0.0367592401984851  1.0000
  H   H40       1.0  0.14304440611505956  0.9868281501353451  0.9632441947013317  1.0000
  H   H41       1.0  0.8019252892807813  0.0679871933094844  0.921935771660479  1.0000
  H   H42       1.0  0.19807625410422258  0.9320157764490347  0.07806585249321067  1.0000
  H   H43       1.0  0.2012011923370736  0.5481756698416264  0.34359699061996446  1.0000
  H   H44       1.0  0.79879931407374  0.4518226836521393  0.656406702174273  1.0000
  H   H45       1.0  0.44626566209316104  0.3062222309437317  0.2977021399813538  1.0000
  H   H46       1.0  0.5537348571469707  0.6937738144176535  0.7023018185015812  1.0000
  H   H47       1.0  0.38576586372627014  0.4569421212702522  0.005506371235981118  1.0000
  H   H48       1.0  0.6142335928810424  0.5430539240911331  0.9944977481423293  1.0000
  H   H49       1.0  0.15638409450969706  0.6960577114073416  0.06280008548466749  1.0000
  H   H50       1.0  0.8436148243665541  0.30393948802023374  0.9372019169453338  1.0000
  C   C1        1.0  0.16361984314674768  0.7138822637093796  0.5313409792610458  1.0000
  C   C2        1.0  0.8363822636279464  0.2861149357182029  0.4686591641150669  1.0000
  C   C3        1.0  0.33626537032083814  0.600494106491702  0.518243973410307  1.0000
  C   C4        1.0  0.6637377990866682  0.3995030929358734  0.4817546327026605  1.0000
  C   C5        1.0  0.44907256726956757  0.6558004205072621  0.5053591175629462  1.0000
  C   C6        1.0  0.5509311398690072  0.3441956248541302  0.49464160549833025  1.0000
  C   C7        1.0  0.6120952500978804  0.5580244707056963  0.4863318262566451  1.0000
  C   C8        1.0  0.3879089819424379  0.4419727287218791  0.51366661896094  1.0000
  C   C9        1.0  0.7228369930171681  0.6314380832398003  0.46515404766894614  1.0000
  C   C10       1.0  0.2771656386592767  0.3685602702539654  0.5348445060473566  1.0000
  C   C11       1.0  0.7742974791540788  0.0398637543293532  0.653916414758278  1.0000
  C   C12       1.0  0.225703001598106  0.960139215429173  0.3460833057391354  1.0000
  C   C13       1.0  0.6803896085757373  0.1535831285435094  0.7165197080880501  1.0000
  C   C14       1.0  0.31960767144870056  0.8464221493473973  0.2834795412229099  1.0000
  C   C15       1.0  0.5184984092773918  0.1925155514576602  0.7431105129971413  1.0000
  C   C16       1.0  0.48149782094353794  0.8074874183008662  0.25689053926566174  1.0000
  C   C17       1.0  0.4594555716570597  0.10787749116120442  0.7104850903403628  1.0000
  C   C18       1.0  0.5405438464623131  0.8921254785973218  0.2895127265007815  1.0000
  C   C19       1.0  0.5614260279866342  0.9935725129487523  0.6491293116450693  1.0000
  C   C20       1.0  0.438573927863807  0.0064293027435838  0.3508692457766216  1.0000
  C   C21       1.0  0.4155280276942009  0.3258032719866932  0.8035122053145969  1.0000
  C   C22       1.0  0.584469265159548  0.674199697771833  0.19648730968506098  1.0000
  C   C23       1.0  0.17361844877490287  0.5701583226256446  0.8205427147881821  1.0000
  C   C24       1.0  0.8263793689805964  0.4298458011990719  0.1794572751033243  1.0000
  C   C25       1.0  0.005284993024162088  0.6358639270778212  0.799694539630714  1.0000
  C   C26       1.0  0.9947138873641495  0.3641401967468881  0.20030460118153567  1.0000
  C   C27       1.0  0.89108070761543  0.7836674921426265  0.8490185961634393  1.0000
  C   C28       1.0  0.10891871050394997  0.2163354776158997  0.1509785324938164  1.0000
  C   C29       1.0  0.8658964126454265  0.7602295618932331  0.9574130641417965  1.0000
  C   C30       1.0  0.1341008930376333  0.23977109973291993  0.042585340178803215  1.0000
  C   C31       1.0  0.7288580893493588  0.9000054425415271  0.0059403747290999835  1.0000
  C   C32       1.0  0.2711418793303935  0.09999406501842863  0.9940577601974068  1.0000
  C   C33       1.0  0.7624979072481253  0.0394032819196042  0.9965670847658217  1.0000
  C   C34       1.0  0.23750259916268857  0.9605950715741615  0.003433167108994381  1.0000
  C   C35       1.0  0.5876767481832275  0.2129933019301262  0.1225030720400611  1.0000
  C   C36       1.0  0.41232217069301674  0.7870038974974491  0.8774989303899401  1.0000
  C   C37       1.0  0.24749645000721196  0.5252224473919611  0.2690347657555776  1.0000
  C   C38       1.0  0.7525019311379778  0.4747759061018045  0.7309699370132917  1.0000
  C   C39       1.0  0.3830409798676299  0.38883952134177957  0.2436613909774294  1.0000
  C   C40       1.0  0.6169579518379322  0.6111553699534156  0.756342941692921  1.0000
  C   C41       1.0  0.4379331133449752  0.3594500717513967  0.1479189144921094  1.0000
  C   C42       1.0  0.5620663560916556  0.6405436654776155  0.8520868469426686  1.0000
  C   C43       1.0  0.3520610290041332  0.4706558898040853  0.08152798759658711  1.0000
  C   C44       1.0  0.6479400279670601  0.5293390014911097  0.9184760232830129  1.0000
  C   C45       1.0  0.22113381980431504  0.6057635727144943  0.11391256347931028  1.0000
  C   C46       1.0  0.77886829979969  0.3942313185807009  0.8860905983210258  1.0000
  N   N1        1.0  0.7158713118376454  0.9621045901504672  0.6195439023245584  1.0000
  N   N2        1.0  0.28412810628172736  0.037898379608059  0.3804559790682376  1.0000
  N   N3        1.0  0.2787185151701408  0.4277592495278455  0.774278106116455  1.0000
  N   N4        1.0  0.7212803652181705  0.5722448742968709  0.22571897014415032  1.0000
  N   N5        1.0  0.6226063162536305  0.1766159815602748  0.031708967394521885  1.0000
  N   N6        1.0  0.37739579052106353  0.8233812178673007  0.9682932405332352  1.0000
  N   N7        1.0  0.1677496125078832  0.6352395772691253  0.2055683613793136  1.0000
  N   N8        1.0  0.8322498312701184  0.36475877622464753  0.7944348041264176  1.0000
  O   O1        1.0  0.07216008749281855  0.6781339094129848  0.4993665020982903  1.0000
  O   O2        1.0  0.9278419936232536  0.3218679062793512  0.50063173353265  1.0000
  O   O3        1.0  0.11567341494313149  0.8376535544370185  0.5693747819596735  1.0000
  O   O4        1.0  0.8843302921954432  0.16234249092437386  0.4306280056532471  1.0000
  O   O5        1.0  0.8066480560345043  0.626153614156536  0.38516886634742775  1.0000
  O   O6        1.0  0.19335137491418666  0.3738470474696101  0.614829904366303  1.0000
  O   O7        1.0  0.7123203056122662  0.7063462114897376  0.5333652184684254  1.0000
  O   O8        1.0  0.287679663067486  0.2936532960702181  0.466634981009733  1.0000
  O   O9        1.0  0.4615811321214877  0.3397247724346998  0.8736146921667467  1.0000
  O   O10       1.0  0.538414061125252  0.6602735810590659  0.12638705236883396  1.0000
  O   O11       1.0  0.6731937502856695  0.1326922223750771  0.1831745134033369  1.0000
  O   O12       1.0  0.32680730668552377  0.867302668920118  0.8168260565568417  1.0000
  O   O13       1.0  0.7922020105038428  0.9706735316100109  0.3995873897377606  1.0000
  O   O14       1.0  0.20779848307766  0.0293271300161351  0.6004119082644763  1.0000
