data_image0
_chemical_formula_structural       Cs2H4C12N6O18
_chemical_formula_sum              "Cs2 H4 C12 N6 O18"
_cell_length_a       4.739954722779362
_cell_length_b       9.813370257530144
_cell_length_c       11.242533875013248
_cell_angle_alpha    90.0001467032233
_cell_angle_beta     89.9998722999033
_cell_angle_gamma    102.80803442496727

_space_group_name_H-M_alt    "P 1"
_space_group_IT_number       1

loop_
  _space_group_symop_operation_xyz
  'x, y, z'

loop_
  _atom_site_type_symbol
  _atom_site_label
  _atom_site_symmetry_multiplicity
  _atom_site_fract_x
  _atom_site_fract_y
  _atom_site_fract_z
  _atom_site_occupancy
  Cs  Cs1       1.0  0.4158465536361149  0.3898087791443458  0.907366858947228  1.0000
  Cs  Cs2       1.0  0.41584621347575995  0.8898078456467075  0.092632044371463  1.0000
  H   H1        1.0  0.6418676765124118  0.5358640303915009  0.5514560449582008  1.0000
  H   H2        1.0  0.6418677674351515  0.035863794078139194  0.4485463040699644  1.0000
  H   H3        1.0  0.18370796887855081  0.24295661159177223  0.5524041219978458  1.0000
  H   H4        1.0  0.18370362070182006  0.7429555085658631  0.4475955650398121  1.0000
  C   C1        1.0  0.7750936432919034  0.48216290103366066  0.27960528453441214  1.0000
  C   C2        1.0  0.7751005534283452  0.9821667467376044  0.7203961509983261  1.0000
  C   C3        1.0  0.7568861471679327  0.47696031633913066  0.4035542134665422  1.0000
  C   C4        1.0  0.7568884360236012  0.9769617273290404  0.59644722780984  1.0000
  C   C5        1.0  0.9136650592623925  0.38953668071420816  0.4674364376797799  1.0000
  C   C6        1.0  0.9136676081886393  0.8895379311566384  0.532563770729695  1.0000
  C   C7        1.0  0.0713631640636549  0.30209662602833015  0.40413339591869163  1.0000
  C   C8        1.0  0.07136244652868123  0.8020959290668939  0.5958647504301882  1.0000
  C   C9        1.0  0.055279872470130394  0.29688134300516106  0.2801462241014292  1.0000
  C   C10       1.0  0.05527865017470636  0.7968809576438073  0.7198528154237211  1.0000
  C   C11       1.0  0.915611440522632  0.38948299405262776  0.20996867789752835  1.0000
  C   C12       1.0  0.9156124954700148  0.8894838466653777  0.7900315285424924  1.0000
  N   N1        1.0  0.6577298931323483  0.5849528300932149  0.21758562810308046  1.0000
  N   N2        1.0  0.6577269535367024  0.08495446101340319  0.7824159254933182  1.0000
  N   N3        1.0  0.9127795194090211  0.3895735811068731  0.5903331103120879  1.0000
  N   N4        1.0  0.9127821228392253  0.8895734778060171  0.40966798849894576  1.0000
  N   N5        1.0  0.17393578195618184  0.19424100415946544  0.21857897205782717  1.0000
  N   N6        1.0  0.17393263770449607  0.6942418016910846  0.7814188370190326  1.0000
  O   O1        1.0  0.6122573335243474  0.555781537433745  0.46328022944408803  1.0000
  O   O2        1.0  0.6122536109115089  0.05577837134116948  0.5367213025296068  1.0000
  O   O3        1.0  0.2149558980509454  0.22324134123303438  0.4643483131954938  1.0000
  O   O4        1.0  0.21495074558273333  0.7232394146177582  0.5356504108290212  1.0000
  O   O5        1.0  0.9162218372702711  0.389409571016621  0.09908975878202853  1.0000
  O   O6        1.0  0.9162164233129743  0.8894064893019972  0.9009104469131873  1.0000
  O   O7        1.0  0.7818868671718421  0.6383586695594514  0.12529682491408073  1.0000
  O   O8        1.0  0.7818818805464789  0.13836156058329147  0.8747056188513656  1.0000
  O   O9        1.0  0.43643552753052023  0.6186106375174913  0.2578062410194022  1.0000
  O   O10       1.0  0.4364339771799522  0.118610094302646  0.742193818815473  1.0000
  O   O11       1.0  0.7655405992467552  0.46131789673417256  0.649053118692912  1.0000
  O   O12       1.0  0.7655400991003846  0.9613197021930657  0.3509473901055672  1.0000
  O   O13       1.0  0.05914203996734099  0.31788853553216256  0.6495771982968608  1.0000
  O   O14       1.0  0.05913808739062169  0.817887188293383  0.35042099477635713  1.0000
  O   O15       1.0  0.39471329897897084  0.16065315517192144  0.25944595147363714  1.0000
  O   O16       1.0  0.3947119924128657  0.6606528218327766  0.7405524625272054  1.0000
  O   O17       1.0  0.05149094550632329  0.1409203047580475  0.12592192307470643  1.0000
  O   O18       1.0  0.051486532415907456  0.6409192453791092  0.8740758838747882  1.0000
