data_image0
_chemical_formula_structural       Cu2H16C24S4N10
_chemical_formula_sum              "Cu2 H16 C24 S4 N10"
_cell_length_a       7.669089022455868
_cell_length_b       9.373992119410985
_cell_length_c       9.878513702347373
_cell_angle_alpha    83.51602073662418
_cell_angle_beta     81.67812138138028
_cell_angle_gamma    71.64507650721691

_space_group_name_H-M_alt    "P 1"
_space_group_IT_number       1

loop_
  _space_group_symop_operation_xyz
  'x, y, z'

loop_
  _atom_site_type_symbol
  _atom_site_label
  _atom_site_symmetry_multiplicity
  _atom_site_fract_x
  _atom_site_fract_y
  _atom_site_fract_z
  _atom_site_occupancy
  Cu  Cu1       1.0  0.9592551717499945  0.8307912328439642  0.1670760558656851  1.0000
  Cu  Cu2       1.0  0.0407367268129306  0.16920807525258397  0.8329207355379609  1.0000
  H   H1        1.0  0.9891310351794756  0.8630686029062317  0.5796755698413634  1.0000
  H   H2        1.0  0.010867075766483868  0.13693183008870594  0.42032746581989494  1.0000
  H   H3        1.0  0.239224964181325  0.9427759111079509  0.6548952792565216  1.0000
  H   H4        1.0  0.7607757538814398  0.0572211647277854  0.3451067780802219  1.0000
  H   H5        1.0  0.5697908619701408  0.8236621440265137  0.5548554448636978  1.0000
  H   H6        1.0  0.4302098738190523  0.17633151873287287  0.4451489804848521  1.0000
  H   H7        1.0  0.6311885731890355  0.6307234916010529  0.3840613157680791  1.0000
  H   H8        1.0  0.3688099491745191  0.3692758341857428  0.6159397589819519  1.0000
  H   H9        1.0  0.337756891485995  0.28398542025814083  0.09451533351565898  1.0000
  H   H10       1.0  0.6622416011251672  0.7160173283732191  0.9054823612875821  1.0000
  H   H11       1.0  0.461485329008866  0.3364227272188814  0.8506488247776642  1.0000
  H   H12       1.0  0.5385127040808015  0.663581167693451  0.14934678319691122  1.0000
  H   H13       1.0  0.3631163873526758  0.6006922188035162  0.7448094031276112  1.0000
  H   H14       1.0  0.6368931210826075  0.3993128444640419  0.25519283997675757  1.0000
  H   H15       1.0  0.14072360680983553  0.8028888574392212  0.8859333886031918  1.0000
  H   H16       1.0  0.8592872023336326  0.19711622890280006  0.11406768730049781  1.0000
  C   C1        1.0  0.5407061613416672  0.9784943736212663  0.1788034376072858  1.0000
  C   C2        1.0  0.4592879867248172  0.0214992421432356  0.821199740199816  1.0000
  C   C3        1.0  0.2335975895388103  0.0009486067542639  0.18841471262932424  1.0000
  C   C4        1.0  0.7663925962732633  0.9990449886278794  0.8115869071049175  1.0000
  C   C5        1.0  0.1827799885742393  0.7114551615008793  0.4366935799885781  1.0000
  C   C6        1.0  0.8172198465234716  0.288544177592179  0.5633073394957576  1.0000
  C   C7        1.0  0.13261475683454896  0.8166118832145131  0.5364592466800957  1.0000
  C   C8        1.0  0.8673832996819968  0.18338519531332761  0.46354008538311564  1.0000
  C   C9        1.0  0.27293300114097696  0.860249302776829  0.5782032688503022  1.0000
  C   C10       1.0  0.7270677048958162  0.13974778282711497  0.4217977765514646  1.0000
  C   C11       1.0  0.4558472671220811  0.7943510180317402  0.5231806037496652  1.0000
  C   C12       1.0  0.5441534268887408  0.2056460773404112  0.47681942971712477  1.0000
  C   C13       1.0  0.48996664710805504  0.6870053942331039  0.42786953135779265  1.0000
  C   C14       1.0  0.5100292257352449  0.3129939244775954  0.5721298300536829  1.0000
  C   C15       1.0  0.17962361800215368  0.5175761100794389  0.11619786756285319  1.0000
  C   C16       1.0  0.820380548989192  0.4824255748006153  0.8837982572013343  1.0000
  C   C17       1.0  0.29773898858849174  0.39706534591010734  0.043901261687452064  1.0000
  C   C18       1.0  0.7022652024547967  0.6029363194335247  0.956096886946689  1.0000
  C   C19       1.0  0.36414502392884873  0.42629401378394494  0.9086706703970221  1.0000
  C   C20       1.0  0.6358565599976275  0.5737110087188882  0.09132845656164076  1.0000
  C   C21       1.0  0.30989851653303885  0.573638269580691  0.8494424431940641  1.0000
  C   C22       1.0  0.690109183568687  0.4263679559662137  0.15055483254240437  1.0000
  C   C23       1.0  0.18892117934069574  0.6861699660305901  0.9273100851098945  1.0000
  C   C24       1.0  0.8110843427882416  0.3138350963910312  0.07268857605166794  1.0000
  S   S1        1.0  0.9944680393699344  0.6741202169138132  0.37325770650475215  1.0000
  S   S2        1.0  0.005529575976616642  0.32588139166673363  0.6267402065229176  1.0000
  S   S3        1.0  0.10625346467879374  0.47167077980302013  0.29028500953685915  1.0000
  S   S4        1.0  0.893746328640546  0.5283319919028101  0.7097115180657096  1.0000
  N   N1        1.0  0.7021716887638049  0.9233691669237986  0.1585363302908718  1.0000
  N   N2        1.0  0.2978224111987871  0.07662448791354141  0.8414627997763233  1.0000
  N   N3        1.0  0.10109096652292467  0.9668119918446723  0.17762287759050818  1.0000
  N   N4        1.0  0.8988952817117662  0.0331883604667667  0.8223775077221445  1.0000
  N   N5        1.0  0.366943307339838  0.051936155338168505  0.20529713838354974  1.0000
  N   N6        1.0  0.6330477797887967  0.9480585605583726  0.7947062869962307  1.0000
  N   N7        1.0  0.3556884408424635  0.6472334099082528  0.38304497537264837  1.0000
  N   N8        1.0  0.6443074383263648  0.3527693023423808  0.6169540418969744  1.0000
  N   N9        1.0  0.12328687334508698  0.6593185559831413  0.05958155259320109  1.0000
  N   N10       1.0  0.8767146802039251  0.34068309251617984  0.9404158946373683  1.0000
