data_image0
_chemical_formula_structural       Cu12Mo4H64C80S28I4N16O4
_chemical_formula_sum              "Cu12 Mo4 H64 C80 S28 I4 N16 O4"
_cell_length_a       10.394634774384464
_cell_length_b       19.285055561080338
_cell_length_c       19.82653900401059
_cell_angle_alpha    89.99999989488623
_cell_angle_beta     90.00011846475894
_cell_angle_gamma    90.49653263007649

_space_group_name_H-M_alt    "P 1"
_space_group_IT_number       1

loop_
  _space_group_symop_operation_xyz
  'x, y, z'

loop_
  _atom_site_type_symbol
  _atom_site_label
  _atom_site_symmetry_multiplicity
  _atom_site_fract_x
  _atom_site_fract_y
  _atom_site_fract_z
  _atom_site_occupancy
  Cu  Cu1       1.0  0.7538632697752021  0.8706473627051137  0.2585079560603205  1.0000
  Cu  Cu2       1.0  0.2461352958255247  0.6293522179292451  0.7585072019517016  1.0000
  Cu  Cu3       1.0  0.24613687319808975  0.12935258117672532  0.7414921302382285  1.0000
  Cu  Cu4       1.0  0.7538638605149898  0.37064669099707  0.24149288434631452  1.0000
  Cu  Cu5       1.0  0.775032533435528  0.8866459830705294  0.4416125426082829  1.0000
  Cu  Cu6       1.0  0.22496584141927667  0.6133556772611896  0.9416137830983687  1.0000
  Cu  Cu7       1.0  0.22496669682535503  0.1133560371633209  0.5583865349408371  1.0000
  Cu  Cu8       1.0  0.7750343385161926  0.3866458222744242  0.058386807574663614  1.0000
  Cu  Cu9       1.0  0.7181779650382296  0.0366309373279492  0.34370989899319687  1.0000
  Cu  Cu10      1.0  0.2818241583397665  0.4633693716688824  0.8437101911835682  1.0000
  Cu  Cu11      1.0  0.28182412655885264  0.9633700393624169  0.6562896829319415  1.0000
  Cu  Cu12      1.0  0.7181769343061291  0.536630051514713  0.1562903994899614  1.0000
  Mo  Mo1       1.0  0.9077117457004675  0.9447195347949917  0.33911514881727817  1.0000
  Mo  Mo2       1.0  0.09228906171190941  0.5552800430180937  0.8391157412687708  1.0000
  Mo  Mo3       1.0  0.0922893592628355  0.05528040693985049  0.6608839287328578  1.0000
  Mo  Mo4       1.0  0.9077120432543779  0.4447198987167554  0.16088484940476636  1.0000
  H   H1        1.0  0.8877222198452728  0.9224984476180114  0.1355390121401925  1.0000
  H   H2        1.0  0.11227586089961511  0.57750113076969  0.6355365999419291  1.0000
  H   H3        1.0  0.11227793545139521  0.07750201481509579  0.8644625872817573  1.0000
  H   H4        1.0  0.8877252071025127  0.4224972553113772  0.3644624776081927  1.0000
  H   H5        1.0  0.9365725169749554  0.8808289640444829  0.019356885091866602  1.0000
  H   H6        1.0  0.06342606766791188  0.6191706100735742  0.5193539154079049  1.0000
  H   H7        1.0  0.06342858799332161  0.11917097769038067  0.9806447143306021  1.0000
  H   H8        1.0  0.9365750249749994  0.38082881311000694  0.4806451621422242  1.0000
  H   H9        1.0  0.808534893562687  0.6766142269486295  0.08340531181983123  1.0000
  H   H10       1.0  0.1914668172747085  0.8233848233473752  0.5834039933922952  1.0000
  H   H11       1.0  0.19146621140459533  0.3233857147862267  0.916595783228168  1.0000
  H   H12       1.0  0.8085313770767897  0.1766140877259446  0.4165976060285886  1.0000
  H   H13       1.0  0.7723778001247085  0.7258561903709547  0.19643056596131464  1.0000
  H   H14       1.0  0.22761764705628457  0.774143914121474  0.6964297912790232  1.0000
  H   H15       1.0  0.2276223551709649  0.2741442720621449  0.8035705290861659  1.0000
  H   H16       1.0  0.7723815216076062  0.225855513356116  0.3035718081423867  1.0000
  H   H17       1.0  0.6924318073236578  0.5290374468598102  0.9479928605375962  1.0000
  H   H18       1.0  0.3075675793218693  0.9709652485440041  0.4479946435048063  1.0000
  H   H19       1.0  0.3075673982984243  0.47096353627152615  0.05200722576044111  1.0000
  H   H20       1.0  0.692432649896169  0.029038325196644593  0.5520064515427168  1.0000
  H   H21       1.0  0.45532597835445904  0.5195736109818015  0.9422342887411903  1.0000
  H   H22       1.0  0.5446733609374449  0.9804280472142537  0.4422322937750496  1.0000
  H   H23       1.0  0.5446713279293859  0.48042841354605764  0.057768319428142  1.0000
  H   H24       1.0  0.45532684363483616  0.019574489423853  0.5577662794001343  1.0000
  H   H25       1.0  0.41397753922853303  0.7330511973488427  0.9377352457314887  1.0000
  H   H26       1.0  0.5860208449750175  0.7669515000145284  0.43773430508021255  1.0000
  H   H27       1.0  0.5860246016541026  0.26695185354656553  0.062266353691534014  1.0000
  H   H28       1.0  0.41397842224505155  0.23305207587308263  0.5622637637199902  1.0000
  H   H29       1.0  0.6503788541909118  0.7523415986881757  0.9465503263860882  1.0000
  H   H30       1.0  0.3496195401262199  0.7476600617337253  0.4465481207211113  1.0000
  H   H31       1.0  0.34962226309377803  0.24765886159792663  0.05344925553852422  1.0000
  H   H32       1.0  0.6503806767644633  0.25234299345563466  0.5534494437051479  1.0000
  H   H33       1.0  0.5861544579320892  0.7447741786945272  0.23791122970581569  1.0000
  H   H34       1.0  0.41384302750824997  0.7552238480567582  0.7379121701356655  1.0000
  H   H35       1.0  0.41384374873681656  0.2552252509300316  0.7620888565916816  1.0000
  H   H36       1.0  0.5861570538620882  0.2447735030687852  0.2620874117883859  1.0000
  H   H37       1.0  0.35658369082282354  0.7154832990642959  0.24016011103254445  1.0000
  H   H38       1.0  0.6434138158034913  0.7845152462793266  0.7401602915375706  1.0000
  H   H39       1.0  0.6434145281684636  0.28451664911153063  0.7598409840138914  1.0000
  H   H40       1.0  0.35658625324843746  0.21548158629497038  0.25984029913541223  1.0000
  H   H41       1.0  0.2807065439811609  0.9308586779018666  0.28831370843455073  1.0000
  H   H42       1.0  0.719296912135114  0.5691393368882987  0.7883109457086023  1.0000
  H   H43       1.0  0.7192993586316874  0.06914073454680648  0.7116904128628436  1.0000
  H   H44       1.0  0.28070221956759417  0.43085853493550985  0.21169065371279325  1.0000
  H   H45       1.0  0.5176213268247453  0.9520423012668857  0.2826128922658526  1.0000
  H   H46       1.0  0.4823792208423258  0.54795571986012  0.78261239459561  1.0000
  H   H47       1.0  0.4823816774877373  0.0479565990714832  0.7173892115321083  1.0000
  H   H48       1.0  0.5176189488683818  0.4520421541106857  0.21738920482526686  1.0000
  H   H49       1.0  0.1879582369216806  0.7908668697167229  0.1320922422690742  1.0000
  H   H50       1.0  0.8120426422831531  0.7091295908594758  0.6320880665055881  1.0000
  H   H51       1.0  0.8120457540196071  0.20913306557715572  0.8679078440315636  1.0000
  H   H52       1.0  0.18795451614106182  0.2908662110532275  0.36790697604670447  1.0000
  H   H53       1.0  0.2260041300361522  0.7491696417063453  0.014976512228720703  1.0000
  H   H54       1.0  0.7739963613169394  0.7508299280376889  0.514972295068688  1.0000
  H   H55       1.0  0.7740008228991188  0.2508302914405505  0.9850245828213673  1.0000
  H   H56       1.0  0.22599992135901914  0.2491695058808077  0.48502325185759093  1.0000
  H   H57       1.0  0.11349188838726582  0.5486379456919012  0.0644555865757894  1.0000
  H   H58       1.0  0.8865059120864062  0.9513616313971196  0.5644545169708125  1.0000
  H   H59       1.0  0.8865034692678222  0.4513630460274101  0.9355450040946284  1.0000
  H   H60       1.0  0.11349610558732341  0.0486362339857038  0.4355445605798281  1.0000
  H   H61       1.0  0.074590662858995  0.5804114853145136  0.18296843343708252  1.0000
  H   H62       1.0  0.9254085052854891  0.919585499036444  0.6829663973736546  1.0000
  H   H63       1.0  0.9254066311024687  0.4195900206620776  0.8170331659833183  1.0000
  H   H64       1.0  0.0745944004568884  0.08040925289183322  0.31703217580300713  1.0000
  C   C1        1.0  0.8722734018277337  0.8682678083853334  0.12172166539297544  1.0000
  C   C2        1.0  0.12772462443596314  0.631731769749912  0.6217187653854382  1.0000
  C   C3        1.0  0.12772577915554711  0.13173213764349612  0.8782794296539794  1.0000
  C   C4        1.0  0.8722764558845669  0.36826713488240154  0.3782793034157593  1.0000
  C   C5        1.0  0.8989222276337189  0.8448385806616296  0.057103745316418014  1.0000
  C   C6        1.0  0.10107842982679222  0.655160989852085  0.5571018250834501  1.0000
  C   C7        1.0  0.1010798393225798  0.15516135892622168  0.942895836608706  1.0000
  C   C8        1.0  0.8989207634739033  0.34483947472799054  0.44289775684011806  1.0000
  C   C9        1.0  0.8747878217175256  0.7748863865447078  0.04134404782310951  1.0000
  C   C10       1.0  0.1252127982451228  0.7251142207835954  0.5413421535192386  1.0000
  C   C11       1.0  0.1252123335801372  0.22511407588839924  0.9586580559733022  1.0000
  C   C12       1.0  0.8747902430255509  0.27488623520853395  0.45865843715534993  1.0000
  C   C13       1.0  0.8285727594639524  0.731416469563328  0.09238419681270932  1.0000
  C   C14       1.0  0.1714280494219196  0.7685836201462094  0.5923813437221029  1.0000
  C   C15       1.0  0.1714283455053121  0.2685834721715352  0.9076179069842212  1.0000
  C   C16       1.0  0.8285701695673782  0.2314163280296029  0.40761874257540154  1.0000
  C   C17       1.0  0.8069259313531276  0.7593544661495741  0.15591922761733912  1.0000
  C   C18       1.0  0.1930722297458232  0.7406451126104513  0.6559153893439388  1.0000
  C   C19       1.0  0.1930742116231485  0.24064547773227218  0.8440823718046035  1.0000
  C   C20       1.0  0.8069250026097025  0.2593538006098299  0.3440841925785705  1.0000
  C   C21       1.0  0.6914491462768242  0.6421930055487264  0.9495095138266056  1.0000
  C   C22       1.0  0.3085502586621303  0.8578102084340173  0.4495077676261659  1.0000
  C   C23       1.0  0.3085520079710379  0.35780901039115065  0.050491076846952906  1.0000
  C   C24       1.0  0.6914509325419403  0.14219336315960623  0.5504903011750814  1.0000
  C   C25       1.0  0.6347885190631359  0.5759434554625853  0.9472776262145718  1.0000
  C   C26       1.0  0.3652099150828647  0.9240597606263705  0.4472754368492744  1.0000
  C   C27       1.0  0.3652107112007243  0.4240585647712721  0.05272296445794211  1.0000
  C   C28       1.0  0.6347884024646078  0.0759443359594769  0.5527221275759473  1.0000
  C   C29       1.0  0.5017640936137086  0.570483598829128  0.9441458930521947  1.0000
  C   C30       1.0  0.4982362275316988  0.9295185758061353  0.4441458654060072  1.0000
  C   C31       1.0  0.4982350504064144  0.42951479154592687  0.055854193245814115  1.0000
  C   C32       1.0  0.5017630027321616  0.0704834444277225  0.5558547252665067  1.0000
  C   C33       1.0  0.4789470332546912  0.6890707353128674  0.9417662417533494  1.0000
  C   C34       1.0  0.5210484562177413  0.8109309314625647  0.4417611955072546  1.0000
  C   C35       1.0  0.5210492987167612  0.3109307728107212  0.05823636641545701  1.0000
  C   C36       1.0  0.4789498366829791  0.18907212802074017  0.5582333426711729  1.0000
  C   C37       1.0  0.6109161726537168  0.6998380078223717  0.9461674848625282  1.0000
  C   C38       1.0  0.3890822447977627  0.8001646896950589  0.4461668349304304  1.0000
  C   C39       1.0  0.3890801469913754  0.3001629817499349  0.053832097059483906  1.0000
  C   C40       1.0  0.6109170347436931  0.19983940474381257  0.5538317382442487  1.0000
  C   C41       1.0  0.5168458774721216  0.7853406680444975  0.24878449677372322  1.0000
  C   C42       1.0  0.48315260050904396  0.7146568382071834  0.7487839993714404  1.0000
  C   C43       1.0  0.48315325423158134  0.21465720377931768  0.7512176070221417  1.0000
  C   C44       1.0  0.5168475178234644  0.2853420685721418  0.25121608692709435  1.0000
  C   C45       1.0  0.3867361641291538  0.7687741281362862  0.24999341185512955  1.0000
  C   C46       1.0  0.6132594572827018  0.731224421680963  0.7499925510985223  1.0000
  C   C47       1.0  0.6132611051905315  0.23122634073779114  0.7500076831907947  1.0000
  C   C48       1.0  0.38673966209862  0.26877293159158455  0.250008543948411  1.0000
  C   C49       1.0  0.2988394222174975  0.8214250572980218  0.2634329261018636  1.0000
  C   C50       1.0  0.7011610744624194  0.6785740005810652  0.7634306477118928  1.0000
  C   C51       1.0  0.7011617197159339  0.17857644009063023  0.736570690818475  1.0000
  C   C52       1.0  0.298838007956725  0.32142179703771484  0.2365699429605499  1.0000
  C   C53       1.0  0.34593076405807477  0.8887331219223213  0.27582744961637223  1.0000
  C   C54       1.0  0.6540716808391309  0.6112648947867357  0.7758271378948296  1.0000
  C   C55       1.0  0.6540732022464014  0.11126577626905737  0.7241746541821074  1.0000
  C   C56       1.0  0.3459264888715765  0.38873297918406985  0.22417446152604734  1.0000
  C   C57       1.0  0.47768571383964803  0.9003658617295185  0.2731346657598053  1.0000
  C   C58       1.0  0.5223138591077117  0.5996331984738389  0.773135724337543  1.0000
  C   C59       1.0  0.5223173151086442  0.09963407571134297  0.7268649161658447  1.0000
  C   C60       1.0  0.4776833732478137  0.40036571474644933  0.22686385758495936  1.0000
  C   C61       1.0  0.12791695477367432  0.6889803544850039  0.1674972798270034  1.0000
  C   C62       1.0  0.8720812273368852  0.8110181873840503  0.6674941775645495  1.0000
  C   C63       1.0  0.8720822508484077  0.31102062864633245  0.832502806471034  1.0000
  C   C64       1.0  0.1279178797150919  0.18897864733720132  0.3325023781121886  1.0000
  C   C65       1.0  0.1713927707907104  0.7366076079254569  0.11920193518290743  1.0000
  C   C66       1.0  0.8286003862939424  0.7633899066936678  0.6191977771911398  1.0000
  C   C67       1.0  0.8286044985269856  0.26339286094860626  0.8807981511140783  1.0000
  C   C68       1.0  0.1713977587640514  0.23660693017456688  0.380797769736141  1.0000
  C   C69       1.0  0.1925372701259889  0.7133607586722945  0.05388394036464212  1.0000
  C   C70       1.0  0.8074614383293552  0.7866382975253002  0.5538792549946197  1.0000
  C   C71       1.0  0.8074638348402986  0.28663918306256153  0.9461166503088876  1.0000
  C   C72       1.0  0.1925367313684276  0.21335957644544115  0.4461157875582131  1.0000
  C   C73       1.0  0.1306151617675511  0.6017151587891972  0.08123008172022143  1.0000
  C   C74       1.0  0.8693846041872321  0.8982833772097863  0.581227984982583  1.0000
  C   C75       1.0  0.8693821198715311  0.39828582863612627  0.9187705089512408  1.0000
  C   C76       1.0  0.13061836315511496  0.1017139674747725  0.4187695794451757  1.0000
  C   C77       1.0  0.10722825822950449  0.6201079297677196  0.14765719477929204  1.0000
  C   C78       1.0  0.8927727069891063  0.879889568195367  0.6476541147149747  1.0000
  C   C79       1.0  0.8927699977229652  0.3798935740618744  0.8523439002671581  1.0000
  C   C80       1.0  0.10723116074128573  0.12010518158590597  0.3523424409643425  1.0000
  S   S1        1.0  0.7933158405741878  0.9871072937494533  0.2500001887767881  1.0000
  S   S2        1.0  0.20668270380466688  0.5128928052807354  0.7500009054123852  1.0000
  S   S3        1.0  0.20668431471850113  0.012893168683639497  0.7499993931473057  1.0000
  S   S4        1.0  0.7933164648572274  0.4871066221968334  0.24999968526010014  1.0000
  S   S5        1.0  0.8548675152408478  0.8302020099752312  0.3511510082188067  1.0000
  S   S6        1.0  0.1451323899540711  0.6697980887559822  0.8511506488273284  1.0000
  S   S7        1.0  0.14513264005284296  0.1697984524578615  0.6488490780797493  1.0000
  S   S8        1.0  0.8548667910262324  0.33020185727283996  0.1488489330962324  1.0000
  S   S9        1.0  0.832077620852367  0.0005667980737981989  0.4323578079993525  1.0000
  S   S10       1.0  0.16792678836038993  0.4994340267999248  0.9323589853143235  1.0000
  S   S11       1.0  0.16792543273571434  0.9994341764695773  0.5676412695518425  1.0000
  S   S12       1.0  0.8320762529122734  0.5005664291922187  0.0676426141091895  1.0000
  S   S13       1.0  0.9052326541329307  0.7484108657636597  0.9575468366450439  1.0000
  S   S14       1.0  0.0947686695186363  0.7515907884181842  0.45754485900359043  1.0000
  S   S15       1.0  0.0947675134841361  0.2515901152207078  0.04245476277690591  1.0000
  S   S16       1.0  0.9052324847292254  0.24841122752170006  0.5424557316699677  1.0000
  S   S17       1.0  0.8606185730215403  0.6458339172316413  0.9568326183911043  1.0000
  S   S18       1.0  0.13938084847580257  0.8541687783336581  0.45683321064436216  1.0000
  S   S19       1.0  0.13938063260253844  0.3541670658997091  0.043168476655864714  1.0000
  S   S20       1.0  0.8606203304188114  0.14583427470876134  0.5431704062759979  1.0000
  S   S21       1.0  0.13008873431720502  0.8109104869484793  0.26415156824376856  1.0000
  S   S22       1.0  0.8699107908842123  0.6890880545394749  0.7641494727942942  1.0000
  S   S23       1.0  0.8699123952918555  0.18909049188889782  0.7358500311787068  1.0000
  S   S24       1.0  0.1300883161737332  0.3109087801818048  0.23585010912923116  1.0000
  S   S25       1.0  0.0997669591050894  0.707370791606749  0.2533317109623141  1.0000
  S   S26       1.0  0.9002344350935516  0.7926272268382634  0.7533271261644432  1.0000
  S   S27       1.0  0.9002332085099879  0.2926301893776113  0.7466688797107112  1.0000
  S   S28       1.0  0.0997675456110443  0.2073690828907502  0.24666791639045735  1.0000
  I   I1        1.0  0.5268058626041565  0.111960004421654  0.3519583351094085  1.0000
  I   I2        1.0  0.4731953189825191  0.3880397883215991  0.8519578263142834  1.0000
  I   I3        1.0  0.4731952423611361  0.888039937313188  0.648041751189659  1.0000
  I   I4        1.0  0.5268048239907799  0.6119601555602402  0.1480422599842655  1.0000
  N   N1        1.0  0.8251436389952289  0.8269121040887982  0.17095312705208704  1.0000
  N   N2        1.0  0.1748526450792411  0.6730869606886428  0.6709507823792294  1.0000
  N   N3        1.0  0.1748565039810543  0.17308783979305534  0.8290484723698556  1.0000
  N   N4        1.0  0.825146498939887  0.32691142968641174  0.3290487995443172  1.0000
  N   N5        1.0  0.4234010035175474  0.62571910864947  0.9416734068460574  1.0000
  N   N6        1.0  0.5765983335629272  0.8742825495363392  0.44167144686035453  1.0000
  N   N7        1.0  0.5766001260895238  0.37428187018789316  0.05832718382748681  1.0000
  N   N8        1.0  0.42340284531876193  0.1257205035060238  0.5583256131919613  1.0000
  N   N9        1.0  0.5633037760043962  0.8498778243572289  0.25955140355148393  1.0000
  N   N10       1.0  0.4366966807367376  0.6501201963484532  0.7595523691205204  1.0000
  N   N11       1.0  0.4367001902951131  0.1501210738341285  0.7404481783746776  1.0000
  N   N12       1.0  0.5633015012903897  0.34987819617358434  0.2404472128025077  1.0000
  N   N13       1.0  0.1735785791921671  0.6470498819989459  0.034302600350933715  1.0000
  N   N14       1.0  0.8264190777478151  0.8529486574366488  0.5342999528077572  1.0000
  N   N15       1.0  0.8264215761025185  0.3529505804341539  0.9656979903220846  1.0000
  N   N16       1.0  0.17358007858673122  0.14705025148963807  0.4656971072434644  1.0000
  O   O1        1.0  0.0707939514363431  0.9576766699783689  0.3281990228899971  1.0000
  O   O2        1.0  0.9292077626083853  0.5423223869370375  0.8282005228599163  1.0000
  O   O3        1.0  0.9292071288851815  0.042322234653951796  0.6717995502856696  1.0000
  O   O4        1.0  0.07079333003850512  0.45767703624656514  0.17180057218808292  1.0000
