data_image0
_chemical_formula_structural       Lu2CuH18C22N2O18
_chemical_formula_sum              "Lu2 Cu1 H18 C22 N2 O18"
_cell_length_a       6.594684837726634
_cell_length_b       7.9353404478581115
_cell_length_c       13.022972654057082
_cell_angle_alpha    100.84794522768513
_cell_angle_beta     92.27975811464974
_cell_angle_gamma    102.74098392071416

_space_group_name_H-M_alt    "P 1"
_space_group_IT_number       1

loop_
  _space_group_symop_operation_xyz
  'x, y, z'

loop_
  _atom_site_type_symbol
  _atom_site_label
  _atom_site_symmetry_multiplicity
  _atom_site_fract_x
  _atom_site_fract_y
  _atom_site_fract_z
  _atom_site_occupancy
  Lu  Lu1       1.0  0.5603010751741452  0.930449372571026  0.3532609837819791  1.0000
  Lu  Lu2       1.0  0.4396949211719558  0.0695482856751894  0.6467382289768154  1.0000
  Cu  Cu1       1.0  8.502017998024545e-06  0.5000034549649398  5.051663038106999e-06  1.0000
  H   H1        1.0  0.10210256404076284  0.7301459319928512  0.3014812700603358  1.0000
  H   H2        1.0  0.8978925806761284  0.26985444777601936  0.6985152015634385  1.0000
  H   H3        1.0  0.16261287294711474  0.7970070689478347  0.4266656936306105  1.0000
  H   H4        1.0  0.8373820539967626  0.2029866792969557  0.5733314726226126  1.0000
  H   H5        1.0  0.6755769726278728  0.2516684719474327  0.1710100137466881  1.0000
  H   H6        1.0  0.3244266002100034  0.7483293080250134  0.8289870256486866  1.0000
  H   H7        1.0  0.3774714068638333  0.031042174761609  0.0644966889534615  1.0000
  H   H8        1.0  0.6225334767845041  0.9689489604948418  0.9355018347073738  1.0000
  H   H9        1.0  0.0864237364439902  0.1403530779933391  0.9853661172557511  1.0000
  H   H10       1.0  0.9135758011599222  0.8596405602935633  0.014635713484317126  1.0000
  H   H11       1.0  0.37694461149882136  0.4890696923866216  0.43105173453364654  1.0000
  H   H12       1.0  0.6230528466974478  0.5109330775317104  0.5689535227353133  1.0000
  H   H13       1.0  0.21191057899566346  0.37670495700010054  0.5142544009669621  1.0000
  H   H14       1.0  0.7880881651014634  0.6232912385844075  0.48575004498864877  1.0000
  H   H15       1.0  0.01648253230040096  0.45037755402740487  0.362133735969529  1.0000
  H   H16       1.0  0.9835152602213951  0.5496265817866614  0.6378701629534619  1.0000
  H   H17       1.0  0.14458508637534348  0.32266546049688566  0.2723236309159418  1.0000
  H   H18       1.0  0.8554104840022985  0.6773360270997841  0.7276798994841657  1.0000
  C   C1        1.0  0.3724554977198338  0.5226672613047185  0.11521616818213691  1.0000
  C   C2        1.0  0.6275388190030853  0.4773186537452999  0.8847776946959416  1.0000
  C   C3        1.0  0.5428795935723372  0.4744809251201048  0.1597626943591024  1.0000
  C   C4        1.0  0.4571112068023667  0.5255089395070769  0.8402308461165121  1.0000
  C   C5        1.0  0.5456314715831639  0.2948454201352746  0.13846249533479954  1.0000
  C   C6        1.0  0.4543798453925946  0.7051641910300573  0.8615384613277329  1.0000
  C   C7        1.0  0.38119320181314015  0.17120184861979476  0.07777967692593529  1.0000
  C   C8        1.0  0.6188079240787372  0.8288037909312321  0.9222190865725539  1.0000
  C   C9        1.0  0.21790314399115118  0.22878088874636396  0.0356709118619136  1.0000
  C   C10       1.0  0.7820962272410342  0.7712181559332122  0.9643269914370693  1.0000
  C   C11       1.0  0.3442784192086136  0.7075112223902664  0.12081710182800984  1.0000
  C   C12       1.0  0.6557258637963345  0.2924891720700344  0.8791810468401026  1.0000
  C   C13       1.0  0.7237659277747001  0.5999388333039589  0.23009859600563232  1.0000
  C   C14       1.0  0.27623705272299043  0.4000681824116156  0.769898833589963  1.0000
  C   C15       1.0  0.3794920485096681  0.21853706852741783  0.4150742326274184  1.0000
  C   C16       1.0  0.6205058273518489  0.7814618955011806  0.584925941807292  1.0000
  C   C17       1.0  0.26562462731864406  0.3653140286636472  0.4352165064840534  1.0000
  C   C18       1.0  0.7343661312323492  0.6346808904453879  0.5647845844445172  1.0000
  C   C19       1.0  0.08699385253259347  0.3354973985358426  0.3504792649743891  1.0000
  C   C20       1.0  0.9130122598608706  0.6645093796494237  0.6495266306296658  1.0000
  C   C21       1.0  0.9154636427009425  0.1754379353264  0.3515158662162463  1.0000
  C   C22       1.0  0.08453411660804724  0.8245662943305518  0.6484849719349911  1.0000
  N   N1        1.0  0.21691605685622048  0.40026042304023685  0.0541938098585391  1.0000
  N   N2        1.0  0.783100446513359  0.5997398893455211  0.9458098907047585  1.0000
  O   O1        1.0  0.21970153426275366  0.7863113426726115  0.35680907364344  1.0000
  O   O2        1.0  0.7802960989161464  0.2136810602140642  0.6431894998419027  1.0000
  O   O3        1.0  0.19909876888637965  0.7248725593478013  0.057968367949307306  1.0000
  O   O4        1.0  0.8009003430567817  0.27511997111130176  0.9420264040144276  1.0000
  O   O5        1.0  0.4612960174179506  0.8366894925464977  0.18199128204597062  1.0000
  O   O6        1.0  0.5387021844658976  0.1633108608385498  0.818006768849827  1.0000
  O   O7        1.0  0.9049344812275351  0.5962456918579945  0.20497819862803368  1.0000
  O   O8        1.0  0.09507005434529957  0.40377341896458313  0.7950131029542291  1.0000
  O   O9        1.0  0.6816462810994466  0.6922385887328558  0.3148005987477731  1.0000
  O   O10       1.0  0.31834775239151714  0.3077629355164362  0.685201376823379  1.0000
  O   O11       1.0  0.42426592927878193  0.1412775010898315  0.4885771836259353  1.0000
  O   O12       1.0  0.5757313446649802  0.858713606283281  0.5114204526265738  1.0000
  O   O13       1.0  0.4305163671387006  0.16753469341727367  0.323734310918681  1.0000
  O   O14       1.0  0.5694791617229313  0.8324669114830029  0.6762653935167365  1.0000
  O   O15       1.0  0.8268637017482308  0.07614955368686793  0.2661524246593885  1.0000
  O   O16       1.0  0.17313546959171325  0.9238599284065143  0.7338498668443948  1.0000
  O   O17       1.0  0.8509978337058188  0.14099092633824026  0.4393077691607274  1.0000
  O   O18       1.0  0.14899700159514134  0.8590080171527318  0.5606923563878254  1.0000
