data_image0
_chemical_formula_structural       Zn2H32C28N8O8
_chemical_formula_sum              "Zn2 H32 C28 N8 O8"
_cell_length_a       8.122654009745572
_cell_length_b       9.908240018453446
_cell_length_c       10.520879716035171
_cell_angle_alpha    97.00144203491807
_cell_angle_beta     109.72429108534674
_cell_angle_gamma    99.60776544016977

_space_group_name_H-M_alt    "P 1"
_space_group_IT_number       1

loop_
  _space_group_symop_operation_xyz
  'x, y, z'

loop_
  _atom_site_type_symbol
  _atom_site_label
  _atom_site_symmetry_multiplicity
  _atom_site_fract_x
  _atom_site_fract_y
  _atom_site_fract_z
  _atom_site_occupancy
  Zn  Zn1       1.0  0.9675574339324841  0.3330735237524038  0.22212602616710334  1.0000
  Zn  Zn2       1.0  0.03243963040412021  0.6669269033323959  0.7778737159622506  1.0000
  H   H1        1.0  0.507074971217861  0.6207168548085065  0.10986292700997778  1.0000
  H   H2        1.0  0.492916444514961  0.3792772812352537  0.8901336853020607  1.0000
  H   H3        1.0  0.8804852725033355  0.0883571699601262  0.5400076020175033  1.0000
  H   H4        1.0  0.1195219860421376  0.9116422838038292  0.4599947569191157  1.0000
  H   H5        1.0  0.8762808944616721  0.3383475898446306  0.9084074475351184  1.0000
  H   H6        1.0  0.1237173417295168  0.6616476469160588  0.09159300371320707  1.0000
  H   H7        1.0  0.07011265464775107  0.22678259476048618  0.764017796916981  1.0000
  H   H8        1.0  0.9298864638308258  0.7732157566894244  0.2359813212715664  1.0000
  H   H9        1.0  0.20207280175769426  0.10749040236143509  0.15380360998201326  1.0000
  H   H10       1.0  0.7979247092496068  0.8925069045223498  0.846195918206213  1.0000
  H   H11       1.0  0.20291025524240777  0.9604145165489156  0.8472928607104321  1.0000
  H   H12       1.0  0.7970986107743413  0.0395859817811655  0.15270908822650844  1.0000
  H   H13       1.0  0.33647367249392357  0.11769338997528682  0.8391802220331923  1.0000
  H   H14       1.0  0.6635333991948826  0.882310248285414  0.16082538547116343  1.0000
  H   H15       1.0  0.39208075979342993  0.9819748887301502  0.09386977495187664  1.0000
  H   H16       1.0  0.6079204857844971  0.018026635877347996  0.9061350024901951  1.0000
  H   H17       1.0  0.525511230001065  0.14265307099582003  0.08982406784321025  1.0000
  H   H18       1.0  0.4744916136985609  0.8573495052867133  0.9101812484118665  1.0000
  H   H19       1.0  0.3676751818869377  0.4073361677168776  0.22887787209452162  1.0000
  H   H20       1.0  0.6323204414314816  0.5926683925052101  0.7711190751019427  1.0000
  H   H21       1.0  0.6087134075044602  0.6473680232088413  0.3920116610159994  1.0000
  H   H22       1.0  0.39128383263479805  0.3526375744704637  0.6079839273680958  1.0000
  H   H23       1.0  0.11154353539372865  0.6251414913323076  0.4487895822783584  1.0000
  H   H24       1.0  0.8884580260956626  0.37486105491748833  0.5512125369141783  1.0000
  H   H25       1.0  0.5822956023147725  0.8137548039832511  0.6117314243753356  1.0000
  H   H26       1.0  0.4177036545681716  0.18624874649679407  0.38826733531871566  1.0000
  H   H27       1.0  0.3575473378536315  0.825781484054488  0.591371943523306  1.0000
  H   H28       1.0  0.6424532386378417  0.1742220680226723  0.4086262179825296  1.0000
  H   H29       1.0  0.5608187348882012  0.9095616460274201  0.4026891702995953  1.0000
  H   H30       1.0  0.439178933222621  0.09044084566868799  0.5973081017687532  1.0000
  H   H31       1.0  0.3358005699354933  0.9218001052220685  0.3730551903739466  1.0000
  H   H32       1.0  0.6641970888257518  0.0782023935829415  0.6269430305070924  1.0000
  C   C1        1.0  0.7023574006842781  0.4864452555680002  0.1588655457244883  1.0000
  C   C2        1.0  0.29763562251981307  0.5135499250418859  0.8411306565878645  1.0000
  C   C3        1.0  0.5459685466042643  0.531488718540338  0.06580264165548756  1.0000
  C   C4        1.0  0.45402210654638264  0.4685075160621394  0.9341968428472067  1.0000
  C   C5        1.0  0.008907042958021805  0.1425251239824448  0.3916322389505423  1.0000
  C   C6        1.0  0.9911032827760593  0.8574712269925444  0.6083706072939065  1.0000
  C   C7        1.0  0.9687948375659161  0.05760880549799201  0.48903648953919526  1.0000
  C   C8        1.0  0.031211817205345896  0.9423885836546616  0.5109683394584293  1.0000
  C   C9        1.0  0.9710280378707096  0.27189417453699594  0.9362034253241303  1.0000
  C   C10       1.0  0.02897108060786732  0.7281041769129146  0.06379569286441011  1.0000
  C   C11       1.0  0.06395783044717972  0.21613207852075794  0.8636025666820113  1.0000
  C   C12       1.0  0.9360393926973812  0.7838641853940161  0.13639677331768493  1.0000
  C   C13       1.0  0.1401519668386797  0.15488109427830918  0.06753605761421258  1.0000
  C   C14       1.0  0.8598484338501395  0.8451172872043458  0.9324662576368822  1.0000
  C   C15       1.0  0.2863738841963793  0.06203893814187471  0.9076546530747859  1.0000
  C   C16       1.0  0.7136313202071207  0.9379625912569695  0.09234832980263968  1.0000
  C   C17       1.0  0.4428228852335394  0.0409734459033899  0.027379451766400126  1.0000
  C   C18       1.0  0.5571809808622916  0.9590280961161496  0.9726260269246222  1.0000
  C   C19       1.0  0.3496727013523895  0.4886293626267529  0.2983181697368308  1.0000
  C   C20       1.0  0.6503255144352095  0.5113752363340965  0.7016823251466489  1.0000
  C   C21       1.0  0.46984324107376113  0.6081324084263642  0.37850488491769596  1.0000
  C   C22       1.0  0.5301570288558182  0.39187011489959644  0.6214949860249843  1.0000
  C   C23       1.0  0.21109057262940215  0.5975614036973483  0.40910536501759504  1.0000
  C   C24       1.0  0.7889078206653013  0.4024390178756576  0.5908928301108459  1.0000
  C   C25       1.0  0.4496501050958415  0.8129145576304353  0.536979438976445  1.0000
  C   C26       1.0  0.5503494489994267  0.18709002870971858  0.46301856009345227  1.0000
  C   C27       1.0  0.46652691750981745  0.9277413826348422  0.4542026008766981  1.0000
  C   C28       1.0  0.5334723580722737  0.072262153627392  0.5457942611919717  1.0000
  N   N1        1.0  0.019805653883942405  0.2329615929770412  0.06339491713694659  1.0000
  N   N2        1.0  0.9801968102964195  0.7670347057618159  0.9366058253606436  1.0000
  N   N3        1.0  0.17068859841209164  0.14315764085588967  0.948086627676005  1.0000
  N   N4        1.0  0.8293102415533085  0.8568396605161087  0.05191135351132199  1.0000
  N   N5        1.0  0.18888454695149898  0.48329288132859455  0.31792737666768994  1.0000
  N   N6        1.0  0.8111126744886191  0.5167127305685282  0.6820701093417865  1.0000
  N   N7        1.0  0.37975435491670595  0.6754037975571593  0.44753068422546954  1.0000
  N   N8        1.0  0.6202438889196175  0.32460078007697046  0.5524669642199455  1.0000
  O   O1        1.0  0.744183446997603  0.3777421852335792  0.10569594947153847  1.0000
  O   O2        1.0  0.2558047537926669  0.622249861677922  0.8943014828398572  1.0000
  O   O3        1.0  0.7843854320915469  0.553960508300591  0.2794723484354335  1.0000
  O   O4        1.0  0.21561376118360445  0.446037786278069  0.720519179251596  1.0000
  O   O5        1.0  0.9043797967466602  0.2284553504314886  0.3551219078738654  1.0000
  O   O6        1.0  0.09563055703613797  0.7715409792167803  0.6448780919325114  1.0000
  O   O7        1.0  0.1298992054867512  0.12603403199906182  0.34654685568661137  1.0000
  O   O8        1.0  0.8701093556725468  0.8739560895974777  0.6534586566773937  1.0000
