data_image0
_chemical_formula_structural       Na4P4H20C24O12
_chemical_formula_sum              "Na4 P4 H20 C24 O12"
_cell_length_a       6.3305483177749515
_cell_length_b       7.457119371897089
_cell_length_c       14.54351867996166
_cell_angle_alpha    104.85320059336779
_cell_angle_beta     99.6513164619649
_cell_angle_gamma    89.95834788995406

_space_group_name_H-M_alt    "P 1"
_space_group_IT_number       1

loop_
  _space_group_symop_operation_xyz
  'x, y, z'

loop_
  _atom_site_type_symbol
  _atom_site_label
  _atom_site_symmetry_multiplicity
  _atom_site_fract_x
  _atom_site_fract_y
  _atom_site_fract_z
  _atom_site_occupancy
  Na  Na1       1.0  0.2497324277048492  0.10876191059687561  2.5972487819107376e-05  1.0000
  Na  Na2       1.0  0.7502625766829494  0.8912407362286531  0.9999737658448425  1.0000
  Na  Na3       1.0  0.7499829859481509  0.45741986410495616  0.9997786532377191  1.0000
  Na  Na4       1.0  0.2500136026390436  0.5425827748680375  0.0002218947725509997  1.0000
  P   P1        1.0  0.0028800625619424974  0.2805989865184698  0.1498670467180503  1.0000
  P   P2        1.0  0.496730920778802  0.13091364240632689  0.850277393696871  1.0000
  P   P3        1.0  0.9971197535235771  0.7194050226191918  0.850135996100157  1.0000
  P   P4        1.0  0.5032624638941384  0.8690890065880266  0.14972290671642  1.0000
  H   H1        1.0  0.6460360245141317  0.5816883638522441  0.37550031878694073  1.0000
  H   H2        1.0  0.8538991844684531  0.20691547643640013  0.6243122958998414  1.0000
  H   H3        1.0  0.3539748990035817  0.4183114639688982  0.6244982207460483  1.0000
  H   H4        1.0  0.1460938278496045  0.7930788544977361  0.37568343767621576  1.0000
  H   H5        1.0  0.4149127180618704  0.4899335012612624  0.21816522956189743  1.0000
  H   H6        1.0  0.08477926951365328  0.2726553874873474  0.7817221125612619  1.0000
  H   H7        1.0  0.5850949660261405  0.5100663308975298  0.7818344341323425  1.0000
  H   H8        1.0  0.9152090551320808  0.727341730218278  0.21827500052477694  1.0000
  H   H9        1.0  0.16694062563475134  0.3563533876485678  0.5005700866975361  1.0000
  H   H10       1.0  0.3332574330754383  0.855600507430559  0.49968031509757094  1.0000
  H   H11       1.0  0.8330750149657007  0.6436464109312822  0.4994322536265018  1.0000
  H   H12       1.0  0.6667404322821396  0.14439656884358948  0.5003202842958745  1.0000
  H   H13       1.0  0.9378798891658915  0.26372525506611305  0.342233200356155  1.0000
  H   H14       1.0  0.5620006506968095  0.9214307459706391  0.6580974596089038  1.0000
  H   H15       1.0  0.06213085094821479  0.7362731669923405  0.6577692648779276  1.0000
  H   H16       1.0  0.4379957309026992  0.07856910705364577  0.3419047668915028  1.0000
  H   H17       1.0  0.6612591716017703  0.21748251350405917  0.1492146836564103  1.0000
  H   H18       1.0  0.8384917082358994  0.06853878704841779  0.8508580668395497  1.0000
  H   H19       1.0  0.33874209272636335  0.7825187131997707  0.8507881038130736  1.0000
  H   H20       1.0  0.1615033316673475  0.9314638654608202  0.14914029973487433  1.0000
  C   C1        1.0  0.1607636251890625  0.36791407336760773  0.268101385947226  1.0000
  C   C2        1.0  0.3389797243060784  0.10015597419994293  0.7320184194335299  1.0000
  C   C3        1.0  0.8392392943693777  0.6320871568510995  0.731899467683391  1.0000
  C   C4        1.0  0.6610133529378571  0.8998411199480926  0.26798112268532753  1.0000
  C   C5        1.0  0.360237437957167  0.4599929505433026  0.2799552606215131  1.0000
  C   C6        1.0  0.13954680386106588  0.18066769108094147  0.7200183408306345  1.0000
  C   C7        1.0  0.6397687801305024  0.5400096612074775  0.7200453443005728  1.0000
  C   C8        1.0  0.8604478575822654  0.8193293952145664  0.27998201096583136  1.0000
  C   C9        1.0  0.09338235716744239  0.33365749509437137  0.3494343775245099  1.0000
  C   C10       1.0  0.406498964760118  0.9843182607445583  0.6507795064508316  1.0000
  C   C11       1.0  0.9066254864614224  0.6663464918317529  0.6505685984070197  1.0000
  C   C12       1.0  0.5934940356265628  0.0156774446918959  0.3492198460944209  1.0000
  C   C13       1.0  0.2247634770263218  0.38665285729562276  0.43956714979351846  1.0000
  C   C14       1.0  0.2752693335499714  0.9471030664386006  0.5605870115603723  1.0000
  C   C15       1.0  0.7752540907179931  0.613352493961713  0.5604353867443237  1.0000
  C   C16       1.0  0.7247236845944373  0.0528926418397049  0.43941165510575797  1.0000
  C   C17       1.0  0.49161058517184836  0.5121315872029868  0.37024851147211996  1.0000
  C   C18       1.0  0.008279693013825794  0.1423664854307276  0.6296717878875101  1.0000
  C   C19       1.0  0.5083990260600258  0.48787379763329847  0.6297513484359244  1.0000
  C   C20       1.0  0.9917163339885277  0.8576250523751907  0.3703251858965474  1.0000
  C   C21       1.0  0.4287045181289244  0.47467067181641187  0.45214504799496086  1.0000
  C   C22       1.0  0.0712535536409504  0.022650149961805303  0.5478752343751765  1.0000
  C   C23       1.0  0.5713051699602048  0.5253361017314546  0.5478550014866884  1.0000
  C   C24       1.0  0.9287410073610545  0.9773441674361011  0.45212268063671973  1.0000
  O   O1        1.0  0.0781618417559002  0.37449316159209184  0.07903979505705652  1.0000
  O   O2        1.0  0.4212372445979753  0.2954657613688171  0.9211721569607649  1.0000
  O   O3        1.0  0.9218347113158385  0.6255094716972067  0.9209621247114443  1.0000
  O   O4        1.0  0.5787578721625265  0.7045382798519954  0.07882639918727115  1.0000
  O   O5        1.0  0.011340951038682994  0.06827611761033131  0.11865183066040433  1.0000
  O   O6        1.0  0.4887319310615297  0.9496635321938883  0.8813840285931962  1.0000
  O   O7        1.0  0.988655714405759  0.9317279100742438  0.8813489069234778  1.0000
  O   O8        1.0  0.5112631146680683  0.050340497659512096  0.118617271071308  1.0000
  O   O9        1.0  0.7613947798848172  0.33238296536147527  0.1569998583197929  1.0000
  O   O10       1.0  0.7382176287246408  0.17575791091230286  0.8432496048647452  1.0000
  O   O11       1.0  0.23860500068523993  0.6676210380924913  0.8430045562566452  1.0000
  O   O12       1.0  0.2617756732647081  0.8242419720263001  0.15674757288486063  1.0000
