data_image0
_chemical_formula_structural       Cd2H40C52I4N12
_chemical_formula_sum              "Cd2 H40 C52 I4 N12"
_cell_length_a       9.33207428133659
_cell_length_b       12.277444163182599
_cell_length_c       12.9081
_cell_angle_alpha    108.74490871838405
_cell_angle_beta     97.87716097787883
_cell_angle_gamma    108.07023509499194

_space_group_name_H-M_alt    "P 1"
_space_group_IT_number       1

loop_
  _space_group_symop_operation_xyz
  'x, y, z'

loop_
  _atom_site_type_symbol
  _atom_site_label
  _atom_site_symmetry_multiplicity
  _atom_site_fract_x
  _atom_site_fract_y
  _atom_site_fract_z
  _atom_site_occupancy
  Cd  Cd1       1.0  0.14384450654282688  0.7610980142663166  0.22236920476612446  1.0000
  Cd  Cd2       1.0  0.856155436653971  0.2389025426106528  0.7776309598177988  1.0000
  H   H1        1.0  0.44345346372221417  0.833615564449559  0.4214557946232984  1.0000
  H   H2        1.0  0.5565471200781502  0.1663840635250367  0.5785441495093764  1.0000
  H   H3        1.0  0.615882704264898  0.7389678442150043  0.48514174057682163  1.0000
  H   H4        1.0  0.3841172389318928  0.2610327126619651  0.5148584240071016  1.0000
  H   H5        1.0  0.40779410467496996  0.4289308870493116  0.15946769011479484  1.0000
  H   H6        1.0  0.5922043155641603  0.5710687409252913  0.8405320396483019  1.0000
  H   H7        1.0  0.244451160340958  0.5387011378595616  0.10836266281354061  1.0000
  H   H8        1.0  0.755549224032883  0.4613003479197815  0.8916378294064202  1.0000
  H   H9        1.0  0.8411464841220136  0.7380482308691896  0.4196088310574026  1.0000
  H   H10       1.0  0.15885345907477696  0.261952326007787  0.5803913335265207  1.0000
  H   H11       1.0  0.0692968088376844  0.8347906259469937  0.5848272796958865  1.0000
  H   H12       1.0  0.9307040167132072  0.1652117887347089  0.4151735401601114  1.0000
  H   H13       1.0  0.9462892257797293  0.5228652102640794  0.6650342094681108  1.0000
  H   H14       1.0  0.05371115859411188  0.47713627551525667  0.3349670574592024  1.0000
  H   H15       1.0  0.708101290607857  0.41244379889280214  0.5034022550451667  1.0000
  H   H16       1.0  0.29189929319251456  0.5875558290818006  0.4965976890875083  1.0000
  H   H17       1.0  0.7623152714405137  0.37285397990410013  0.25553532355902314  1.0000
  H   H18       1.0  0.2376857535369012  0.6271465769728692  0.7444649482096891  1.0000
  H   H19       1.0  0.6650418634398321  0.1444628965068731  0.16783474730155484  1.0000
  H   H20       1.0  0.33495807975696573  0.8555376603701035  0.8321654172823684  1.0000
  H   H21       1.0  0.23526280685979364  0.1204888552520771  0.2638715712771145  1.0000
  H   H22       1.0  0.7647366951599609  0.8795107727225259  0.7361282656707713  1.0000
  H   H23       1.0  0.3327088066980508  0.3523159485141392  0.34976066843420023  1.0000
  H   H24       1.0  0.6672917771023137  0.6476836794604637  0.6502392756984745  1.0000
  H   H25       1.0  0.2996435791604881  0.0623089131422816  0.9954165608744602  1.0000
  H   H26       1.0  0.7003559228592593  0.9376907148323212  0.004582501366073143  1.0000
  H   H27       1.0  0.05515947007456389  0.9469750940156131  0.8367616469433086  1.0000
  H   H28       1.0  0.9448406725487574  0.053023605056616005  0.1632379695533288  1.0000
  H   H29       1.0  0.8659562965555878  0.7441780576056091  0.828950675430512  1.0000
  H   H30       1.0  0.13404320546415957  0.2558215703689868  0.17104916151737362  1.0000
  H   H31       1.0  0.9261514797124165  0.6735136676495443  0.9857302380548063  1.0000
  H   H32       1.0  0.07384910408795518  0.3264859603250514  0.014270480785221189  1.0000
  H   H33       1.0  0.6294226809337147  0.0442659135168384  0.3305322148264338  1.0000
  H   H34       1.0  0.3705768210860327  0.9557337144577644  0.669467622121452  1.0000
  H   H35       1.0  0.8042386057819043  0.9255991926883524  0.3239769460097505  1.0000
  H   H36       1.0  0.1957613374148934  0.0744013641886241  0.6760224438668202  1.0000
  H   H37       1.0  0.7418643142124849  0.7307331247092606  0.1517856110452555  1.0000
  H   H38       1.0  0.2581341060266453  0.2692665032653423  0.8482141187178412  1.0000
  H   H39       1.0  0.5054534258268504  0.6662180684393846  0.9927816740346672  1.0000
  H   H40       1.0  0.49454563501585375  0.3337806306328517  0.0072178352771742815  1.0000
  C   C1        1.0  0.4392415354822106  0.7438798799449985  0.3652204057475216  1.0000
  C   C2        1.0  0.5607568847569198  0.2561197480296045  0.6347800987229277  1.0000
  C   C3        1.0  0.5363399416868546  0.6901921096941805  0.4006434249001599  1.0000
  C   C4        1.0  0.4636584785522757  0.3098075182804223  0.5993563048629367  1.0000
  C   C5        1.0  0.5264438822767161  0.5728178640870851  0.3281178343637733  1.0000
  C   C6        1.0  0.4735551785659879  0.427180834985144  0.671881674948068  1.0000
  C   C7        1.0  0.4191077885619023  0.5183906875501307  0.22025869665550593  1.0000
  C   C8        1.0  0.5808917134578451  0.48160894042447217  0.7797419149997323  1.0000
  C   C9        1.0  0.32733080566114836  0.5790507989865219  0.19175727752231345  1.0000
  C   C10       1.0  0.6726695787126928  0.4209506867928141  0.8082432146976471  1.0000
  C   C11       1.0  0.7498694710640662  0.5680962533428442  0.4501600557037477  1.0000
  C   C12       1.0  0.25013003095568104  0.43190337463175865  0.5498390065367785  1.0000
  C   C13       1.0  0.8566882360595683  0.6875512402576476  0.4730640498953419  1.0000
  C   C14       1.0  0.14331431187551397  0.3124502455216884  0.5269366566941968  1.0000
  C   C15       1.0  0.9862947573547629  0.7413402608667425  0.566180130692075  1.0000
  C   C16       1.0  0.013705627019078272  0.2586612249125935  0.4338211362352452  1.0000
  C   C17       1.0  0.9185393309187405  0.5688951093806267  0.6095385460165231  1.0000
  C   C18       1.0  0.0814606122780575  0.4311054474963427  0.3904616185674001  1.0000
  C   C19       1.0  0.7847714777745551  0.5066131344070612  0.5192098268258005  1.0000
  C   C20       1.0  0.21522910602581644  0.49338649356754155  0.48079011730686705  1.0000
  C   C21       1.0  0.5530432175944924  0.3763355059850397  0.307187845785414  1.0000
  C   C22       1.0  0.44695672560230554  0.6236650508919297  0.6928115440911496  1.0000
  C   C23       1.0  0.6468496903788292  0.3177960786582474  0.25718604802872136  1.0000
  C   C24       1.0  0.3531508934215424  0.6822035493163554  0.742813121396601  1.0000
  C   C25       1.0  0.591760698255314  0.18899819171086557  0.2079612570909362  1.0000
  C   C26       1.0  0.40823880376443356  0.8110014362637372  0.7920378051495971  1.0000
  C   C27       1.0  0.44288374061022756  0.1178266210610488  0.20921479118098318  1.0000
  C   C28       1.0  0.5571162025865704  0.8821739358159206  0.7907845986955806  1.0000
  C   C29       1.0  0.3489234870938063  0.1766800173887333  0.25991166110988206  1.0000
  C   C30       1.0  0.6510770967065653  0.8233196105858624  0.7400882830227928  1.0000
  C   C31       1.0  0.4039035888031393  0.3056608981029143  0.3086741625834506  1.0000
  C   C32       1.0  0.5960959132166153  0.6943387298716885  0.6913256743644283  1.0000
  C   C33       1.0  0.24063186932485084  0.9270111242900114  0.07134652957031305  1.0000
  C   C34       1.0  0.7593676326948968  0.0729885036845914  0.9286525326702204  1.0000
  C   C35       1.0  0.2126988771348905  0.9762633857263977  0.9901413817945438  1.0000
  C   C36       1.0  0.7873025890195677  0.0237381000529382  0.009858442902853419  1.0000
  C   C37       1.0  0.0766781779993622  0.9114724454527732  0.9022545229631687  1.0000
  C   C38       1.0  0.9233213240203852  0.0885271825218226  0.09774531398471709  1.0000
  C   C39       1.0  0.9718261276889705  0.7994105924969334  0.8975997195007251  1.0000
  C   C40       1.0  0.028174456111400986  0.2005890354776696  0.10240099933930218  1.0000
  C   C41       1.0  0.0049897358914776525  0.7590079839349072  0.9834203686544638  1.0000
  C   C42       1.0  0.9950097661282699  0.24099164403969547  0.016579468293414796  1.0000
  C   C43       1.0  0.48227336990397857  0.9197517522722549  0.16061125824707997  1.0000
  C   C44       1.0  0.5177276550734433  0.0802488046047145  0.8393897882289849  1.0000
  C   C45       1.0  0.6083841982528071  0.962046534960983  0.2558174635684479  1.0000
  C   C46       1.0  0.39161530376694037  0.0379530930136198  0.7441815986720854  1.0000
  C   C47       1.0  0.7045969742452911  0.894982570589157  0.2518987194556742  1.0000
  C   C48       1.0  0.2954029689515068  0.1050179862878124  0.7481014451282489  1.0000
  C   C49       1.0  0.6709664708966584  0.7871332898790655  0.15633214295723255  1.0000
  C   C50       1.0  0.329033031123096  0.21286633809553732  0.8436684686980058  1.0000
  C   C51       1.0  0.540165009049808  0.7513640463361781  0.06827004733989378  1.0000
  C   C52       1.0  0.45983493414698273  0.2486365105407984  0.9317301172440297  1.0000
  I   I1        1.0  0.8811229922332516  0.5431189975289712  0.14250764569296587  1.0000
  I   I2        1.0  0.1188752285793484  0.4568824882503719  0.8574926321574166  1.0000
  I   I3        1.0  0.1793882867413004  0.9628286707561173  0.41072779915448615  1.0000
  I   I4        1.0  0.8206105746748733  0.0371718861208521  0.5892722582446481  1.0000
  N   N1        1.0  0.33449520230442426  0.6899013632525168  0.26303773067727576  1.0000
  N   N2        1.0  0.6655041002887927  0.3101001225268192  0.7369634290652483  1.0000
  N   N3        1.0  0.6121896902083533  0.5092577194530676  0.36057680927552826  1.0000
  N   N4        1.0  0.387809811811394  0.4907419085215352  0.6394230276723575  1.0000
  N   N5        1.0  0.018244367002509344  0.685526233092105  0.6354230336572753  1.0000
  N   N6        1.0  0.9817560173713319  0.314475252687231  0.3645782332700378  1.0000
  N   N7        1.0  0.1353668573732207  0.8222160745708821  0.06978780103484893  1.0000
  N   N8        1.0  0.8646341676041943  0.1777844823060875  0.9302132454412159  1.0000
  N   N9        1.0  0.3826895977092235  0.9857289008717486  0.15721371960569286  1.0000
  N   N10       1.0  0.6173103454875745  0.014271656005220698  0.8427856702708779  1.0000
  N   N11       1.0  0.4487332673569497  0.8167894269281817  0.06859568616001605  1.0000
  N   N12       1.0  0.5512662346627977  0.1832102010464212  0.9314041507878628  1.0000
