data_image0
_chemical_formula_structural       Cd4H44C48N8Cl4O16
_chemical_formula_sum              "Cd4 H44 C48 N8 Cl4 O16"
_cell_length_a       7.235682110274269
_cell_length_b       12.929901290019568
_cell_length_c       13.49218434112782
_cell_angle_alpha    90.00009080122213
_cell_angle_beta     90.00049518866699
_cell_angle_gamma    90.67351486176506

_space_group_name_H-M_alt    "P 1"
_space_group_IT_number       1

loop_
  _space_group_symop_operation_xyz
  'x, y, z'

loop_
  _atom_site_type_symbol
  _atom_site_label
  _atom_site_symmetry_multiplicity
  _atom_site_fract_x
  _atom_site_fract_y
  _atom_site_fract_z
  _atom_site_occupancy
  Cd  Cd1       1.0  0.8623415399292044  0.4130628869399331  0.05300710064164349  1.0000
  Cd  Cd2       1.0  0.6376603994107338  0.0869364227192335  0.5530061610662855  1.0000
  Cd  Cd3       1.0  0.1376599020218592  0.586939360995963  0.9469942119011276  1.0000
  Cd  Cd4       1.0  0.36233962784328355  0.9130635018519301  0.4469914456222098  1.0000
  H   H1        1.0  0.10510183308675643  0.8434156971737822  0.9328565194288172  1.0000
  H   H2        1.0  0.39489743843172675  0.6565848209010741  0.43286017953355577  1.0000
  H   H3        1.0  0.8948982267658392  0.15658654774594535  0.067144051940879  1.0000
  H   H4        1.0  0.6051011850368155  0.3434135537597811  0.5671403918297812  1.0000
  H   H5        1.0  0.16812546905891418  0.821096890480199  0.1124994919332849  1.0000
  H   H6        1.0  0.3318728641999229  0.6789054033490276  0.6125018282937232  1.0000
  H   H7        1.0  0.8318732195653522  0.17890612487330773  0.8875018206036243  1.0000
  H   H8        1.0  0.6681243988926653  0.32109451519363574  0.3874987430676241  1.0000
  H   H9        1.0  0.3202712030982653  0.9586654616432072  0.210168350608086  1.0000
  H   H10       1.0  0.1797300506056416  0.5413354570935311  0.710169761161957  1.0000
  H   H11       1.0  0.6797288567424926  0.0413367832752414  0.789830738421955  1.0000
  H   H12       1.0  0.8202685837152757  0.45866369101535287  0.28983006903217756  1.0000
  H   H13       1.0  0.4089566158453762  0.12807594825996924  0.1329787838863012  1.0000
  H   H14       1.0  0.09104483084316682  0.3719242423324829  0.6329802901861966  1.0000
  H   H15       1.0  0.5910475902671025  0.8719263057044272  0.8670195639836322  1.0000
  H   H16       1.0  0.9089524105328194  0.6280741293128432  0.36702028117390734  1.0000
  H   H17       1.0  0.19623788848767276  0.1773442943153114  0.6866714699779946  1.0000
  H   H18       1.0  0.3037589200434567  0.3226582973518576  0.18667273635033146  1.0000
  H   H19       1.0  0.8037607675439347  0.8226564006902708  0.31332761904755546  1.0000
  H   H20       1.0  0.6962369718089718  0.6773423916232987  0.8133270938385663  1.0000
  H   H21       1.0  0.2013375126140602  0.28134170854080054  0.7726435570115838  1.0000
  H   H22       1.0  0.2986592762013842  0.21866025523727475  0.27264389744916423  1.0000
  H   H23       1.0  0.7986611434293778  0.7186589864660605  0.22735701435362898  1.0000
  H   H24       1.0  0.7013365939226048  0.7813388868392649  0.7273544503988274  1.0000
  H   H25       1.0  0.4125536741751219  0.22812218031622677  0.7276816840920546  1.0000
  H   H26       1.0  0.08744239645162818  0.2718797057585078  0.22768111700202096  1.0000
  H   H27       1.0  0.587446363954946  0.7718785177055241  0.2723181461065636  1.0000
  H   H28       1.0  0.9125521241783902  0.7281217536510667  0.7723201955239176  1.0000
  H   H29       1.0  0.483342513119851  0.2576801030776608  0.019883212605556394  1.0000
  H   H30       1.0  0.0166557666872649  0.2423214359444614  0.5198826874815978  1.0000
  H   H31       1.0  0.5166602891893958  0.7423206009745088  0.9801158764297141  1.0000
  H   H32       1.0  0.9833345967831304  0.757679240967292  0.48011566035467  1.0000
  H   H33       1.0  0.5003567470615521  0.2907401185345222  0.8938625909522528  1.0000
  H   H34       1.0  0.9996396126388304  0.20926207640867037  0.3938616352214979  1.0000
  H   H35       1.0  0.49964195240325887  0.7092636702657272  0.10613649807579147  1.0000
  H   H36       1.0  0.00035488623907299936  0.7907378360997299  0.6061352302842093  1.0000
  H   H37       1.0  0.09648154671878469  0.9022443435621528  0.7774065488647464  1.0000
  H   H38       1.0  0.40352354520350536  0.5977566974090536  0.27741164072403984  1.0000
  H   H39       1.0  0.9035212664310066  0.09775713393676709  0.2225903166616519  1.0000
  H   H40       1.0  0.5964875062514994  0.4022409309441884  0.7225904130075091  1.0000
  H   H41       1.0  0.025089917712215  0.0161449084099061  0.7156892255278959  1.0000
  H   H42       1.0  0.4749114680578471  0.4838554221094498  0.21569450800593862  1.0000
  H   H43       1.0  0.9749156596285927  0.9838565751207113  0.2843083811748173  1.0000
  H   H44       1.0  0.5250912799717327  0.5161414147006552  0.7843060633658823  1.0000
  C   C1        1.0  0.2222397876913362  0.9995156349702942  0.9326501282537264  1.0000
  C   C2        1.0  0.2777622664139798  0.5004864356743113  0.4326515156105089  1.0000
  C   C3        1.0  0.7777643967045406  0.0004850720967652994  0.0673482196149564  1.0000
  C   C4        1.0  0.7222377391411853  0.4995119420014333  0.5673483145862406  1.0000
  C   C5        1.0  0.1704568736609033  0.9052613997178726  0.9751567650477  1.0000
  C   C6        1.0  0.3295430843796225  0.5947399649080652  0.47516002320948286  1.0000
  C   C7        1.0  0.8295431861916924  0.094740845201855  0.024843806322003597  1.0000
  C   C8        1.0  0.6704583032740173  0.4052584157838482  0.5248405481603413  1.0000
  C   C9        1.0  0.20616525149812054  0.8934912252360974  0.07596885838422907  1.0000
  C   C10       1.0  0.2938352407186571  0.6065094645948009  0.5759709044971046  1.0000
  C   C11       1.0  0.7938347866319546  0.1065094727856533  0.924030971814389  1.0000
  C   C12       1.0  0.7061634044605611  0.39349045696274476  0.42402892569765527  1.0000
  C   C13       1.0  0.29082821747223864  0.9726055613116104  0.1322609666879799  1.0000
  C   C14       1.0  0.20917178095613306  0.5273944493386155  0.6322632348272988  1.0000
  C   C15       1.0  0.7091732136027601  0.027395913173698695  0.8677381223446685  1.0000
  C   C16       1.0  0.790828224604958  0.4726039283377688  0.3677373365392781  1.0000
  C   C17       1.0  0.34043538079964003  0.06731928033386231  0.0902227122440138  1.0000
  C   C18       1.0  0.1595667867475399  0.4326823862806605  0.5902238924756986  1.0000
  C   C19       1.0  0.6595674323797454  0.932682197168255  0.9097778591315446  1.0000
  C   C20       1.0  0.8404304654867545  0.5673167588133339  0.40977667888502367  1.0000
  C   C21       1.0  0.3020099588088811  0.07958625309485971  0.989706339688041  1.0000
  C   C22       1.0  0.19799305050813124  0.4204153183913563  0.4897072615963437  1.0000
  C   C23       1.0  0.6979928326479907  0.9204136775092878  0.0102934905164389  1.0000
  C   C24       1.0  0.8020069659112536  0.5795838327336968  0.5102933097708657  1.0000
  C   C25       1.0  0.26950541647524057  0.1365684413524448  0.8341243835000325  1.0000
  C   C26       1.0  0.2304937364785999  0.36343363169213216  0.33412536958824995  1.0000
  C   C27       1.0  0.7304946325190541  0.8634330301186142  0.16587618786904554  1.0000
  C   C28       1.0  0.769506269076565  0.6365647459836054  0.6658744606084992  1.0000
  C   C29       1.0  0.26983484943967534  0.20959974262319755  0.750278862351493  1.0000
  C   C30       1.0  0.2301629642385805  0.29040218552047753  0.2502797339262131  1.0000
  C   C31       1.0  0.7301665707770298  0.790400958413443  0.2497202266805374  1.0000
  C   C32       1.0  0.7698329058913201  0.7095969565567019  0.7497193550916065  1.0000
  C   C33       1.0  0.4032021755605299  0.2639873376725604  0.9507997502644441  1.0000
  C   C34       1.0  0.09679469477885759  0.23601492796165505  0.45079991269443537  1.0000
  C   C35       1.0  0.5967978517112442  0.7360125869005216  0.0492000799335557  1.0000
  C   C36       1.0  0.9031970616542253  0.7639865254155823  0.5491999174853603  1.0000
  C   C37       1.0  0.2516342168698671  0.34451359244823726  0.9671170524081344  1.0000
  C   C38       1.0  0.2483642744647128  0.15548715750147582  0.4671148359123193  1.0000
  C   C39       1.0  0.7483741789475429  0.655491764356789  0.03288055430417809  1.0000
  C   C40       1.0  0.7516246525801975  0.8445096491469216  0.5328783237287666  1.0000
  C   C41       1.0  0.14364827304967054  0.9779719529858893  0.7507535096297601  1.0000
  C   C42       1.0  0.3563550110333082  0.5220290389067657  0.25075678096508364  1.0000
  C   C43       1.0  0.8563573043088937  0.022029530546653596  0.24924632058244353  1.0000
  C   C44       1.0  0.6436505229098088  0.4779693508330212  0.7492452727541234  1.0000
  C   C45       1.0  0.2908203247914471  0.9627796347158863  0.669616498896758  1.0000
  C   C46       1.0  0.20918172843063587  0.5372258576488491  0.16961984519272724  1.0000
  C   C47       1.0  0.709178276930892  0.03721719304442671  0.3303803666161754  1.0000
  C   C48       1.0  0.7908321957569626  0.46277951121829375  0.8303777615325458  1.0000
  N   N1        1.0  0.32939290740480226  0.1625408602856667  0.9257160882331161  1.0000
  N   N2        1.0  0.17060770855186994  0.3374613710462954  0.4257167534924448  1.0000
  N   N3        1.0  0.6706085019713512  0.8374590673042308  0.07428522430778628  1.0000
  N   N4        1.0  0.8293936899600637  0.6625377830942869  0.5742838178780046  1.0000
  N   N5        1.0  0.2062819585290399  0.0377151747693034  0.836043047594913  1.0000
  N   N6        1.0  0.29371721421713914  0.4622861281428072  0.33604448288240707  1.0000
  N   N7        1.0  0.7937194725518851  0.9622862997166453  0.1639567826075776  1.0000
  N   N8        1.0  0.7062855338183524  0.5377107086679446  0.6639568296592415  1.0000
  Cl  Cl1       1.0  0.6905543269171588  0.29960570420032445  0.16948737880134243  1.0000
  Cl  Cl2       1.0  0.8094425842617525  0.20039533858172837  0.6694903844593582  1.0000
  Cl  Cl3       1.0  0.30944154320683026  0.7003934378762153  0.8305109690466491  1.0000
  Cl  Cl4       1.0  0.19055466795478537  0.7996038065103478  0.33050796339186655  1.0000
  O   O1        1.0  0.10254026638776279  0.31190085131386525  0.0062648489199049  1.0000
  O   O2        1.0  0.397457785029097  0.18809989072404676  0.5062638010135528  1.0000
  O   O3        1.0  0.897454210832727  0.6880975143035996  0.9937394282828718  1.0000
  O   O4        1.0  0.6025353209571449  0.8118992453265507  0.49374047618660194  1.0000
  O   O5        1.0  0.294570987791765  0.4358304087384185  0.941749944976692  1.0000
  O   O6        1.0  0.20542433418086153  0.0641702913427338  0.4417496095124917  1.0000
  O   O7        1.0  0.7054234568479032  0.564165636532401  0.058253591054388196  1.0000
  O   O8        1.0  0.7945701864314073  0.9358311680649222  0.5582494795039565  1.0000
  O   O9        1.0  0.24579317361551734  0.8966648742431145  0.6043882088587579  1.0000
  O   O10       1.0  0.2542105584556539  0.6033374176309112  0.1043911272700839  1.0000
  O   O11       1.0  0.7542124688928593  0.10334124998143322  0.3956116213571903  1.0000
  O   O12       1.0  0.7457880107746461  0.3966570897923702  0.8956161146186259  1.0000
  O   O13       1.0  0.43445588631028187  0.0191177904672415  0.6726897369195228  1.0000
  O   O14       1.0  0.0655462380986194  0.4808855625456303  0.1726886493245487  1.0000
  O   O15       1.0  0.5655538482019865  0.9808844755624831  0.32731231681253087  1.0000
  O   O16       1.0  0.9344495886335975  0.5191104857407183  0.8273148867097643  1.0000
