data_image0
_chemical_formula_structural       Dy2Cu4H16C16N18O24
_chemical_formula_sum              "Dy2 Cu4 H16 C16 N18 O24"
_cell_length_a       7.276607704021325
_cell_length_b       11.172098611104584
_cell_length_c       11.790203226309396
_cell_angle_alpha    101.9571501707924
_cell_angle_beta     89.87741189467918
_cell_angle_gamma    90.07707843227404

_space_group_name_H-M_alt    "P 1"
_space_group_IT_number       1

loop_
  _space_group_symop_operation_xyz
  'x, y, z'

loop_
  _atom_site_type_symbol
  _atom_site_label
  _atom_site_symmetry_multiplicity
  _atom_site_fract_x
  _atom_site_fract_y
  _atom_site_fract_z
  _atom_site_occupancy
  Dy  Dy1       1.0  0.49584977670660635  0.2498711299476568  0.4998250337799917  1.0000
  Dy  Dy2       1.0  0.5042582386698414  0.7501639665124387  0.5001874387995571  1.0000
  Cu  Cu1       1.0  0.138947344759714  0.888572147799131  0.074437960417896  1.0000
  Cu  Cu2       1.0  0.13895368764681143  0.6115723030089626  0.9248867208183924  1.0000
  Cu  Cu3       1.0  0.8619608488486179  0.11146176993526068  0.9253667550505469  1.0000
  Cu  Cu4       1.0  0.8596143841766802  0.3882949398263094  0.07466836409560071  1.0000
  H   H1        1.0  0.7653281926674326  0.05109156860503819  0.422499538562036  1.0000
  H   H2        1.0  0.7645961753508387  0.44889202500914377  0.5774464678832345  1.0000
  H   H3        1.0  0.23509260111887903  0.9488714205289522  0.577793662682275  1.0000
  H   H4        1.0  0.23475766266199125  0.5512454992959447  0.4224547852656571  1.0000
  H   H5        1.0  0.6866129284370572  0.036723831018761595  0.5439095920363216  1.0000
  H   H6        1.0  0.6865747159678152  0.46338974462896937  0.4561834533766672  1.0000
  H   H7        1.0  0.31303584375188365  0.9631953484369048  0.4561722237726045  1.0000
  H   H8        1.0  0.31308300244437953  0.5368366536523438  0.5436734351573733  1.0000
  H   H9        1.0  0.6757927463267493  0.2844626055452437  0.2730357378112913  1.0000
  H   H10       1.0  0.6767683469803175  0.21584561496082696  0.7264689655142932  1.0000
  H   H11       1.0  0.3230282202222128  0.7157587449748561  0.7267146255888761  1.0000
  H   H12       1.0  0.32433555472615444  0.7847635471385529  0.27335258699787346  1.0000
  H   H13       1.0  0.725488750999297  0.1464577196318047  0.2778824682247674  1.0000
  H   H14       1.0  0.7244532842551764  0.3542650912679263  0.721676645092984  1.0000
  H   H15       1.0  0.2747970758668075  0.8540995932519239  0.7221332047735558  1.0000
  H   H16       1.0  0.27495057635111664  0.6467148939917563  0.2784094661252254  1.0000
  C   C1        1.0  0.284609537920538  0.040484271453770794  0.275532820518805  1.0000
  C   C2        1.0  0.28362816328777285  0.45932883617347636  0.7236491848234011  1.0000
  C   C3        1.0  0.7160732395190338  0.9595001493826985  0.7242633785007371  1.0000
  C   C4        1.0  0.7160662524719897  0.5407457297126186  0.2763548657561969  1.0000
  C   C5        1.0  0.18558691377034361  0.12327453343548457  0.21348530851982875  1.0000
  C   C6        1.0  0.183221626329356  0.3768346180821638  0.7856145730384584  1.0000
  C   C7        1.0  0.8148661690997585  0.8767881548751716  0.7864699394221475  1.0000
  C   C8        1.0  0.8168958652862274  0.6230573391112059  0.2143959123007946  1.0000
  C   C9        1.0  0.13896595506857073  0.24760160778710363  0.22645096811694293  1.0000
  C   C10       1.0  0.13668607035342012  0.25251918694728903  0.7728921283356912  1.0000
  C   C11       1.0  0.8612366894530581  0.7524408849874786  0.7736800476405108  1.0000
  C   C12       1.0  0.8637021828861365  0.7473294700296901  0.22707432985173873  1.0000
  C   C13       1.0  0.2048029885705702  0.358092802330347  0.3104219425790902  1.0000
  C   C14       1.0  0.2039164541927008  0.14184171819314165  0.6897147087245514  1.0000
  C   C15       1.0  0.7947215749094028  0.6419062825085644  0.6900142909289926  1.0000
  C   C16       1.0  0.7968233241040679  0.8580172344812592  0.31042586304427994  1.0000
  N   N1        1.0  0.0238172037116939  0.25530575211129747  0.13808497644316728  1.0000
  N   N2        1.0  0.0206339257834287  0.24505405496513075  0.8611650616011632  1.0000
  N   N3        1.0  0.9764061649277238  0.7448513998634424  0.8620505250570932  1.0000
  N   N4        1.0  0.9794934064130772  0.7546706994546991  0.13861615678109723  1.0000
  N   N5        1.0  0.0022102925138796  0.14359035326697267  0.0738490797951172  1.0000
  N   N6        1.0  0.998264085063049  0.35663065284287393  0.9252124966406257  1.0000
  N   N7        1.0  0.9981947111670381  0.8565525299735766  0.9261425027726417  1.0000
  N   N8        1.0  0.0013987919639077999  0.6431243939819709  0.07455926054174708  1.0000
  N   N9        1.0  0.0982264114827913  0.0639877054182989  0.1167069405871359  1.0000
  N   N10       1.0  0.0951767909519745  0.43640224123988236  0.8821557493483996  1.0000
  N   N11       1.0  0.9023175252816672  0.9361309213909619  0.8831929481530452  1.0000
  N   N12       1.0  0.9045161825421815  0.5633752455716632  0.11770975237519109  1.0000
  N   N13       1.0  0.30489932540719883  0.7508333103626084  0.9979803990373172  1.0000
  N   N14       1.0  0.6945844780413567  0.24847294485251578  0.0025695003108267807  1.0000
  N   N15       1.0  0.47119605712475027  0.7485053645267709  0.0006734290019138364  1.0000
  N   N16       1.0  0.5282169443217415  0.25071302891056035  0.999438237807766  1.0000
  N   N17       1.0  0.6304461317542049  0.746286950610873  0.002592259882483479  1.0000
  N   N18       1.0  0.36906490162047595  0.2524580706692277  0.9969672543115422  1.0000
  O   O1        1.0  0.3092642149016598  0.33725544999205676  0.3908164674117245  1.0000
  O   O2        1.0  0.3087274752249769  0.1623337745025637  0.609033352836029  1.0000
  O   O3        1.0  0.6904143613385401  0.6627417895664818  0.6095632918485734  1.0000
  O   O4        1.0  0.6916690166262285  0.8374957248384758  0.3909256952628083  1.0000
  O   O5        1.0  0.3507114047524311  0.07422681673580199  0.3754989091049268  1.0000
  O   O6        1.0  0.3504905432113077  0.4254658086104399  0.6237720321882989  1.0000
  O   O7        1.0  0.6496192461957692  0.9256383171987678  0.6244091160441485  1.0000
  O   O8        1.0  0.6495364433634097  0.5747507109489192  0.3763183520236595  1.0000
  O   O9        1.0  0.7149566623844308  0.09941805119721178  0.49754966745499024  1.0000
  O   O10       1.0  0.7151301878740953  0.4005512661283532  0.5022229783049924  1.0000
  O   O11       1.0  0.2849504095137974  0.9005242967048587  0.5025826313916184  1.0000
  O   O12       1.0  0.2846663712243399  0.5996473308748944  0.4975940654762497  1.0000
  O   O13       1.0  0.2902670179469027  0.9275246737848732  0.22039138120111093  1.0000
  O   O14       1.0  0.2898026341084972  0.5723664889984545  0.7787025100002082  1.0000
  O   O15       1.0  0.7111268018985584  0.07255845451982879  0.7791450873552606  1.0000
  O   O16       1.0  0.7091169421411364  0.42780370721600747  0.22121435906095852  1.0000
  O   O17       1.0  0.6362745180729164  0.21184199340493132  0.3023886872539805  1.0000
  O   O18       1.0  0.6359474620141868  0.2882844706323482  0.6974729775872461  1.0000
  O   O19       1.0  0.36343099060711376  0.7883498570936849  0.6976280395202039  1.0000
  O   O20       1.0  0.36437836940525875  0.712148683716542  0.3023801023018038  1.0000
  O   O21       1.0  0.1574309968583947  0.46305558803311436  0.29771570615206144  1.0000
  O   O22       1.0  0.15729805163147154  0.0369545088697123  0.7033295617098432  1.0000
  O   O23       1.0  0.8415282557622563  0.5369308427306407  0.7029973309400575  1.0000
  O   O24       1.0  0.8440926646435117  0.9628768823566035  0.2970660610037683  1.0000
