data_image0
_chemical_formula_structural       Ag6H60C54N18O12
_chemical_formula_sum              "Ag6 H60 C54 N18 O12"
_cell_length_a       11.46590342217311
_cell_length_b       11.465932377060463
_cell_length_c       11.465948986955894
_cell_angle_alpha    96.22355668154755
_cell_angle_beta     96.2234424118692
_cell_angle_gamma    96.2235205224445

_space_group_name_H-M_alt    "P 1"
_space_group_IT_number       1

loop_
  _space_group_symop_operation_xyz
  'x, y, z'

loop_
  _atom_site_type_symbol
  _atom_site_label
  _atom_site_symmetry_multiplicity
  _atom_site_fract_x
  _atom_site_fract_y
  _atom_site_fract_z
  _atom_site_occupancy
  Ag  Ag1       1.0  0.6756343515064671  0.4686253674499524  0.002266941627063106  1.0000
  Ag  Ag2       1.0  0.0022664972519735064  0.6756339463854245  0.4686241689487857  1.0000
  Ag  Ag3       1.0  0.46862579763095613  0.002267702045600099  0.6756325494098263  1.0000
  Ag  Ag4       1.0  0.32436567355043167  0.5313751639396429  0.9977328323703318  1.0000
  Ag  Ag5       1.0  0.9977334202855344  0.324365701600385  0.5313746250104215  1.0000
  Ag  Ag6       1.0  0.5313732412275128  0.9977319450488337  0.3243687652273407  1.0000
  H   H1        1.0  0.351663828089734  0.5394914300939249  0.2533678207019605  1.0000
  H   H2        1.0  0.25336908156852894  0.3516644605874645  0.5394905287312355  1.0000
  H   H3        1.0  0.5394907593241243  0.25336840135194894  0.35166192741920815  1.0000
  H   H4        1.0  0.6483389372054374  0.46050998406153093  0.7466314756126593  1.0000
  H   H5        1.0  0.7466328064697122  0.6483369540960666  0.4605086721272329  1.0000
  H   H6        1.0  0.4605109127272654  0.7466312455777172  0.6483370574522951  1.0000
  H   H7        1.0  0.9226079396145861  0.1425090207355879  0.8305348492203706  1.0000
  H   H8        1.0  0.8305360153905281  0.9226056618229065  0.14250787093927633  1.0000
  H   H9        1.0  0.1425099445720335  0.8305354316157076  0.92260733457654  1.0000
  H   H10       1.0  0.07739285423178902  0.8574906257758529  0.169465784284391  1.0000
  H   H11       1.0  0.16946291689662019  0.07739310281404237  0.8574907195702934  1.0000
  H   H12       1.0  0.8574900795367951  0.16946509882758679  0.07739418351026466  1.0000
  H   H13       1.0  0.9947580964825989  0.3269018089234094  0.964373498296794  1.0000
  H   H14       1.0  0.964375148943084  0.9947577694480357  0.3269006180156423  1.0000
  H   H15       1.0  0.3269046009712324  0.9643760856599637  0.9947559290038015  1.0000
  H   H16       1.0  0.005241820580877682  0.6730978385892497  0.03562616770711459  1.0000
  H   H17       1.0  0.03562400027898599  0.005242763889071999  0.6730964443914828  1.0000
  H   H18       1.0  0.6730953156182051  0.035623561379551895  0.005244609044808585  1.0000
  H   H19       1.0  0.8926091313317243  0.4267975974703333  0.008035356981210393  1.0000
  H   H20       1.0  0.008038520487069397  0.8926077937798806  0.42679468514717905  1.0000
  H   H21       1.0  0.42680054050313737  0.008036154560102197  0.8926043800143403  1.0000
  H   H22       1.0  0.10739166393675957  0.5732020504605514  0.9919626603894399  1.0000
  H   H23       1.0  0.991960844721859  0.10739450731109199  0.5732025932469111  1.0000
  H   H24       1.0  0.573199268092871  0.9919626086024779  0.10739605004079071  1.0000
  H   H25       1.0  0.9385599663526275  0.42121601125291613  0.8642888439224521  1.0000
  H   H26       1.0  0.8642906390912798  0.9385556693589123  0.42121498358027754  1.0000
  H   H27       1.0  0.42121705265201104  0.8642890197847136  0.9385564460694339  1.0000
  H   H28       1.0  0.06144181321814558  0.5787845190805355  0.1357111209872386  1.0000
  H   H29       1.0  0.1357084016633294  0.06144397962811607  0.5787828428780699  1.0000
  H   H30       1.0  0.5787828634633881  0.1357106267816448  0.061444964023884587  1.0000
  H   H31       1.0  0.6764113107156644  0.9032209336014246  0.7372266287374669  1.0000
  H   H32       1.0  0.7372251990245713  0.6764098720188014  0.9032215396777018  1.0000
  H   H33       1.0  0.9032210067258644  0.7372263233462489  0.6764116279033985  1.0000
  H   H34       1.0  0.32358860587377336  0.09677871343808415  0.26277390931115  1.0000
  H   H35       1.0  0.2627729635250302  0.3235897765500083  0.09677793541390395  1.0000
  H   H36       1.0  0.0967782481194561  0.2627750915020499  0.3235899027207338  1.0000
  H   H37       1.0  0.8335228520197758  0.940719025560057  0.7479381926018148  1.0000
  H   H38       1.0  0.7479362661082404  0.8335207396173345  0.9407185246395144  1.0000
  H   H39       1.0  0.9407176717096986  0.7479363453050635  0.8335221385123147  1.0000
  H   H40       1.0  0.16647717208905277  0.05928150488323778  0.2520633254849897  1.0000
  H   H41       1.0  0.2520626657048695  0.16647802454647118  0.059280937914763895  1.0000
  H   H42       1.0  0.059280489891833085  0.25206330231744534  0.16647908066870798  1.0000
  H   H43       1.0  0.7395132961088606  0.9699486630723939  0.6230675638636781  1.0000
  H   H44       1.0  0.6230657999436814  0.7395094923025951  0.969949444934187  1.0000
  H   H45       1.0  0.9699485384636402  0.6230666694876276  0.7395110852836665  1.0000
  H   H46       1.0  0.260487605730944  0.030051867315975797  0.37693317763456946  1.0000
  H   H47       1.0  0.3769331318694284  0.2604892718612035  0.030050017620091293  1.0000
  H   H48       1.0  0.030049731605345194  0.376933862484961  0.26048936984612675  1.0000
  H   H49       1.0  0.4980920649947008  0.3536803408417056  0.8428335831375405  1.0000
  H   H50       1.0  0.8428336830290772  0.49809288149619846  0.35368114536810674  1.0000
  H   H51       1.0  0.3536822078565862  0.8428353366132195  0.49809281666517785  1.0000
  H   H52       1.0  0.5019088368451037  0.6463201895466638  0.15716715836070694  1.0000
  H   H53       1.0  0.15716546477089108  0.501907650421465  0.6463185331731296  1.0000
  H   H54       1.0  0.646317815778211  0.15716519335692417  0.5019095734663352  1.0000
  H   H55       1.0  0.44062907617356467  0.21993442341390324  0.7574604232390313  1.0000
  H   H56       1.0  0.7574601493186319  0.4406284556260827  0.21993400492873144  1.0000
  H   H57       1.0  0.21993491585351413  0.7574604399848108  0.4406287456342993  1.0000
  H   H58       1.0  0.5593717176728105  0.7800652230975369  0.2425402102657371  1.0000
  H   H59       1.0  0.24253976774483726  0.5593711918865766  0.7800656610751772  1.0000
  H   H60       1.0  0.7800650007359237  0.24253920705469767  0.5593717924143107  1.0000
  C   C1        1.0  0.366149223331405  0.4706508218031614  0.3097219040916314  1.0000
  C   C2        1.0  0.309722856934762  0.3661492952195287  0.4706496360847296  1.0000
  C   C3        1.0  0.4706505190244881  0.3097224834785165  0.3661477098384792  1.0000
  C   C4        1.0  0.633854310753243  0.5293497074741466  0.6902782517303618  1.0000
  C   C5        1.0  0.690279031103472  0.6338521194640023  0.5293495647737386  1.0000
  C   C6        1.0  0.5293521373291838  0.6902780458537093  0.6338532225720712  1.0000
  C   C7        1.0  0.8335080852678017  0.16662288538186223  0.8312057737748261  1.0000
  C   C8        1.0  0.8312054403815167  0.8335059249453775  0.16662308804810508  1.0000
  C   C9        1.0  0.16662443139306046  0.8312071856938984  0.8335072099238658  1.0000
  C   C10       1.0  0.1664926001111127  0.833375876779499  0.1687956237811647  1.0000
  C   C11       1.0  0.16879184538518638  0.16649372462464376  0.833375419542655  1.0000
  C   C12       1.0  0.8333747149847921  0.168793344804314  0.16649508475149588  1.0000
  C   C13       1.0  0.9163211034355495  0.36760828611804885  0.9347639330187077  1.0000
  C   C14       1.0  0.9347660854058188  0.9163193601881262  0.3676093521385012  1.0000
  C   C15       1.0  0.3676094641874812  0.9347668506866352  0.9163202931399039  1.0000
  C   C16       1.0  0.083677936845028  0.632391362395836  0.06523476548434809  1.0000
  C   C17       1.0  0.06523196867632208  0.08367940403059748  0.6323908870043339  1.0000
  C   C18       1.0  0.6323903439344959  0.06523191200279402  0.0836810089599354  1.0000
  C   C19       1.0  0.7476084758728233  0.968779832704861  0.7195381673184043  1.0000
  C   C20       1.0  0.7195364704964149  0.747606412904254  0.9687799563116926  1.0000
  C   C21       1.0  0.9687783392627692  0.719535847038131  0.7476073257725344  1.0000
  C   C22       1.0  0.25239144024258303  0.0312198138614974  0.28046324277492113  1.0000
  C   C23       1.0  0.2804616925272255  0.2523932361376993  0.03121864673521199  1.0000
  C   C24       1.0  0.031218067824887886  0.280463801640522  0.2523937024961852  1.0000
  C   C25       1.0  0.5327936674890735  0.41297801893119856  0.1970628883339315  1.0000
  C   C26       1.0  0.1970630521318881  0.532794224207244  0.41298028882039256  1.0000
  C   C27       1.0  0.4129809252915493  0.19706102988344298  0.5327924701500706  1.0000
  C   C28       1.0  0.4672068028510593  0.5870189764225981  0.8029365491456841  1.0000
  C   C29       1.0  0.8029369729250107  0.46720630718234446  0.5870194851770023  1.0000
  C   C30       1.0  0.5870190997653565  0.8029395015061451  0.46720730384732423  1.0000
  C   C31       1.0  0.6128949910418695  0.23075998955876995  0.8274972764087138  1.0000
  C   C32       1.0  0.8274987859470002  0.6128944705192793  0.23075925227458066  1.0000
  C   C33       1.0  0.2307593923765693  0.8274989124735651  0.6128944255750994  1.0000
  C   C34       1.0  0.38710492602160673  0.7692396579538888  0.17250238959519482  1.0000
  C   C35       1.0  0.17250123910989854  0.38710606087031596  0.7692405217228072  1.0000
  C   C36       1.0  0.7692388772183916  0.17250161902587277  0.3871069015994025  1.0000
  C   C37       1.0  0.45501623109022643  0.3982178128849581  0.2930407699938725  1.0000
  C   C38       1.0  0.2930431971378411  0.45501698724535095  0.3982177238584653  1.0000
  C   C39       1.0  0.3982184327478108  0.29304319945812546  0.4550164774207913  1.0000
  C   C40       1.0  0.5449846712236166  0.6017827179765617  0.7069590994596666  1.0000
  C   C41       1.0  0.7069595676832989  0.5449844264369617  0.6017824445008627  1.0000
  C   C42       1.0  0.6017843315992905  0.7069582137510365  0.5449845629832382  1.0000
  C   C43       1.0  0.8148360681062456  0.27755543596301646  0.8838528116022816  1.0000
  C   C44       1.0  0.8838564726792839  0.8148346771310739  0.2775567695585934  1.0000
  C   C45       1.0  0.27755800303773975  0.883853759905243  0.8148337980168208  1.0000
  C   C46       1.0  0.18516472668819964  0.7224442114947177  0.11614607781307024  1.0000
  C   C47       1.0  0.1161454148849188  0.1851667370793066  0.7224433033445762  1.0000
  C   C48       1.0  0.7224409278273  0.11614500331226199  0.18516740862686726  1.0000
  C   C49       1.0  0.7355956952131916  0.08886462338605126  0.7783557433632139  1.0000
  C   C50       1.0  0.7783569287516839  0.7355940290436677  0.08886428106457338  1.0000
  C   C51       1.0  0.08886509000551254  0.7783574897508028  0.7355954431939223  1.0000
  C   C52       1.0  0.2644052061525741  0.9111359065291679  0.22164587017973494  1.0000
  C   C53       1.0  0.22164288079240171  0.2644047350652058  0.9111344049011476  1.0000
  C   C54       1.0  0.9111340563723401  0.2216430407474164  0.2644068514814393  1.0000
  N   N1        1.0  0.704904646196752  0.3077039716136837  0.8864736717306982  1.0000
  N   N2        1.0  0.8864748735926256  0.7049037052978021  0.3077026624149822  1.0000
  N   N3        1.0  0.30770442315952096  0.8864756824950745  0.7049037097248316  1.0000
  N   N4        1.0  0.29509625659112254  0.6922965597209866  0.11352532567813968  1.0000
  N   N5        1.0  0.11352515193831178  0.29509682656493647  0.6922962395377041  1.0000
  N   N6        1.0  0.6922946152249095  0.11352396412621597  0.2950984769570439  1.0000
  N   N7        1.0  0.5042860137555678  0.26458332049999456  0.8222241979920567  1.0000
  N   N8        1.0  0.8222236919045683  0.5042855908633256  0.26458267657741885  1.0000
  N   N9        1.0  0.2645821376630905  0.8222249377486434  0.5042858372589407  1.0000
  N   N10       1.0  0.495713133570355  0.7354172109445187  0.17777635259388797  1.0000
  N   N11       1.0  0.17777545589539295  0.4957149410543378  0.7354170019638244  1.0000
  N   N12       1.0  0.7354169007213397  0.17777470887264704  0.49571634942293485  1.0000
  N   N13       1.0  0.6258666131831774  0.12079179910032418  0.7758085213101393  1.0000
  N   N14       1.0  0.7758088377706541  0.6258664452273379  0.12079233290050685  1.0000
  N   N15       1.0  0.12079221864446049  0.775809621814993  0.6258676107064572  1.0000
  N   N16       1.0  0.37413330340626055  0.8792078479391846  0.22419201673847766  1.0000
  N   N17       1.0  0.22419020203588497  0.3741332028133968  0.8792072376472575  1.0000
  N   N18       1.0  0.879205942957064  0.22419002580751618  0.37413360847455823  1.0000
  O   O1        1.0  0.5143250160923358  0.4931587205971012  0.1296390085362233  1.0000
  O   O2        1.0  0.12963928852911266  0.5143250836438042  0.4931570445742182  1.0000
  O   O3        1.0  0.49315518874031733  0.12963976911557043  0.5143247207214543  1.0000
  O   O4        1.0  0.4856749023932493  0.506840928335009  0.8703580413335672  1.0000
  O   O5        1.0  0.8703616147328005  0.4856754481640166  0.5068410807899113  1.0000
  O   O6        1.0  0.5068447273750891  0.8703598774507949  0.48567668937187136  1.0000
  O   O7        1.0  0.6129519063935901  0.3459362863616561  0.18621019282227985  1.0000
  O   O8        1.0  0.18621606139214456  0.6129546684515715  0.34593923628460027  1.0000
  O   O9        1.0  0.3459375084614179  0.18621790895396367  0.6129539742907537  1.0000
  O   O10       1.0  0.38704779705321357  0.6540615957628829  0.8137848969711426  1.0000
  O   O11       1.0  0.8137857186526675  0.38704586235503047  0.654059856580389  1.0000
  O   O12       1.0  0.6540625165954878  0.8137826224356246  0.38704579970663383  1.0000
