data_image0
_chemical_formula_structural       Al4H27C46N3O20
_chemical_formula_sum              "Al4 H27 C46 N3 O20"
_cell_length_a       6.649154300147071
_cell_length_b       16.27905289183434
_cell_length_c       17.020994279878735
_cell_angle_alpha    79.14447782731045
_cell_angle_beta     89.23549242962783
_cell_angle_gamma    89.91829723622996

_space_group_name_H-M_alt    "P 1"
_space_group_IT_number       1

loop_
  _space_group_symop_operation_xyz
  'x, y, z'

loop_
  _atom_site_type_symbol
  _atom_site_label
  _atom_site_symmetry_multiplicity
  _atom_site_fract_x
  _atom_site_fract_y
  _atom_site_fract_z
  _atom_site_occupancy
  Al  Al1       1.0  0.1014891106233335  0.4994145498678364  0.5050224098169522  1.0000
  Al  Al2       1.0  0.6005299599504923  0.4969628374820374  0.5015438590482475  1.0000
  Al  Al3       1.0  0.6352986219868909  0.99734863386022  0.00031305877420345884  1.0000
  Al  Al4       1.0  0.1369324908868137  0.0005817655570866001  0.0067045828326400035  1.0000
  H   H1        1.0  0.5742222108527315  0.7279899925865008  0.3472591730041118  1.0000
  H   H2        1.0  0.1633117468358591  0.7771110919034497  0.1637442762728085  1.0000
  H   H3        1.0  0.16261827253257619  0.6555899354959678  0.27859376316308737  1.0000
  H   H4        1.0  0.10256082914581552  0.7026636709264906  0.6284365643192873  1.0000
  H   H5        1.0  0.5339289380289288  0.5902465566085906  0.7078186100138029  1.0000
  H   H6        1.0  0.6303343531918201  0.8008307021095432  0.8684154174611721  1.0000
  H   H7        1.0  0.6326772828625522  0.3051379478318097  0.3585853370829143  1.0000
  H   H8        1.0  0.0329904575508451  0.39938303268671405  0.3104606014886926  1.0000
  H   H9        1.0  0.7647909667538073  0.19343031771050792  0.29050265415142473  1.0000
  H   H10       1.0  0.9900929628384887  0.30863721053033544  0.20928270588134276  1.0000
  H   H11       1.0  0.718933029155785  0.1004857329696804  0.19113611917047996  1.0000
  H   H12       1.0  0.12027290051683082  0.194754363483419  0.1424528143925414  1.0000
  H   H13       1.0  0.04881594396836421  0.27679303501511743  0.6749798876263216  1.0000
  H   H14       1.0  0.070849530456556  0.15573485190242312  0.7902513735881346  1.0000
  H   H15       1.0  0.6777572026470863  0.22534769022654189  0.8325384604034982  1.0000
  H   H16       1.0  0.658797098234743  0.3441743266975196  0.7150625938893854  1.0000
  H   H17       1.0  0.2874953367131782  0.0037653801181889005  0.2654801964547815  1.0000
  H   H18       1.0  0.3188103170321029  0.991517151456705  0.3704390914527877  1.0000
  H   H19       1.0  0.1938203835574654  0.9129792566069952  0.32945480569049584  1.0000
  H   H20       1.0  0.545570080984426  0.868383989129434  0.36922573023637995  1.0000
  H   H21       1.0  0.6447993404777606  0.9584226720025697  0.30732995495596077  1.0000
  H   H22       1.0  0.5203480830919887  0.9128821346063491  0.1857295408094544  1.0000
  H   H23       1.0  0.38635349884155806  0.8300306086384456  0.2444244246575167  1.0000
  H   H24       1.0  0.35371840926837456  0.604209515061619  0.46156046232644626  1.0000
  H   H25       1.0  0.8593698180707463  0.3970547190623677  0.4840733547797955  1.0000
  H   H26       1.0  0.3758553917594726  0.9027234722196269  0.9738490815655046  1.0000
  H   H27       1.0  0.8862411108794177  0.1040881219846099  0.9618259793444467  1.0000
  C   C1        1.0  0.3533049071472901  0.4091219559001972  0.40314011739518224  1.0000
  C   C2        1.0  0.34394236107220166  0.3872770140986432  0.6187152898913909  1.0000
  C   C3        1.0  0.8373987251675529  0.58528612202646  0.6031856394352462  1.0000
  C   C4        1.0  0.8614375665412483  0.6132284271410454  0.38870980852833276  1.0000
  C   C5        1.0  0.7035207067791944  0.7394253956974383  0.3065714446631064  1.0000
  C   C6        1.0  0.7023293727937557  0.8093943494070146  0.24440291132865616  1.0000
  C   C7        1.0  0.8715082788803628  0.82126853012646  0.19215529331829365  1.0000
  C   C8        1.0  0.0357813682574886  0.7659642844285346  0.20527430866522417  1.0000
  C   C9        1.0  0.03527814383801339  0.6983496612870255  0.26858219412260814  1.0000
  C   C10       1.0  0.8660056663377772  0.6844335334223717  0.31949344827955173  1.0000
  C   C11       1.0  0.822713321836794  0.6411112844035782  0.6636018123805487  1.0000
  C   C12       1.0  0.9092722134234775  0.862580681647927  0.8349792843991255  1.0000
  C   C13       1.0  0.0972257600086621  0.81854795531693  0.7256179674483934  1.0000
  C   C14       1.0  0.07967117319410019  0.8704320223918458  0.7823845733916529  1.0000
  C   C15       1.0  0.7615179358467331  0.804757213017325  0.8287559161353216  1.0000
  C   C16       1.0  0.7791113204633364  0.7498255777469894  0.7740631022495778  1.0000
  C   C17       1.0  0.9501178648355407  0.7556575026946388  0.7214717267877193  1.0000
  C   C18       1.0  0.9707511306332963  0.6996089070214424  0.6677214212969533  1.0000
  C   C19       1.0  0.6503073341113605  0.6356114158651208  0.7137491588778178  1.0000
  C   C20       1.0  0.6300229441532891  0.6876731872063715  0.7690293471165008  1.0000
  C   C21       1.0  0.33614687300654106  0.35668234894498607  0.34061364590377974  1.0000
  C   C22       1.0  0.4157793789235101  0.14283422135846988  0.16163037891818285  1.0000
  C   C23       1.0  0.6251088405708886  0.1945700245105257  0.2573371680752531  1.0000
  C   C24       1.0  0.6001118703825554  0.14278822130786756  0.20308942360028945  1.0000
  C   C25       1.0  0.2608698936102344  0.19573357663492164  0.17459827330646505  1.0000
  C   C26       1.0  0.28427555126278037  0.25113445077783336  0.22870613897321596  1.0000
  C   C27       1.0  0.4698351243449467  0.2503938995465944  0.27130103844628917  1.0000
  C   C28       1.0  0.4923105718253921  0.30506262735296724  0.3261331875807657  1.0000
  C   C29       1.0  0.15274453554293638  0.35747177750132414  0.29841773289365403  1.0000
  C   C30       1.0  0.12914444968348704  0.3069317639436875  0.24290904417528483  1.0000
  C   C31       1.0  0.18526024902558197  0.2651396943900508  0.7101565259401712  1.0000
  C   C32       1.0  0.19741319932364118  0.19828001109581092  0.774134813869708  1.0000
  C   C33       1.0  0.3749045245125515  0.18407076456480098  0.8184074637491892  1.0000
  C   C34       1.0  0.541305811231574  0.2367195833155691  0.797398484489783  1.0000
  C   C35       1.0  0.530488747779664  0.3029034855575929  0.7326686111631775  1.0000
  C   C36       1.0  0.35214325099723714  0.3175311621184775  0.6891081849465481  1.0000
  C   C37       1.0  0.38214988419309753  0.1139896920099872  0.8887090897358124  1.0000
  C   C38       1.0  0.39545561875719665  0.086129228504312  0.10298965238996526  1.0000
  C   C39       1.0  0.8835898232586102  0.8885784760816196  0.11914373432978206  1.0000
  C   C40       1.0  0.8918648517708404  0.9128223357648227  0.90022414537971  1.0000
  C   C41       1.0  0.5246395813591248  0.867663739619971  0.24196533119175004  1.0000
  C   C42       1.0  0.5192217037732406  0.9134300435234336  0.3133800332753084  1.0000
  C   C43       1.0  0.31916498442638636  0.9580176980376792  0.3200776864817669  1.0000
  C   C44       1.0  0.2663135538281908  0.8263643804486236  0.6724651117815554  1.0000
  C   C45       1.0  0.45652261865754445  0.6814671689950202  0.8198995033168047  1.0000
  C   C46       1.0  0.23354970683513443  0.931141437134457  0.783592126008529  1.0000
  N   N1        1.0  0.4050904386574743  0.8299357394978627  0.6290920121885792  1.0000
  N   N2        1.0  0.31339523117101453  0.6784021595793136  0.8609894714236648  1.0000
  N   N3        1.0  0.36415819920547676  0.9798364040504878  0.7788053176818084  1.0000
  O   O1        1.0  0.5110553477795533  0.4090908662692741  0.5838481845284493  1.0000
  O   O2        1.0  0.18727564987160858  0.4256904749353581  0.4351397031667191  1.0000
  O   O3        1.0  0.0307767832822918  0.581739307931997  0.4124886826496735  1.0000
  O   O4        1.0  0.17320845806699484  0.4190550217311966  0.5976710826492351  1.0000
  O   O5        1.0  0.009975513046434502  0.5737018928441984  0.5741320466226867  1.0000
  O   O6        1.0  0.52751968706864  0.43229389906196036  0.42101196026364823  1.0000
  O   O7        1.0  0.35250935847015086  0.5502384402486841  0.4973004229157426  1.0000
  O   O8        1.0  0.6718582293111767  0.5555886693761068  0.5851634475605679  1.0000
  O   O9        1.0  0.6904388316610337  0.5898825900118965  0.42026692657277215  1.0000
  O   O10       1.0  0.8521578652021092  0.44776280193488577  0.5060310847142091  1.0000
  O   O11       1.0  0.22202040919035676  0.07344728728471489  0.07650112353917393  1.0000
  O   O12       1.0  0.55335940112289  0.09067972215297711  0.9179856493380998  1.0000
  O   O13       1.0  0.7161757656180897  0.9339864304444632  0.9187035573746558  1.0000
  O   O14       1.0  0.5588145742310502  0.05437144778985469  0.08300244644537003  1.0000
  O   O15       1.0  0.7224260882885291  0.9070639658859817  0.08045160354242135  1.0000
  O   O16       1.0  0.2125708143772513  0.0839189988995841  0.9156362047487651  1.0000
  O   O17       1.0  0.38414912507149523  0.9473188388778199  0.004276905852016449  1.0000
  O   O18       1.0  0.0559340411762292  0.9203838921999576  0.09840158769087279  1.0000
  O   O19       1.0  0.05622271789909661  0.927070190193632  0.9324096347973169  1.0000
  O   O20       1.0  0.8845272908588414  0.049629178690175  0.9967229576840784  1.0000
