data_image0
_chemical_formula_structural       Ag4H60C52N8Cl4O16
_chemical_formula_sum              "Ag4 H60 C52 N8 Cl4 O16"
_cell_length_a       5.651183876
_cell_length_b       15.675011995842974
_cell_length_c       16.1137
_cell_angle_alpha    90.0
_cell_angle_beta     90.0
_cell_angle_gamma    95.14084749783945

_space_group_name_H-M_alt    "P 1"
_space_group_IT_number       1

loop_
  _space_group_symop_operation_xyz
  'x, y, z'

loop_
  _atom_site_type_symbol
  _atom_site_label
  _atom_site_symmetry_multiplicity
  _atom_site_fract_x
  _atom_site_fract_y
  _atom_site_fract_z
  _atom_site_occupancy
  Ag  Ag1       1.0  0.4248838544551177  0.22657567593756053  0.6318604665595089  1.0000
  Ag  Ag2       1.0  0.5751111781846062  0.2734250196830529  0.1318567430199167  1.0000
  Ag  Ag3       1.0  0.5751080294431219  0.7734231531651259  0.3681500834693452  1.0000
  Ag  Ag4       1.0  0.4249045057379206  0.726577012092811  0.8681389128505543  1.0000
  H   H1        1.0  0.8281017908611403  0.4335663648724547  0.49899774725854235  1.0000
  H   H2        1.0  0.1718786262078211  0.0664253632632708  0.9989965060786758  1.0000
  H   H3        1.0  0.1719211304232502  0.5664363074380461  0.500997288021992  1.0000
  H   H4        1.0  0.8281049242876577  0.9335612956813504  0.0010003909716545  1.0000
  H   H5        1.0  0.5017286044751472  0.4633589118199949  0.4012107709588761  1.0000
  H   H6        1.0  0.49827189598571664  0.03664242433524829  0.9012157356783348  1.0000
  H   H7        1.0  0.49829658229886326  0.5366386362134179  0.5987879878612574  1.0000
  H   H8        1.0  0.5017362321769808  0.9633576858367048  0.0987886084511942  1.0000
  H   H9        1.0  0.17973469492333294  0.3026833607449291  0.2727039723961582  1.0000
  H   H10       1.0  0.8202307147690817  0.19732630236057955  0.7726996282666292  1.0000
  H   H11       1.0  0.8202729372904685  0.6973218737041122  0.7272966481937715  1.0000
  H   H12       1.0  0.17975407261430829  0.8026795726230984  0.2272985099635747  1.0000
  H   H13       1.0  0.21297551525141495  0.4136085867121578  0.300568460378436  1.0000
  H   H14       1.0  0.7870334961631471  0.08639851425480317  0.8005622544791109  1.0000
  H   H15       1.0  0.7870366112377027  0.5864004909446905  0.6994321602114937  1.0000
  H   H16       1.0  0.21298121421354915  0.9136067201942308  0.199431539621564  1.0000
  H   H17       1.0  0.7147856243422767  0.4481756788297061  0.2344266059315956  1.0000
  H   H18       1.0  0.2852087715015372  0.051822454652374  0.7344253647517363  1.0000
  H   H19       1.0  0.2852450302528808  0.5518225097383505  0.7655684293489387  1.0000
  H   H20       1.0  0.7147835899936368  0.9481782960542233  0.2655752558382005  1.0000
  H   H21       1.0  0.47313150912356156  0.5112978049797832  0.2197353804526614  1.0000
  H   H22       1.0  0.5268708864100801  0.9887042818820573  0.7197378628123872  1.0000
  H   H23       1.0  0.5268925449056425  0.4887023051921701  0.7802646195473386  1.0000
  H   H24       1.0  0.47311696245782303  0.011299671497710096  0.2802646195473386  1.0000
  H   H25       1.0  0.7561275918058001  0.42945157037659937  0.0830243829784578  1.0000
  H   H26       1.0  0.2438581338853254  0.07054015775911887  0.5830237623885282  1.0000
  H   H27       1.0  0.24387651967851548  0.57054661819145  0.9169712728920132  1.0000
  H   H28       1.0  0.756131502875249  0.929456749739664  0.4169787199712047  1.0000
  H   H29       1.0  0.7775421210543527  0.5389439203651278  0.1109223828171082  1.0000
  H   H30       1.0  0.2224688221369036  0.9610498395464546  0.6109236239969746  1.0000
  H   H31       1.0  0.22246085768515664  0.4610568303414623  0.8890720318734964  1.0000
  H   H32       1.0  0.7775352893474119  0.038948349021595184  0.3890800995426247  1.0000
  H   H33       1.0  0.366655681991034  0.5509443367536304  0.0630984814164322  1.0000
  H   H34       1.0  0.6333465543436247  0.9490571095735729  0.5630991020063689  1.0000
  H   H35       1.0  0.6333437576670278  0.4490564139529596  0.9368984156338982  1.0000
  H   H36       1.0  0.3666493462329896  0.05094364113301709  0.4369046215332304  1.0000
  H   H37       1.0  0.10649278430528138  0.4265070326590673  0.0149140172648146  1.0000
  H   H38       1.0  0.8935135207266498  0.073489179219095  0.5149177408044068  1.0000
  H   H39       1.0  0.8935092392403519  0.5734898748397086  0.9850872239150519  1.0000
  H   H40       1.0  0.10649750972158499  0.9265083688143176  0.4850878445049887  1.0000
  H   H41       1.0  0.3401263209066769  0.3593296817342021  0.0229792040313512  1.0000
  H   H42       1.0  0.6598823904618882  0.14066909228250774  0.5229729981320261  1.0000
  H   H43       1.0  0.659874410695174  0.6406691473684842  0.977022657738445  1.0000
  H   H44       1.0  0.34012589689979217  0.8593316584240822  0.4770263812780442  1.0000
  H   H45       1.0  0.10774169580640346  0.450000562005087  0.1667190030843315  1.0000
  H   H46       1.0  0.8922575127106782  0.050002695754066885  0.6667221060339941  1.0000
  H   H47       1.0  0.8922815438759457  0.5500033913746802  0.8332809969156685  1.0000
  H   H48       1.0  0.10773709592215397  0.9499999765564338  0.3332828586854646  1.0000
  H   H49       1.0  0.06505740421398798  0.3383015701986593  0.142478760309551  1.0000
  H   H50       1.0  0.934930054313952  0.16170424969903505  0.6424800014894174  1.0000
  H   H51       1.0  0.9349429906379498  0.661703023715738  0.8575249632300483  1.0000
  H   H52       1.0  0.06506310317611505  0.8382997036807323  0.3575249632300483  1.0000
  H   H53       1.0  0.8813715789781823  0.18941505908252043  0.3781062077610997  1.0000
  H   H54       1.0  0.1186007863820606  0.3105798717263823  0.8781086901208255  1.0000
  H   H55       1.0  0.1186105020225696  0.8105799268123588  0.6218968951885628  1.0000
  H   H56       1.0  0.8813944957505983  0.689411270960683  0.12189068928923771  1.0000
  H   H57       1.0  0.5388555665558243  0.21498840438869135  0.2890453465063914  1.0000
  H   H58       1.0  0.4611560287463163  0.2850148533704626  0.789054655355379  1.0000
  H   H59       1.0  0.4611335742558609  0.7850136273871726  0.7109577564432783  1.0000
  H   H60       1.0  0.5388714051653594  0.7149846162668609  0.2109527917238125  1.0000
  C   C1        1.0  0.0670000180469899  0.2929760583500638  0.4958327386013153  1.0000
  C   C2        1.0  0.9329742760529598  0.20701951299346885  0.995829015061716  1.0000
  C   C3        1.0  0.932993157795039  0.7070208491487193  0.5041666408087551  1.0000
  C   C4        1.0  0.06701086643230514  0.7929735512974998  0.0041647790389518  1.0000
  C   C5        1.0  0.8750783424311378  0.3102621665473748  0.4438179933845134  1.0000
  C   C6        1.0  0.1249012786429304  0.1897263589151734  0.9438173727945767  1.0000
  C   C7        1.0  0.12491065753352606  0.6897321788128676  0.5561801448456904  1.0000
  C   C8        1.0  0.875092570698925  0.8102590189601742  0.0561813860255569  1.0000
  C   C9        1.0  0.7668138447131483  0.387331293842017  0.4514729702054794  1.0000
  C   C10       1.0  0.23317138502908824  0.11266555857078227  0.9514686260759504  1.0000
  C   C11       1.0  0.2332093949692009  0.6126726595377505  0.5485251680247245  1.0000
  C   C12       1.0  0.7668177741345517  0.8873294273240899  0.0485301327441832  1.0000
  C   C13       1.0  0.5830495395194077  0.4028623371391689  0.3976367935359377  1.0000
  C   C14       1.0  0.41694390113053  0.09713195313509707  0.8976436200251925  1.0000
  C   C15       1.0  0.41697580645357857  0.5971358514288809  0.6023557593848707  1.0000
  C   C16       1.0  0.5830599103077887  0.9028579084827013  0.1023588623345333  1.0000
  C   C17       1.0  0.5016509787816048  0.3419686309845814  0.33802540695185  1.0000
  C   C18       1.0  0.49833325906284653  0.15803846998238663  0.8380229245921171  1.0000
  C   C19       1.0  0.4983505488151394  0.6580334007912825  0.661978937177679  1.0000
  C   C20       1.0  0.5016685869318566  0.8419648428627511  0.1619776959978125  1.0000
  C   C21       1.0  0.3072546837087486  0.3594552265226767  0.2784270527563493  1.0000
  C   C22       1.0  0.6927303684825503  0.1405480312364773  0.778427673346286  1.0000
  C   C23       1.0  0.6927600266679406  0.6405500079263573  0.7215741884235172  1.0000
  C   C24       1.0  0.30726746083377077  0.8594533600047498  0.2215735678335804  1.0000
  C   C25       1.0  0.5653476719457373  0.4585196726518531  0.1933280376325754  1.0000
  C   C26       1.0  0.43464688309705213  0.04147910136485679  0.6933286582225051  1.0000
  C   C27       1.0  0.4346728430020192  0.5414804375201001  0.8066694800076988  1.0000
  C   C28       1.0  0.565342257714633  0.958522930411007  0.306673203547291  1.0000
  C   C29       1.0  0.6533205415626426  0.481189474457139  0.1063082966668105  1.0000
  C   C30       1.0  0.34668045484711746  0.018806737421030593  0.6063089172567473  1.0000
  C   C31       1.0  0.34668742740107206  0.5188099951801843  0.8936879797935902  1.0000
  C   C32       1.0  0.6533183480150342  0.9811914511470263  0.3936923239231191  1.0000
  C   C33       1.0  0.4526865960932014  0.49318668817247147  0.044572010152848  1.0000
  C   C34       1.0  0.547313585969711  0.006813366913505098  0.5445732513327144  1.0000
  C   C35       1.0  0.5473109148251609  0.5068134219994818  0.9554255074874192  1.0000
  C   C36       1.0  0.4526839249486514  0.993186743258448  0.4554310927968146  1.0000
  C   C37       1.0  0.2667247199633564  0.4158133069261537  0.0507499829337803  1.0000
  C   C38       1.0  0.7332695166814746  0.0841841860212824  0.5507499829337803  1.0000
  C   C39       1.0  0.7332758524395118  0.5841848816418957  0.9492481552964236  1.0000
  C   C40       1.0  0.2667279942368879  0.915815924150678  0.4492524994259526  1.0000
  C   C41       1.0  0.1920989875150525  0.3955621639029871  0.1398015353394939  1.0000
  C   C42       1.0  0.8078857462782877  0.10443981278689307  0.6398058794690229  1.0000
  C   C43       1.0  0.8079059199641562  0.6044392273382397  0.86019660289071  1.0000
  C   C44       1.0  0.1921016249926737  0.8955622189889707  0.3601990852504358  1.0000
  C   C45       1.0  0.7947487596106981  0.24843648249872524  0.3842792158225592  1.0000
  C   C46       1.0  0.20525205924812442  0.2515661347257989  0.8842761128728966  1.0000
  C   C47       1.0  0.20524843290970549  0.7515623466039612  0.6157232665371737  1.0000
  C   C48       1.0  0.7947428861346212  0.748430772772984  0.1157214047673705  1.0000
  C   C49       1.0  0.6060592903789158  0.26417185634446827  0.3330842699069763  1.0000
  C   C50       1.0  0.39392691290915144  0.2358217933951607  0.8330917169861678  1.0000
  C   C51       1.0  0.3939282584429833  0.735823770085041  0.6669163506829605  1.0000
  C   C52       1.0  0.6060916916508603  0.7641706303611784  0.1669138683232276  1.0000
  N   N1        1.0  0.39895523993642706  0.379195863441673  0.1928911423198869  1.0000
  N   N2        1.0  0.6010320777444917  0.12080227004040008  0.6928911423198869  1.0000
  N   N3        1.0  0.6010583560474245  0.620804887264917  0.8071094782700428  1.0000
  N   N4        1.0  0.3989546567305524  0.8791971995969232  0.3071113400398389  1.0000
  N   N5        1.0  0.2255304923081169  0.2763407333420034  0.5372093311902262  1.0000
  N   N6        1.0  0.7744289903181782  0.22365932174397324  0.0372049870606972  1.0000
  N   N7        1.0  0.7744454657236162  0.7236580957606831  0.462790048219837  1.0000
  N   N8        1.0  0.2255582401057694  0.7763350236162694  0.9627869452701745  1.0000
  Cl  Cl1       1.0  0.9561330303980284  0.386325654464919  0.7037558102732433  1.0000
  Cl  Cl2       1.0  0.04383721031961581  0.113682087036679  0.2037551896833136  1.0000
  Cl  Cl3       1.0  0.04384853630187278  0.6136815015880257  0.2962435691368199  1.0000
  Cl  Cl4       1.0  0.9561603005987465  0.8863180231352743  0.7962392250072909  1.0000
  O   O1        1.0  0.8255627355308306  0.310260885478101  0.6666314999038079  1.0000
  O   O2        1.0  0.17440943392652028  0.1897474965581338  0.166633361673604  1.0000
  O   O3        1.0  0.17439630473661075  0.6897481921787472  0.3333747059955172  1.0000
  O   O4        1.0  0.8256023925166005  0.8102532541484635  0.8333685000961921  1.0000
  O   O5        1.0  0.2092298223637457  0.3739178580484931  0.7057733481447457  1.0000
  O   O6        1.0  0.7907375344203305  0.1260853997106608  0.2057652804756174  1.0000
  O   O7        1.0  0.7907450029231808  0.6260835331927337  0.2942210665458589  1.0000
  O   O8        1.0  0.20925997649803213  0.8739147104612925  0.7942223077257253  1.0000
  O   O9        1.0  0.8700877861037312  0.3973345232382997  0.7884762655380229  1.0000
  O   O10       1.0  0.1298652368036244  0.10267513986720897  0.2884799890776151  1.0000
  O   O11       1.0  0.1299056714323328  0.6026777570917259  0.2115243550519139  1.0000
  O   O12       1.0  0.8701129867177289  0.8973185649583966  0.711517528562652  1.0000
  O   O13       1.0  0.9171007372749075  0.461461007696208  0.6537772206259262  1.0000
  O   O14       1.0  0.0828870396509913  0.0385460932707531  0.1537797029856591  1.0000
  O   O15       1.0  0.08288259896571759  0.5385461483567298  0.3462215381942073  1.0000
  O   O16       1.0  0.9171214069096648  0.9614552979704738  0.846213470525079  1.0000
