data_image0
_chemical_formula_structural       Co2H24C24N8O8
_chemical_formula_sum              "Co2 H24 C24 N8 O8"
_cell_length_a       8.494508514729029
_cell_length_b       8.671196724461812
_cell_length_c       8.671323674836428
_cell_angle_alpha    79.06315947941002
_cell_angle_beta     87.23569416015947
_cell_angle_gamma    87.23951232315103

_space_group_name_H-M_alt    "P 1"
_space_group_IT_number       1

loop_
  _space_group_symop_operation_xyz
  'x, y, z'

loop_
  _atom_site_type_symbol
  _atom_site_label
  _atom_site_symmetry_multiplicity
  _atom_site_fract_x
  _atom_site_fract_y
  _atom_site_fract_z
  _atom_site_occupancy
  Co  Co1       1.0  0.24999732029061045  0.16097704844535343  0.8390218780260312  1.0000
  Co  Co2       1.0  0.7499814171720232  0.8390195084618385  0.16099386890412148  1.0000
  H   H1        1.0  0.1476233459402607  0.0791664112712596  0.2870569413803707  1.0000
  H   H2        1.0  0.6476592931933566  0.2870596443036034  0.07910051756027772  1.0000
  H   H3        1.0  0.8523507470705312  0.921041473864534  0.7128433862613265  1.0000
  H   H4        1.0  0.35244758275092636  0.7128833489847326  0.9208690081736395  1.0000
  H   H5        1.0  0.9047969665135939  0.2544152527289967  0.261755984747289  1.0000
  H   H6        1.0  0.40482309555807927  0.2616879060884684  0.2543461015102935  1.0000
  H   H7        1.0  0.0950750789174322  0.7456530476558714  0.7382664675019301  1.0000
  H   H8        1.0  0.5952466691631244  0.7382040783136857  0.7455575733962405  1.0000
  H   H9        1.0  0.8268986393098814  0.3996200438794447  0.4818292199093436  1.0000
  H   H10       1.0  0.32690775208383377  0.48171477998085527  0.3996326324022306  1.0000
  H   H11       1.0  0.17304516837649686  0.6004506786111679  0.5181832300491109  1.0000
  H   H12       1.0  0.6731905150870289  0.5180522724408688  0.6004536830946706  1.0000
  H   H13       1.0  0.992745152338486  0.357088305386256  0.7162222376383839  1.0000
  H   H14       1.0  0.4927634489897486  0.7161117319471019  0.35714055295557057  1.0000
  H   H15       1.0  0.007193279774661202  0.6429438192357535  0.28380893583440786  1.0000
  H   H16       1.0  0.5072811776910129  0.2836975652887758  0.6429431853469725  1.0000
  H   H17       1.0  0.3828859438858387  0.9959531288533087  0.6328841518330962  1.0000
  H   H18       1.0  0.8829402652411318  0.6328856975755244  0.9959880849538366  1.0000
  H   H19       1.0  0.6170537000525229  0.004093340415011  0.3670366906847846  1.0000
  H   H20       1.0  0.11712258592257288  0.3670735538432127  0.0040356980369509  1.0000
  H   H21       1.0  0.35774565566434535  0.9691484095362028  0.4396838939351968  1.0000
  H   H22       1.0  0.8578124247345115  0.43968609201977676  0.9691678416926665  1.0000
  H   H23       1.0  0.6421846405807231  0.030950815543349094  0.560220646380003  1.0000
  H   H24       1.0  0.14229384306813836  0.5602525458105275  0.030879907037629623  1.0000
  C   C1        1.0  0.045479872949442814  0.9277978791547525  0.9779113242109005  1.0000
  C   C2        1.0  0.5455007973807184  0.977837366540264  0.9277870836378102  1.0000
  C   C3        1.0  0.9544676326665067  0.07227645405762931  0.022163619382936924  1.0000
  C   C4        1.0  0.4544883828989157  0.022110281891201605  0.07226025326359321  1.0000
  C   C5        1.0  0.19393169041291  0.11865978303092112  0.5184104719797773  1.0000
  C   C6        1.0  0.6939552504995206  0.5184000602963009  0.11864773710856721  1.0000
  C   C7        1.0  0.8060359598311067  0.8814774698014605  0.48150033168413847  1.0000
  C   C8        1.0  0.3061037259371205  0.4815377281663374  0.8813657359030246  1.0000
  C   C9        1.0  0.10708479298366307  0.14197168848644995  0.38001599296904953  1.0000
  C   C10       1.0  0.6071094454340908  0.37998857894193344  0.14192309869859093  1.0000
  C   C11       1.0  0.8928640646571536  0.8581941350283628  0.6199105810316966  1.0000
  C   C12       1.0  0.3929694852740937  0.6199191481445395  0.8580587066348927  1.0000
  C   C13       1.0  0.9745611193731992  0.24070181282775854  0.36584464680071704  1.0000
  C   C14       1.0  0.4745653988760453  0.36579972524933163  0.24064840042341024  1.0000
  C   C15       1.0  0.02536487836183449  0.7593965507869599  0.6341364249267869  1.0000
  C   C16       1.0  0.525482998843046  0.6341013640644135  0.7593017744703587  1.0000
  C   C17       1.0  0.9298315842697491  0.3196723052663515  0.4888617930645653  1.0000
  C   C18       1.0  0.42984332381453777  0.4887757603665078  0.3196657378868224  1.0000
  C   C19       1.0  0.07010707559239648  0.6804076481212532  0.5111409218730146  1.0000
  C   C20       1.0  0.570226855117852  0.5110643840427116  0.6803617835194518  1.0000
  C   C21       1.0  0.021468393364038704  0.2964872065315093  0.6191298545547214  1.0000
  C   C22       1.0  0.5214793253285633  0.6190548449135634  0.2965126860380495  1.0000
  C   C23       1.0  0.978473350556591  0.7035750099441388  0.3808706380770914  1.0000
  C   C24       1.0  0.4785632627573547  0.38079987895367406  0.7035409063900036  1.0000
  N   N1        1.0  0.1511685509894036  0.19767496874416682  0.6373032276772791  1.0000
  N   N2        1.0  0.6511853407477305  0.6372692246090708  0.19769026516922147  1.0000
  N   N3        1.0  0.8487775775662599  0.8023913468667488  0.36266503749713763  1.0000
  N   N4        1.0  0.348844137638082  0.3626414078690985  0.8023281066320964  1.0000
  N   N5        1.0  0.31955641645795646  0.0165595270947563  0.5337614366399565  1.0000
  N   N6        1.0  0.8196023994456566  0.533754501595979  0.016564277664329632  1.0000
  N   N7        1.0  0.6804741425040461  0.9836480261560187  0.46611180357786725  1.0000
  N   N8        1.0  0.18052164256861403  0.4661577386325959  0.9835180517503943  1.0000
  O   O1        1.0  0.16788680657582944  0.9513757611276645  0.8870598097811496  1.0000
  O   O2        1.0  0.6679022391157402  0.887023229813458  0.9513785783684626  1.0000
  O   O3        1.0  0.8320525614732901  0.048689186526885905  0.11295984451725624  1.0000
  O   O4        1.0  0.3320805124329453  0.11293739979116421  0.048669841200307894  1.0000
  O   O5        1.0  0.993737801727704  0.7937573563481735  0.03445742703506481  1.0000
  O   O6        1.0  0.493757054582403  0.034395784398221  0.7937341191069082  1.0000
  O   O7        1.0  0.006226632137206401  0.20633324893149313  0.9656017031179478  1.0000
  O   O8        1.0  0.5062085229972624  0.9655516440654992  0.20630641603913355  1.0000
