data_image0
_chemical_formula_structural       Hf6H40C66N6O32
_chemical_formula_sum              "Hf6 H40 C66 N6 O32"
_cell_length_a       14.13509816084408
_cell_length_b       14.136615994271798
_cell_length_c       14.140516710320137
_cell_angle_alpha    88.7583594763562
_cell_angle_beta     88.75952120592906
_cell_angle_gamma    88.7957677688507

_space_group_name_H-M_alt    "P 1"
_space_group_IT_number       1

loop_
  _space_group_symop_operation_xyz
  'x, y, z'

loop_
  _atom_site_type_symbol
  _atom_site_label
  _atom_site_symmetry_multiplicity
  _atom_site_fract_x
  _atom_site_fract_y
  _atom_site_fract_z
  _atom_site_occupancy
  Hf  Hf1       1.0  0.182226899550038  0.19260464103976457  0.047261165132297805  1.0000
  Hf  Hf2       1.0  0.2825474816193747  0.986218912400851  0.15299034004183912  1.0000
  Hf  Hf3       1.0  0.9657534964023853  0.08144047111213838  0.0340618098318188  1.0000
  Hf  Hf4       1.0  0.07618892217971049  0.09192192284675829  0.25343600999251237  1.0000
  Hf  Hf5       1.0  0.171472900376898  0.9733551337678676  0.9365300131554051  1.0000
  Hf  Hf6       1.0  0.0631129767033869  0.875610227678699  0.14212156874674522  1.0000
  H   H1        1.0  0.8314052993068657  0.4646160046980512  0.7934931633489698  1.0000
  H   H2        1.0  0.8509876730646865  0.6487272247304006  0.8035877749751281  1.0000
  H   H3        1.0  0.4088182873463709  0.604396229449364  0.38984685981146333  1.0000
  H   H4        1.0  0.38792085412954685  0.4195978168251671  0.37869971424453297  1.0000
  H   H5        1.0  0.8228202590590143  0.7415105561779071  0.5259476688618391  1.0000
  H   H6        1.0  0.8332947506152664  0.7615953537279411  0.70985127683511  1.0000
  H   H7        1.0  0.4189367782312202  0.3187969239476517  0.6649311938197187  1.0000
  H   H8        1.0  0.4072337498245204  0.29748410264964786  0.48037205192331817  1.0000
  H   H9        1.0  0.5542997771550378  0.7319210515692304  0.8023142263013839  1.0000
  H   H10       1.0  0.7383611082554677  0.7423836148354895  0.821663272770678  1.0000
  H   H11       1.0  0.6946623996425032  0.32909113609807156  0.3798336418340327  1.0000
  H   H12       1.0  0.509931435526731  0.3177817093837518  0.3590464720384929  1.0000
  H   H13       1.0  0.2583918089544568  0.168228038159171  0.22954009366667094  1.0000
  H   H14       1.0  0.08797824756074141  0.1400876048228596  0.881144476937017  1.0000
  H   H15       1.0  0.9101323751488692  0.9978590339457156  0.20074729377979852  1.0000
  H   H16       1.0  0.2298541049405358  0.8202824502932701  0.05868030412941749  1.0000
  H   H17       1.0  0.7803825715067632  0.3487141505911424  0.114807747300496  1.0000
  H   H18       1.0  0.8342443306877243  0.2910183526442155  0.31902628054344717  1.0000
  H   H19       1.0  0.5065093195692754  0.20868426020561515  0.2186801732773631  1.0000
  H   H20       1.0  0.4221139255029627  0.3818464698782763  0.10954583575676931  1.0000
  H   H21       1.0  0.753881609931959  0.8533798613341189  0.9516656670811302  1.0000
  H   H22       1.0  0.8236616975484665  0.6841435898720148  0.07603326159712509  1.0000
  H   H23       1.0  0.4295194948793366  0.7919546056248093  0.8662446323591837  1.0000
  H   H24       1.0  0.4681333728104562  0.7198592954800774  0.0700341176773165  1.0000
  H   H25       1.0  0.3812659216989971  0.2585354147863228  0.8048074780247206  1.0000
  H   H26       1.0  0.43831431249205366  0.05402975275470111  0.7512426096354048  1.0000
  H   H27       1.0  0.4716252645581561  0.0481768755175764  0.39278414739434453  1.0000
  H   H28       1.0  0.2984418916702651  0.15698357227380202  0.4774197998414992  1.0000
  H   H29       1.0  0.9434595217798716  0.8916353507819892  0.7246356547413911  1.0000
  H   H30       1.0  0.7741672399160322  0.0157989765289699  0.794600704518423  1.0000
  H   H31       1.0  0.881252051356924  0.8051403275137191  0.4000641302528649  1.0000
  H   H32       1.0  0.809768201662493  0.0090387697745768  0.4391667438938214  1.0000
  H   H33       1.0  0.3482490215151728  0.743830822979625  0.35143086023902015  1.0000
  H   H34       1.0  0.1437941512288319  0.6901598917995457  0.4089213959200961  1.0000
  H   H35       1.0  0.13861174180144084  0.3314566836187467  0.4428783261706073  1.0000
  H   H36       1.0  0.2475014101254871  0.41633205016264446  0.26979641706107327  1.0000
  H   H37       1.0  0.10554198133893776  0.7336826145123256  0.744833165852434  1.0000
  H   H38       1.0  0.980960203388193  0.6640539252332686  0.9140688907917608  1.0000
  H   H39       1.0  0.0992152024518589  0.37813058864711024  0.7801593806214483  1.0000
  H   H40       1.0  0.8955192120807495  0.3404409973771294  0.8535238724092197  1.0000
  C   C1        1.0  0.9772998438801253  0.46336340283714605  0.7350275581849034  1.0000
  C   C2        1.0  0.890248074283889  0.5034580087266036  0.7626433731963899  1.0000
  C   C3        1.0  0.9005869224370002  0.6016171224926978  0.767749022795009  1.0000
  C   C4        1.0  0.9918278068870093  0.6251440980778112  0.7388594031886202  1.0000
  C   C5        1.0  0.2655129232407488  0.6056794578105168  0.4541160011616371  1.0000
  C   C6        1.0  0.3511144471257808  0.5651804640166561  0.42244619628370117  1.0000
  C   C7        1.0  0.3397716275068845  0.4672061379195612  0.41603463258919504  1.0000
  C   C8        1.0  0.2490109464890224  0.44427216074470277  0.44729383150883  1.0000
  C   C9        1.0  0.7641416070492397  0.8872784326311136  0.5243147961981336  1.0000
  C   C10       1.0  0.7919317265548784  0.8003871754600169  0.5646391358558419  1.0000
  C   C11       1.0  0.7971914457436853  0.8109572655355493  0.6627067220553541  1.0000
  C   C12       1.0  0.7682000512478738  0.9021890242905501  0.685986134905292  1.0000
  C   C13       1.0  0.48343982877231184  0.17559476910940933  0.6663966740542122  1.0000
  C   C14       1.0  0.4515179205770536  0.261061211022529  0.6258224393894168  1.0000
  C   C15       1.0  0.44477534098057697  0.24950022217378628  0.5279468608360105  1.0000
  C   C16       1.0  0.476071313767946  0.15878129518424797  0.5051490007318903  1.0000
  C   C17       1.0  0.5531313521041241  0.6739309541220634  0.9483082889424708  1.0000
  C   C18       1.0  0.5932082899353546  0.7012694085722162  0.8611694765239974  1.0000
  C   C19       1.0  0.6913778015196356  0.7065162567645871  0.8713830180824615  1.0000
  C   C20       1.0  0.7149224072253163  0.6779509003769277  0.9626555014846474  1.0000
  C   C21       1.0  0.6959510794777657  0.39353855623770073  0.2365783127842107  1.0000
  C   C22       1.0  0.6554646551931995  0.3617170599657413  0.32216543972161565  1.0000
  C   C23       1.0  0.557524624271764  0.3550755833759425  0.31083599058248984  1.0000
  C   C24       1.0  0.5345704917540318  0.3862474318001929  0.22008289191145988  1.0000
  C   C25       1.0  0.008381666146639998  0.2804991137866111  0.9333050831279834  1.0000
  C   C26       1.0  0.3907900531384882  0.18715268556452713  0.12347751709695129  1.0000
  C   C27       1.0  0.15234603001444208  0.30054788144023087  0.24823702221128494  1.0000
  C   C28       1.0  0.29401701410639447  0.14687058352276958  0.8564422434322907  1.0000
  C   C29       1.0  0.2366295554287348  0.7952530303773101  0.2643054080454235  1.0000
  C   C30       1.0  0.8607037304948975  0.8775270689475435  0.055284623460138994  1.0000
  C   C31       1.0  0.27700546006533244  0.06191766168009141  0.36165457268980117  1.0000
  C   C32       1.0  0.370391391002073  0.87236249202234  0.9790510099829959  1.0000
  C   C33       1.0  0.9677455726349322  0.9950895344322461  0.8314966303051889  1.0000
  C   C34       1.0  0.8855060037931395  0.20379651344770627  0.20741286368728143  1.0000
  C   C35       1.0  0.9619912966258894  0.9179740474109437  0.34105894836824296  1.0000
  C   C36       1.0  0.08463478601353809  0.7708203401890897  0.9382998496730578  1.0000
  C   C37       1.0  0.7778064132922181  0.34881138621651797  0.19212210259763654  1.0000
  C   C38       1.0  0.8342111212834452  0.2879084345119055  0.24199061443917458  1.0000
  C   C39       1.0  0.4583388052792118  0.24722040607559137  0.1717796719641527  1.0000
  C   C40       1.0  0.46374003572731226  0.34286118130840765  0.16229534975958873  1.0000
  C   C41       1.0  0.7973890911349599  0.8159356937424677  0.0036251242442943976  1.0000
  C   C42       1.0  0.786829438062675  0.7214806289409311  0.0187894314554597  1.0000
  C   C43       1.0  0.424785829178994  0.7907765883780726  0.9433606153117539  1.0000
  C   C44       1.0  0.4742064754250421  0.7236512114506939  0.9928930559765092  1.0000
  C   C45       1.0  0.6232299327435556  0.49555133271964996  0.11393448320806239  1.0000
  C   C46       1.0  0.6255449600110409  0.5717170234924682  0.0712183803839679  1.0000
  C   C47       1.0  0.3780207443070438  0.1814579782811236  0.8048577011089151  1.0000
  C   C48       1.0  0.4387097167254694  0.13134608214927823  0.7484249660005489  1.0000
  C   C49       1.0  0.4326644562708566  0.1008296707681282  0.434499986472531  1.0000
  C   C50       1.0  0.3370126839713308  0.11016545765046712  0.42922430262145633  1.0000
  C   C51       1.0  0.906075988785787  0.9435986625450283  0.7682047167723455  1.0000
  C   C52       1.0  0.8115722275476926  0.9585983961899703  0.7577448557914082  1.0000
  C   C53       1.0  0.8803369398756615  0.8822823071887101  0.3953944633698541  1.0000
  C   C54       1.0  0.8134642321592835  0.9318685604053415  0.44512954069264044  1.0000
  C   C55       1.0  0.5857431388510433  0.0530967816252144  0.5938924707320085  1.0000
  C   C56       1.0  0.6619197409263292  0.010399900718624597  0.5963201622136368  1.0000
  C   C57       1.0  0.2711737056335295  0.7437899364312701  0.34829359513049246  1.0000
  C   C58       1.0  0.22113742127659458  0.6875004234511767  0.4092064388769572  1.0000
  C   C59       1.0  0.1912059144297373  0.37337010770532697  0.40394658261989497  1.0000
  C   C60       1.0  0.2006771671424019  0.3680467197756059  0.3083237214179846  1.0000
  C   C61       1.0  0.04816695978812652  0.6970060593775146  0.782212218046233  1.0000
  C   C62       1.0  0.0330224969380737  0.7075445105057911  0.876659788590004  1.0000
  C   C63       1.0  0.0220485549687055  0.384335242957512  0.7844524202035856  1.0000
  C   C64       1.0  0.9726425279959868  0.335231871713681  0.8519573318930257  1.0000
  C   C65       1.0  0.143054765125477  0.5331043168264529  0.556576299988741  1.0000
  C   C66       1.0  0.10029705769370878  0.5356086261655122  0.6327132006457248  1.0000
  N   N1        1.0  0.03516924294185491  0.54045586795867  0.7043007882500375  1.0000
  N   N2        1.0  0.2076181575462073  0.528696057935754  0.4845199865052692  1.0000
  N   N3        1.0  0.7334800195308517  0.9452969228333501  0.6012702719612264  1.0000
  N   N4        1.0  0.5136548450769851  0.1176239533059089  0.5894956011831526  1.0000
  N   N5        1.0  0.6302703799796561  0.6433556122402849  0.0061900844485052  1.0000
  N   N6        1.0  0.6189258906768771  0.4236532076087799  0.1787284744955002  1.0000
  O   O1        1.0  0.9486481936107084  0.22181068517770097  0.9687761095745272  1.0000
  O   O2        1.0  0.39812349730423346  0.09760005093539093  0.1378312533193906  1.0000
  O   O3        1.0  0.1667600765482149  0.3080094510028389  0.15869800714322932  1.0000
  O   O4        1.0  0.2554690343161781  0.2082858743559441  0.9116795166391115  1.0000
  O   O5        1.0  0.25982327604597083  0.0656262641679177  0.8403486213676103  1.0000
  O   O6        1.0  0.1040803699751223  0.2365559205856655  0.29112906220888146  1.0000
  O   O7        1.0  0.3268515035372062  0.23013409430604528  0.07531628887180371  1.0000
  O   O8        1.0  0.0909207777864935  0.294200645201407  0.9659358136059666  1.0000
  O   O9        1.0  0.23344625469306374  0.05464994975164221  0.0349694340831945  1.0000
  O   O10       1.0  0.0641167288953639  0.14334438380285522  0.1154887424541116  1.0000
  O   O11       1.0  0.2196926413721414  0.12956551483066653  0.1907081236136889  1.0000
  O   O12       1.0  0.09713040698805739  0.11199181928755313  0.9435297188295807  1.0000
  O   O13       1.0  0.29811036901523374  0.8504074340399157  0.22559887356544553  1.0000
  O   O14       1.0  0.8522905426257806  0.9667027939162693  0.038739124542054484  1.0000
  O   O15       1.0  0.1874273453168414  0.07637435242715182  0.3689175518266126  1.0000
  O   O16       1.0  0.3118049204641622  0.9079939435489381  0.919340342667617  1.0000
  O   O17       1.0  0.056921381619901  0.9784401849541384  0.8229717502229548  1.0000
  O   O18       1.0  0.9404686178946305  0.1649180488305433  0.2688856404688948  1.0000
  O   O19       1.0  0.997730818224035  0.8583185942856132  0.2824550439241166  1.0000
  O   O20       1.0  0.0680496985178536  0.7622544269323299  0.027460124466429592  1.0000
  O   O21       1.0  0.9946900621896334  0.0004734739525674001  0.35494469508781623  1.0000
  O   O22       1.0  0.1413364957608465  0.8293986443799639  0.8982417992944677  1.0000
  O   O23       1.0  0.3199642702617069  0.013763289931809204  0.2976798232972797  1.0000
  O   O24       1.0  0.869423851778876  0.1697623798685015  0.12613591122823212  1.0000
  O   O25       1.0  0.9276945922097326  0.0517537846399208  0.8900662373392976  1.0000
  O   O26       1.0  0.3842220179947375  0.9050739845053428  0.0615038809850788  1.0000
  O   O27       1.0  0.15531666663002142  0.7792234103020235  0.2302262017122345  1.0000
  O   O28       1.0  0.9191346672806945  0.8373835418989517  0.11203187477005372  1.0000
  O   O29       1.0  0.05108742200784631  0.961136033797885  0.021846747357919596  1.0000
  O   O30       1.0  0.1444920945302641  0.9739214451224004  0.2042006090344586  1.0000
  O   O31       1.0  0.9725347384357548  0.0068845227498144  0.17259442463848274  1.0000
  O   O32       1.0  0.20177932237223936  0.8826902284622663  0.06772728366480152  1.0000
