data_image0
_chemical_formula_structural       Zn2H20C24Br4N4
_chemical_formula_sum              "Zn2 H20 C24 Br4 N4"
_cell_length_a       5.429689480459897
_cell_length_b       7.7506373666534865
_cell_length_c       15.58558246223271
_cell_angle_alpha    79.93600307472121
_cell_angle_beta     88.14114431501972
_cell_angle_gamma    88.80424111505607

_space_group_name_H-M_alt    "P 1"
_space_group_IT_number       1

loop_
  _space_group_symop_operation_xyz
  'x, y, z'

loop_
  _atom_site_type_symbol
  _atom_site_label
  _atom_site_symmetry_multiplicity
  _atom_site_fract_x
  _atom_site_fract_y
  _atom_site_fract_z
  _atom_site_occupancy
  Zn  Zn1       1.0  0.3337028974062761  0.4959751895991145  0.7434241117308603  1.0000
  Zn  Zn2       1.0  0.6662906882754599  0.5040287374780731  0.2565740614953285  1.0000
  H   H1        1.0  0.2682378065169857  0.09814666943379538  0.7851915295491878  1.0000
  H   H2        1.0  0.7317650504577602  0.9018588922705033  0.21481277879200184  1.0000
  H   H3        1.0  0.9828926373407045  0.8915544225795171  0.8773489619802533  1.0000
  H   H4        1.0  0.017132489636914303  0.10844320155511868  0.12265391298306133  1.0000
  H   H5        1.0  0.6262619992339611  0.3412799203688052  0.9618733924019978  1.0000
  H   H6        1.0  0.3737336847249537  0.6587135587101185  0.03812642717803534  1.0000
  H   H7        1.0  0.9314454982921778  0.5255157008659237  0.8708422377540543  1.0000
  H   H8        1.0  0.06854276648861912  0.4744790188733743  0.12915627292453993  1.0000
  H   H9        1.0  0.9469710509060576  0.7594986242606294  0.7572334266985197  1.0000
  H   H10       1.0  0.05304258371189971  0.2405158959250001  0.24276536270424742  1.0000
  H   H11       1.0  0.63936643456492  0.9363971360516029  0.6672537514668591  1.0000
  H   H12       1.0  0.36065070026560875  0.06362524810688089  0.3327442152389608  1.0000
  H   H13       1.0  0.9650172698518776  0.7406632547895383  0.4444566395823344  1.0000
  H   H14       1.0  0.0349473846770607  0.259318470245347  0.5555460315492127  1.0000
  H   H15       1.0  0.26019386514418136  0.5675232024092904  0.5457772314937941  1.0000
  H   H16       1.0  0.7397616906824283  0.4324532426781572  0.4542254386778098  1.0000
  H   H17       1.0  0.6536686324648215  0.8378920337599638  0.9845788635506808  1.0000
  H   H18       1.0  0.3463457429732912  0.16209388486411305  0.015427234100400306  1.0000
  H   H19       1.0  0.6286632441288094  0.9453870351573809  0.4187687378281312  1.0000
  H   H20       1.0  0.3713303812918057  0.054615613449897196  0.5812302029789436  1.0000
  C   C1        1.0  0.12141683415216423  0.1459305383559979  0.824859682780648  1.0000
  C   C2        1.0  0.8785990440633002  0.8540669513924113  0.17514075946794355  1.0000
  C   C3        1.0  0.9600833670976603  0.031933670320619  0.8759913272077142  1.0000
  C   C4        1.0  0.0399490989969919  0.9680624280195428  0.12400710953841813  1.0000
  C   C5        1.0  0.7723840991142483  0.09719822233010687  0.9264995589474978  1.0000
  C   C6        1.0  0.2276408422208363  0.9028044206394765  0.07349832998608719  1.0000
  C   C7        1.0  0.7625331263426391  0.2796146582890414  0.9237584144408687  1.0000
  C   C8        1.0  0.2374734681112898  0.7203854124207892  0.07624125277491343  1.0000
  C   C9        1.0  0.933419319799853  0.38443542475197023  0.8725783002423954  1.0000
  C   C10       1.0  0.06657990411051172  0.6155646398298983  0.12742146422156964  1.0000
  C   C11       1.0  0.9431891544870156  0.7574707139839703  0.6876506640455133  1.0000
  C   C12       1.0  0.0568135696359278  0.2425372145707456  0.3123482777215045  1.0000
  C   C13       1.0  0.7706259152682335  0.8566275806675844  0.63638150341572  1.0000
  C   C14       1.0  0.22937670327325327  0.14338565185618526  0.3636181994401966  1.0000
  C   C15       1.0  0.7705652983766955  0.8525395459995551  0.5464911040605713  1.0000
  C   C16       1.0  0.22942840652167015  0.1474605456678972  0.453509371908261  1.0000
  C   C17       1.0  0.9519789078763454  0.7468815101197703  0.5137658016262634  1.0000
  C   C18       1.0  0.04800043494898891  0.25310287915557683  0.4862370555533815  1.0000
  C   C19       1.0  0.11769337404427924  0.6500697457876397  0.569664769708254  1.0000
  C   C20       1.0  0.8822822787697718  0.3499132035459809  0.4303357108326722  1.0000
  C   C21       1.0  0.6037654592918643  0.9764465853965942  0.9795431702421026  1.0000
  C   C22       1.0  0.39622278944756323  0.02355659720134179  0.0204666991696172  1.0000
  C   C23       1.0  0.5965369435374797  0.9525341018344445  0.487626709697679  1.0000
  C   C24       1.0  0.40345107923721474  0.04747253599442299  0.5123731941465692  1.0000
  Br  Br1       1.0  0.607821959863152  0.333793135400114  0.6656578508890405  1.0000
  Br  Br2       1.0  0.39217864345175724  0.6662237409119881  0.3343357421238622  1.0000
  Br  Br3       1.0  0.4358616613817787  0.6932260542446114  0.840553571951226  1.0000
  Br  Br4       1.0  0.5641592500834777  0.3067867183755765  0.1594363092532021  1.0000
  N   N1        1.0  0.10911389477590212  0.32040731257921345  0.8229234144494342  1.0000
  N   N2        1.0  0.89088558951525  0.6795837393501358  0.17708044594321853  1.0000
  N   N3        1.0  0.11343850688091092  0.6539865356519596  0.6558066618024725  1.0000
  N   N4        1.0  0.8865460109417072  0.34601080132631507  0.3441916394759232  1.0000
