data_image0
_chemical_formula_structural       Lu2H18C9O24
_chemical_formula_sum              "Lu2 H18 C9 O24"
_cell_length_a       8.696825596793389
_cell_length_b       8.696853325318113
_cell_length_c       8.69676761498056
_cell_angle_alpha    66.39143802020395
_cell_angle_beta     66.39155927506422
_cell_angle_gamma    66.39164647632292

_space_group_name_H-M_alt    "P 1"
_space_group_IT_number       1

loop_
  _space_group_symop_operation_xyz
  'x, y, z'

loop_
  _atom_site_type_symbol
  _atom_site_label
  _atom_site_symmetry_multiplicity
  _atom_site_fract_x
  _atom_site_fract_y
  _atom_site_fract_z
  _atom_site_occupancy
  Lu  Lu1       1.0  0.7336927845082072  0.7336930236251008  0.7336886901890551  1.0000
  Lu  Lu2       1.0  0.2663107356383492  0.26630844464973785  0.2663107016856401  1.0000
  H   H1        1.0  0.6931008814825717  0.8234503051793285  0.051534894103440296  1.0000
  H   H2        1.0  0.05153525695962461  0.6930910005744906  0.8234467465258176  1.0000
  H   H3        1.0  0.8234481337584612  0.0515348610887116  0.6930934091123787  1.0000
  H   H4        1.0  0.9484695878563798  0.1765517300844692  0.30690288775858937  1.0000
  H   H5        1.0  0.17654797999612987  0.3068951121332261  0.9484685825698875  1.0000
  H   H6        1.0  0.30690669705181517  0.9484709162779338  0.17655091822849306  1.0000
  H   H7        1.0  0.7337499504209148  0.7832521400905463  0.36598608908341407  1.0000
  H   H8        1.0  0.3659894165743295  0.7337519588711814  0.7832481535439086  1.0000
  H   H9        1.0  0.7832444181243403  0.3659927745383841  0.7337506892775779  1.0000
  H   H10       1.0  0.6340112789447971  0.2167517100720175  0.26624784668902624  1.0000
  H   H11       1.0  0.2167462901324838  0.2662378124213802  0.6340219079249535  1.0000
  H   H12       1.0  0.26624886627973154  0.634010144755102  0.21674904581623616  1.0000
  H   H13       1.0  0.5480201316610261  0.8738511882282509  0.4789205854823422  1.0000
  H   H14       1.0  0.4789220699778484  0.5480320594326711  0.8738490086871238  1.0000
  H   H15       1.0  0.8738406513071265  0.47892903051190666  0.5480231159109226  1.0000
  H   H16       1.0  0.5210755204456419  0.1261596469092723  0.4519758130266993  1.0000
  H   H17       1.0  0.126152145039427  0.4519656359702325  0.5210823547361798  1.0000
  H   H18       1.0  0.45197558400060706  0.5210733887824048  0.12616022769549315  1.0000
  C   C1        1.0  0.5000053262847216  0.03490107795354191  0.9650956443264818  1.0000
  C   C2        1.0  0.9651006978861931  0.4999968547487441  0.0349026046184163  1.0000
  C   C3        1.0  0.03490777722780783  0.9650964125077055  0.49999712315794637  1.0000
  C   C4        1.0  0.41877840101099656  0.08260418521711443  0.815409037171669  1.0000
  C   C5        1.0  0.8154057967727795  0.4187800153538816  0.08260410576111354  1.0000
  C   C6        1.0  0.08260164011026203  0.8154097017191689  0.41877969004103477  1.0000
  C   C7        1.0  0.1845969281518406  0.9173987420765857  0.5812142700009488  1.0000
  C   C8        1.0  0.9173989520275542  0.5812196652828234  0.18459470886242008  1.0000
  C   C9        1.0  0.5812189313729803  0.1845960188008675  0.9173895650747284  1.0000
  O   O1        1.0  0.623774985136869  0.8709384595288087  0.9627057754547791  1.0000
  O   O2        1.0  0.9627048961686315  0.6237699415250759  0.870936449697467  1.0000
  O   O3        1.0  0.8709431714428886  0.9627044822596247  0.6237707946847878  1.0000
  O   O4        1.0  0.037297149530985486  0.12906201917299853  0.3762277153662481  1.0000
  O   O5        1.0  0.12906181132049704  0.37622655383942327  0.037294495618588976  1.0000
  O   O6        1.0  0.376227159837093  0.03729901771217211  0.1290604771039483  1.0000
  O   O7        1.0  0.6721148886450832  0.8196514492011959  0.4759357726527963  1.0000
  O   O8        1.0  0.4759361254050917  0.6721211759488382  0.8196549274371918  1.0000
  O   O9        1.0  0.8196513956712438  0.475939215304706  0.6721173419542338  1.0000
  O   O10       1.0  0.5240611113274908  0.18035189982374789  0.3278842967417646  1.0000
  O   O11       1.0  0.1803478243329621  0.3278779787659261  0.5240662338379067  1.0000
  O   O12       1.0  0.32788202503800784  0.524061374918098  0.18035391844114906  1.0000
  O   O13       1.0  0.5113457071370037  0.0072325340038901  0.6966721843559255  1.0000
  O   O14       1.0  0.6966826002732346  0.5113412344859967  0.007229534929443567  1.0000
  O   O15       1.0  0.0072246332683079005  0.6966845937985084  0.5113339877334511  1.0000
  O   O16       1.0  0.30332213252140866  0.9927710115254129  0.48866075212036714  1.0000
  O   O17       1.0  0.9927703157491123  0.4886543918883818  0.30332653103923235  1.0000
  O   O18       1.0  0.48865689083088154  0.30332325425498413  0.9927705574269724  1.0000
  O   O19       1.0  0.27210883667386554  0.1974780363178326  0.817130948015965  1.0000
  O   O20       1.0  0.8171259919378144  0.27211062774190253  0.19749461251360853  1.0000
  O   O21       1.0  0.19749888790976663  0.8171305989088677  0.2721026683011089  1.0000
  O   O22       1.0  0.18287506590825595  0.8024982630504526  0.7278897051857668  1.0000
  O   O23       1.0  0.8025154531994262  0.7278861044185376  0.18287290084636967  1.0000
  O   O24       1.0  0.7278880447879031  0.18287719536904493  0.802498855494406  1.0000
