data_image0
_chemical_formula_structural       Ag2H48C54N18O6
_chemical_formula_sum              "Ag2 H48 C54 N18 O6"
_cell_length_a       7.568851632
_cell_length_b       13.836986316036821
_cell_length_c       13.895
_cell_angle_alpha    120.13878903510388
_cell_angle_beta     90.0
_cell_angle_gamma    90.0

_space_group_name_H-M_alt    "P 1"
_space_group_IT_number       1

loop_
  _space_group_symop_operation_xyz
  'x, y, z'

loop_
  _atom_site_type_symbol
  _atom_site_label
  _atom_site_symmetry_multiplicity
  _atom_site_fract_x
  _atom_site_fract_y
  _atom_site_fract_z
  _atom_site_occupancy
  Ag  Ag1       1.0  0.6777923850839753  0.3337055515376194  0.6677264713427604  1.0000
  Ag  Ag2       1.0  0.1778182563798438  0.6662946425058962  0.3322750650456783  1.0000
  H   H1        1.0  0.9587121472062134  0.2722960418531741  0.10960753873875011  1.0000
  H   H2        1.0  0.958227265195255  0.8909296846198985  0.16218380596593826  1.0000
  H   H3        1.0  0.9595445059716281  0.8377081095600476  0.7291253753989508  1.0000
  H   H4        1.0  0.4587155580274711  0.7277041521903485  0.8903896795496564  1.0000
  H   H5        1.0  0.45822935481211857  0.10906883807546562  0.8378161750650789  1.0000
  H   H6        1.0  0.459545274384105  0.16228957746123743  0.2708727484283528  1.0000
  H   H7        1.0  0.1523652538152973  0.18284131008245202  0.1767981289527043  1.0000
  H   H8        1.0  0.1518724445779966  0.822939241564491  0.0060748744706203344  1.0000
  H   H9        1.0  0.15255418604299814  0.9935855598142498  0.8181947230521445  1.0000
  H   H10       1.0  0.6523671278116012  0.8171580482869916  0.8232001108653364  1.0000
  H   H11       1.0  0.6518716761655268  0.1770601168049524  0.9939233653474204  1.0000
  H   H12       1.0  0.652557381243696  0.0064137985551866  0.1818027970825611  1.0000
  H   H13       1.0  0.1258671785786163  0.39414233659428544  0.006863899495414294  1.0000
  H   H14       1.0  0.1261882312452727  0.9938070134451495  0.38647673450235237  1.0000
  H   H15       1.0  0.1261750192013835  0.6122181728633792  0.6058010619624525  1.0000
  H   H16       1.0  0.6258677313705334  0.6058578574492374  0.9931354778430048  1.0000
  H   H17       1.0  0.6261914264459703  0.0061973589687696  0.6135261713879459  1.0000
  H   H18       1.0  0.6261768931976872  0.3877795141579058  0.3941963421815089  1.0000
  H   H19       1.0  0.02342363262221169  0.45974943717681077  0.14063614356141588  1.0000
  H   H20       1.0  0.0243815058046337  0.859291899668641  0.31764091205094064  1.0000
  H   H21       1.0  0.0241516162408502  0.6820437561959454  0.5417264480871752  1.0000
  H   H22       1.0  0.523422864209742  0.5402482498444741  0.8593591015325259  1.0000
  H   H23       1.0  0.52437941618777  0.14071080139711972  0.6823618778486137  1.0000
  H   H24       1.0  0.5241534902371541  0.31795309515126047  0.45827341695310514  1.0000
  H   H25       1.0  0.9499908770308423  0.330314386125643  0.8378509678019342  1.0000
  H   H26       1.0  0.9498296900953207  0.16304419115444094  0.4928571081716768  1.0000
  H   H27       1.0  0.9497860903504642  0.5072733863670464  0.6699821411864023  1.0000
  H   H28       1.0  0.4500127847135501  0.6696833008956418  0.16214643634202738  1.0000
  H   H29       1.0  0.4498370645297384  0.8369560028890817  0.5071422691667422  1.0000
  H   H30       1.0  0.44979082237610146  0.4927243006542313  0.330018141690914  1.0000
  H   H31       1.0  0.6886949637064816  0.4394893548091191  0.15263852411200676  1.0000
  H   H32       1.0  0.6893634931275938  0.8466364514185045  0.2856586359287548  1.0000
  H   H33       1.0  0.6894506926172992  0.713338079100801  0.5604221881650064  1.0000
  H   H34       1.0  0.18868648368822954  0.5605150176048  0.847366540828304  1.0000
  H   H35       1.0  0.1893682251532312  0.15336290695093882  0.7143410432559704  1.0000
  H   H36       1.0  0.18944881862099544  0.286662950616801  0.4395776070104489  1.0000
  H   H37       1.0  0.4011612524101835  0.41379655525481246  0.05383314628519294  1.0000
  H   H38       1.0  0.4015351532524249  0.9453972497313217  0.3596961059739741  1.0000
  H   H39       1.0  0.4015668621577787  0.6401606070379557  0.5859694722847238  1.0000
  H   H40       1.0  0.9011551991801525  0.5862111598554236  0.9461815065200129  1.0000
  H   H41       1.0  0.9015383484531225  0.0546021086381216  0.6403006944773894  1.0000
  H   H42       1.0  0.9015634513365212  0.3598395870055668  0.4140248672703279  1.0000
  H   H43       1.0  0.4051790349587847  0.3479746864340214  0.8484551373875746  1.0000
  H   H44       1.0  0.40499406634425117  0.1516171838002194  0.5002288869702767  1.0000
  H   H45       1.0  0.4049425393730601  0.500465985320723  0.652038678158739  1.0000
  H   H46       1.0  0.9051994058165462  0.6520313573280491  0.15155939942688698  1.0000
  H   H47       1.0  0.9050012251581163  0.848382174569224  0.4997671937977445  1.0000
  H   H48       1.0  0.9049457345737577  0.4995333730487204  0.3479552435592623  1.0000
  C   C1        1.0  0.1495378764216753  0.09887862835793731  0.9967073962228739  1.0000
  C   C2        1.0  0.1495907245972532  0.0037045431915530007  0.1027036569862005  1.0000
  C   C3        1.0  0.1496488575903925  0.8968420787277793  0.9015149580396695  1.0000
  C   C4        1.0  0.6495397504179792  0.9011215656855783  0.003290541748874989  1.0000
  C   C5        1.0  0.6495952410023378  0.9962956508519697  0.8972942809855411  1.0000
  C   C6        1.0  0.6496507315867035  0.1031581153157433  0.09848297993207211  1.0000
  C   C7        1.0  0.1500557885423746  0.10300267993707733  0.09905369693147752  1.0000
  C   C8        1.0  0.1500161524106858  0.900783953357724  0.004199821227260351  1.0000
  C   C9        1.0  0.1502090482515612  0.9956296186111262  0.8976838269378008  1.0000
  C   C10       1.0  0.6500616261518457  0.8969966784323662  0.9009445428865703  1.0000
  C   C11       1.0  0.6500180264069968  0.09921456933764013  0.9957994401204218  1.0000
  C   C12       1.0  0.6502109222478649  0.0043714111064759  0.1023152485543193  1.0000
  C   C13       1.0  0.1509119289868011  0.20204510041447324  0.9880574548491907  1.0000
  C   C14       1.0  0.1511272853022945  0.012525918767913402  0.2142068240834902  1.0000
  C   C15       1.0  0.1509687407755465  0.7848985218210629  0.7983672170098473  1.0000
  C   C16       1.0  0.6509111605743243  0.7979550936290495  0.011939763439208754  1.0000
  C   C17       1.0  0.6511291592985983  0.9874751109496887  0.7857944104586495  1.0000
  C   C18       1.0  0.6509653299542961  0.2151016722224597  0.201632880011914  1.0000
  C   C19       1.0  0.0179366707924373  0.3874586153116297  0.055773928022851686  1.0000
  C   C20       1.0  0.0182312993713083  0.9445039141410305  0.3308687256923193  1.0000
  C   C21       1.0  0.0184545829131366  0.6684256114069741  0.6130886603274492  1.0000
  C   C22       1.0  0.5179345811755738  0.6125407430578136  0.9442235921118539  1.0000
  C   C23       1.0  0.5182305309588315  0.0554987869247299  0.6691333445238997  1.0000
  C   C24       1.0  0.5184551357050537  0.3315729112883901  0.38690988133689075  1.0000
  C   C25       1.0  0.831529049055618  0.3480766386716426  0.8891048900447062  1.0000
  C   C26       1.0  0.8314246739088418  0.1114772507707116  0.4592370060978439  1.0000
  C   C27       1.0  0.8314141042737262  0.540791437995729  0.6520445135282742  1.0000
  C   C28       1.0  0.33154170830759705  0.6519227196978009  0.11089622850668951  1.0000
  C   C29       1.0  0.3314307271388728  0.8885221075987246  0.5407626730868742  1.0000
  C   C30       1.0  0.331421478708144  0.4592045776773972  0.3479556533583121  1.0000
  C   C31       1.0  0.842341785779638  0.3826442969433614  0.002257736812808287  1.0000
  C   C32       1.0  0.8425175059634424  0.9978700608165242  0.38000160111715103  1.0000
  C   C33       1.0  0.84259677822682  0.6195035794828102  0.6173854709216827  1.0000
  C   C34       1.0  0.3423491602140558  0.6173558971001613  0.9977423602089531  1.0000
  C   C35       1.0  0.3425209167847  0.0021309689010707  0.6200003531083239  1.0000
  C   C36       1.0  0.3425988678436838  0.38049577888663333  0.3826142082630355  1.0000
  C   C37       1.0  0.6854051647765187  0.4095805795270025  0.06364959167066087  1.0000
  C   C38       1.0  0.6857896352538759  0.9359900666256848  0.34527750902353205  1.0000
  C   C39       1.0  0.685857016677744  0.6541222138733361  0.5903565369474677  1.0000
  C   C40       1.0  0.1854019695758282  0.5904204501905994  0.9363581200215307  1.0000
  C   C41       1.0  0.18579172487073944  0.0640084560696792  0.6547231916908275  1.0000
  C   C42       1.0  0.18585382147704615  0.3458788158442587  0.40964109917797487  1.0000
  C   C43       1.0  0.5255275428022799  0.3956498926325339  0.008799397557723458  1.0000
  C   C44       1.0  0.5257693232055658  0.990790230020494  0.3866999009044535  1.0000
  C   C45       1.0  0.525812922950422  0.6131700056391908  0.6042021312830742  1.0000
  C   C46       1.0  0.0255283112147566  0.6043486300628303  0.9912056212566754  1.0000
  C   C47       1.0  0.025770091618042595  0.009207457000791  0.6132982229228503  1.0000
  C   C48       1.0  0.025813691362898794  0.3868285170561735  0.3957928119645757  1.0000
  C   C49       1.0  0.5266452817158367  0.3591710477424854  0.8953048473689051  1.0000
  C   C50       1.0  0.5265990395621996  0.10478517274727041  0.46434148885654025  1.0000
  C   C51       1.0  0.5265726154744073  0.53602224602772  0.6407891007036781  1.0000
  C   C52       1.0  0.0266579409678158  0.6408341603455129  0.10470711255850776  1.0000
  C   C53       1.0  0.0266090564053982  0.8952133499480937  0.5356563331244645  1.0000
  C   C54       1.0  0.026572062682497195  0.4639771123417234  0.3592062603810078  1.0000
  N   N1        1.0  0.046536782212882585  0.2860829928060796  0.06129266588846603  1.0000
  N   N2        1.0  0.0462355476120635  0.9392324820516295  0.2244381193993307  1.0000
  N   N3        1.0  0.047206632838381786  0.7750801870686317  0.7148096149448974  1.0000
  N   N4        1.0  0.5465412986179672  0.7139172012374431  0.9387052720832756  1.0000
  N   N5        1.0  0.5462374216083743  0.06076854766596541  0.7755623954594668  1.0000
  N   N6        1.0  0.5472085068346857  0.22491917130081163  0.2851879051898081  1.0000
  N   N7        1.0  0.6773220363212927  0.3382725103785518  0.8367015664523194  1.0000
  N   N8        1.0  0.6771132860277476  0.1638698371443468  0.5022177541245298  1.0000
  N   N9        1.0  0.6770828983267876  0.498210500981898  0.6618630770472649  1.0000
  N   N10       1.0  0.1773386591864394  0.6617293550131294  0.1633015252935409  1.0000
  N   N11       1.0  0.1771193392577786  0.8361295212250968  0.4977812053768532  1.0000
  N   N12       1.0  0.1770889515568186  0.5017905287357038  0.3381352787615199  1.0000
  N   N13       1.0  0.3348407556682815  0.3334957973438293  0.6672128141091208  1.0000
  N   N14       1.0  0.8348571629128756  0.666503561025614  0.33278542570891995  1.0000
  N   N15       1.0  0.17777729904376824  0.3334999757142257  0.6671609270438665  1.0000
  N   N16       1.0  0.6777593549742347  0.666500218329297  0.3328398896612299  1.0000
  N   N17       1.0  0.02088824139868  0.333504154084622  0.6671018431452254  1.0000
  N   N18       1.0  0.5209020062344933  0.6664968756329799  0.3329001110802566  1.0000
  O   O1        1.0  0.24327864906415897  0.20665300728526154  0.9157244885292785  1.0000
  O   O2        1.0  0.2440660868803235  0.08488860860387602  0.2912748188755288  1.0000
  O   O3        1.0  0.2428954997911887  0.7072217805176777  0.7932373746057308  1.0000
  O   O4        1.0  0.7432844866736303  0.7933488581064196  0.08427572448322003  1.0000
  O   O5        1.0  0.7440692820810211  0.915109078417409  0.7087218655850976  1.0000
  O   O6        1.0  0.7428934101743252  0.292779249199917  0.206760981203054  1.0000
