data_image0
_chemical_formula_structural       Er4H32C20O36
_chemical_formula_sum              "Er4 H32 C20 O36"
_cell_length_a       6.630609301058597
_cell_length_b       11.504118206526613
_cell_length_c       11.591718285558532
_cell_angle_alpha    97.09316157902985
_cell_angle_beta     90.00047727902722
_cell_angle_gamma    90.00001122984732

_space_group_name_H-M_alt    "P 1"
_space_group_IT_number       1

loop_
  _space_group_symop_operation_xyz
  'x, y, z'

loop_
  _atom_site_type_symbol
  _atom_site_label
  _atom_site_symmetry_multiplicity
  _atom_site_fract_x
  _atom_site_fract_y
  _atom_site_fract_z
  _atom_site_occupancy
  Er  Er1       1.0  0.9842411349064761  0.3036133989671583  0.16705165958315144  1.0000
  Er  Er2       1.0  0.4842506543321576  0.6963898109394081  0.33294139488932456  1.0000
  Er  Er3       1.0  0.0157619101609114  0.6963919875652138  0.8329410187870747  1.0000
  Er  Er4       1.0  0.515756915281834  0.30361561688483363  0.667061640690562  1.0000
  H   H1        1.0  0.10383178611686361  0.47930494474293556  0.36110688457733886  1.0000
  H   H2        1.0  0.6038219306212441  0.5207058734763877  0.13888439911553965  1.0000
  H   H3        1.0  0.8961923731812574  0.5207013349524133  0.6388902133024741  1.0000
  H   H4        1.0  0.39619016340283514  0.4793135282777642  0.8611099426202384  1.0000
  H   H5        1.0  0.8232854439658438  0.11420148626539373  0.2893804458872323  1.0000
  H   H6        1.0  0.32328419559473076  0.8857981220352046  0.21061572831611378  1.0000
  H   H7        1.0  0.17669045427138028  0.8857942682353869  0.7106119519683601  1.0000
  H   H8        1.0  0.6766871782424745  0.11419942221566973  0.7893863715452907  1.0000
  H   H9        1.0  0.22722885595999295  0.0214976402475031  0.9460250068108631  1.0000
  H   H10       1.0  0.727233001221002  0.9784961069606768  0.5539787402026233  1.0000
  H   H11       1.0  0.7727666483553577  0.9784911307369982  0.053972601119660554  1.0000
  H   H12       1.0  0.2727640113090644  0.021505827377716003  0.4460264688154536  1.0000
  H   H13       1.0  0.2741275707668933  0.15248543393840922  0.8820169514454005  1.0000
  H   H14       1.0  0.7741326044292904  0.8475030807493908  0.6179838097631956  1.0000
  H   H15       1.0  0.7258603927840283  0.8475050992682684  0.11798345368448074  1.0000
  H   H16       1.0  0.22585234282743727  0.15249446694719637  0.3820191532309776  1.0000
  H   H17       1.0  0.5070605985076426  0.24036392911061455  0.0092320767530865  1.0000
  H   H18       1.0  0.0070694251519186  0.7596319976203961  0.4907742327780225  1.0000
  H   H19       1.0  0.4929303813798498  0.7596301182243435  0.9907713335196886  1.0000
  H   H20       1.0  0.9929245710515103  0.240369929835211  0.509229250032966  1.0000
  H   H21       1.0  0.5238092010472926  0.11380294263925354  0.08336051779360787  1.0000
  H   H22       1.0  0.023818498286097195  0.8861938616872822  0.41664338755285957  1.0000
  H   H23       1.0  0.476195352229162  0.8861919668882904  0.9166395440714649  1.0000
  H   H24       1.0  0.9761785142062038  0.11380805200598594  0.5833566428658654  1.0000
  H   H25       1.0  0.0142265293975399  0.05772946949168301  0.21700223271183455  1.0000
  H   H26       1.0  0.5142219370164725  0.9422655623174022  0.28299796585087467  1.0000
  H   H27       1.0  0.9857569096895061  0.9422619431053935  0.782999139465957  1.0000
  H   H28       1.0  0.48575848572155417  0.05773458570420331  0.7169984042101373  1.0000
  H   H29       1.0  0.8670014383815713  0.4891117449479623  0.35662626842441353  1.0000
  H   H30       1.0  0.36699304763277496  0.5108975266067689  0.14337039803519494  1.0000
  H   H31       1.0  0.1330227209453696  0.51089805231544  0.6433746976908734  1.0000
  H   H32       1.0  0.6330130137982479  0.4891192679368715  0.8566288104083878  1.0000
  C   C1        1.0  0.46992660868883007  0.2747260254818117  0.19500935162871255  1.0000
  C   C2        1.0  0.9699313113143903  0.7252701975538186  0.3049905696986456  1.0000
  C   C3        1.0  0.5300764364134593  0.725264497407693  0.8049884642380359  1.0000
  C   C4        1.0  0.030070225682209198  0.27472735703040035  0.6950141195355071  1.0000
  C   C5        1.0  0.9648095174485506  0.12946341444156675  0.9268137151067674  1.0000
  C   C6        1.0  0.4648213410836989  0.8705269883919301  0.5731881779806327  1.0000
  C   C7        1.0  0.0351769379975124  0.8705288981937256  0.07319380273656147  1.0000
  C   C8        1.0  0.5351681305892697  0.12947228024089705  0.42680722504343277  1.0000
  C   C9        1.0  0.1877423320168603  0.1149734202477219  0.9497565255877443  1.0000
  C   C10       1.0  0.6877403580483589  0.8850185434022464  0.5502459590621525  1.0000
  C   C11       1.0  0.8122501559826176  0.885013598833382  0.0502408744175185  1.0000
  C   C12       1.0  0.3122445892201142  0.114984263442139  0.44975849078578256  1.0000
  C   C13       1.0  0.44290561777829407  0.19700183325942797  0.08032774547751838  1.0000
  C   C14       1.0  0.9429225767934142  0.802992622012802  0.4196727001319686  1.0000
  C   C15       1.0  0.5570823457735372  0.8029895758984084  0.9196727636113448  1.0000
  C   C16       1.0  0.05707896018255099  0.19700929856379906  0.5803290564975041  1.0000
  C   C17       1.0  0.8858764775790178  0.5076723012124804  0.004808969386388615  1.0000
  C   C18       1.0  0.3858732114125658  0.49233348346638206  0.49518823580812893  1.0000
  C   C19       1.0  0.1141431572436176  0.49234185515997103  0.9951873379134706  1.0000
  C   C20       1.0  0.6141449153356503  0.5076693371532741  0.5048196665197577  1.0000
  O   O1        1.0  0.6480658309756676  0.3020185392383539  0.2271292095208465  1.0000
  O   O2        1.0  0.14806995035195308  0.6979818404672218  0.27287139823177836  1.0000
  O   O3        1.0  0.35193872222790645  0.697972828635166  0.7728609424095081  1.0000
  O   O4        1.0  0.8519270622301535  0.30200961686580297  0.7271411942774929  1.0000
  O   O5        1.0  0.31056459428129557  0.30754019517483044  0.2510082417777609  1.0000
  O   O6        1.0  0.8105714852258076  0.6924576659008111  0.24899111528837634  1.0000
  O   O7        1.0  0.6894429753424234  0.6924503552431179  0.7489964788990872  1.0000
  O   O8        1.0  0.1894270354594667  0.30754251653579706  0.7510138858154033  1.0000
  O   O9        1.0  0.9811309720335615  0.44089733158003963  0.3235838153482006  1.0000
  O   O10       1.0  0.481126096017114  0.5591172324965754  0.17640280758686083  1.0000
  O   O11       1.0  0.018884138340318705  0.5591019542662183  0.6764159032374406  1.0000
  O   O12       1.0  0.5188829816830491  0.4409047902282666  0.8235901198187531  1.0000
  O   O13       1.0  0.9523441917416449  0.1343039022057511  0.25030040196170217  1.0000
  O   O14       1.0  0.4523374738068355  0.8656984399213883  0.24970016185568503  1.0000
  O   O15       1.0  0.04764980445723668  0.8656936454940621  0.7497025610543984  1.0000
  O   O16       1.0  0.5476489815583818  0.13430083215121874  0.7502961042609682  1.0000
  O   O17       1.0  0.23200781800846226  0.17552690597231904  0.06195767237269928  1.0000
  O   O18       1.0  0.7320054463033118  0.8244735405886273  0.43804506830268486  1.0000
  O   O19       1.0  0.7680042761160593  0.8244680379664617  0.9380510205095615  1.0000
  O   O20       1.0  0.2679825172666241  0.1755292593751321  0.5619576553527705  1.0000
  O   O21       1.0  0.7967132274223728  0.4492908891007233  0.07493817356415627  1.0000
  O   O22       1.0  0.2967164992430043  0.5507173977920489  0.4250433756868686  1.0000
  O   O23       1.0  0.20331998064276752  0.5507345548568807  0.9250344553384191  1.0000
  O   O24       1.0  0.7033106764517073  0.44927141793486686  0.5749654526189827  1.0000
  O   O25       1.0  0.888750999437633  0.06802440551238222  0.8389801321105349  1.0000
  O   O26       1.0  0.388756584379081  0.9319536693368067  0.6610173476968269  1.0000
  O   O27       1.0  0.1112294234071243  0.9319512881347123  0.16103145219685183  1.0000
  O   O28       1.0  0.6112253465052006  0.06804822370595082  0.3389775040860029  1.0000
  O   O29       1.0  0.8679350772079745  0.2031692236460431  0.996127966012558  1.0000
  O   O30       1.0  0.3679458645598713  0.7968184717949145  0.5038705564931475  1.0000
  O   O31       1.0  0.1320694760649062  0.7968283102941245  0.0038715446295541057  1.0000
  O   O32       1.0  0.632046623444289  0.20318518347649225  0.4961270925328945  1.0000
  O   O33       1.0  0.19389973005750252  0.42332498328507756  0.05936933807349479  1.0000
  O   O34       1.0  0.6939108842639145  0.576695589811088  0.4406373352391738  1.0000
  O   O35       1.0  0.8061063312243988  0.5767057370149049  0.9406090931165276  1.0000
  O   O36       1.0  0.3061117670497211  0.4233011542057314  0.5593836489851112  1.0000
