data_image0
_chemical_formula_structural       Zn4H32C65N18O3
_chemical_formula_sum              "Zn4 H32 C65 N18 O3"
_cell_length_a       19.162196196305874
_cell_length_b       20.09151955315806
_cell_length_c       19.98513793932561
_cell_angle_alpha    104.1419514629763
_cell_angle_beta     112.31034469443634
_cell_angle_gamma    109.61390294696281

_space_group_name_H-M_alt    "P 1"
_space_group_IT_number       1

loop_
  _space_group_symop_operation_xyz
  'x, y, z'

loop_
  _atom_site_type_symbol
  _atom_site_label
  _atom_site_symmetry_multiplicity
  _atom_site_fract_x
  _atom_site_fract_y
  _atom_site_fract_z
  _atom_site_occupancy
  Zn  Zn1       1.0  0.11534749383026364  0.5012231263407756  0.1179186803779757  1.0000
  Zn  Zn2       1.0  0.8938979701003545  0.504284322447518  0.8846224603943469  1.0000
  Zn  Zn3       1.0  0.8912935949503833  0.3921774564685165  0.9907173405004883  1.0000
  Zn  Zn4       1.0  0.11881748544349333  0.6096893471864959  0.012723899881613867  1.0000
  H   H1        1.0  0.13987846707653517  0.3492185798548774  0.11304876063672252  1.0000
  H   H2        1.0  0.7420789235206158  0.5405519126780903  0.9149538655874779  1.0000
  H   H3        1.0  0.8597231898085694  0.5118040685049011  0.10064222620236764  1.0000
  H   H4        1.0  0.10872171141917852  0.7331934131954937  0.13896441706287987  1.0000
  H   H5        1.0  0.8628040329588983  0.6623832252699631  0.9373189397719841  1.0000
  H   H6        1.0  0.09976878287683623  0.5499801902634472  0.28640743663373774  1.0000
  H   H7        1.0  0.27245484851972185  0.7916460222750104  0.16352039035794536  1.0000
  H   H8        1.0  0.6896257765945604  0.33801545145028883  0.9673913614186488  1.0000
  H   H9        1.0  0.8724799491843241  0.5712112044330055  0.5272904040555771  1.0000
  H   H10       1.0  0.8435610153814466  0.5645791363800257  0.3932252528950927  1.0000
  H   H11       1.0  0.14424487146871426  0.673797896226162  0.6121865491177728  1.0000
  H   H12       1.0  0.38192344691764646  0.880568481755553  0.5313763948445073  1.0000
  H   H13       1.0  0.500921246542212  0.9970804807299132  0.6570437148695801  1.0000
  H   H14       1.0  0.4805101560146951  0.14420202510070368  0.5334456695276514  1.0000
  H   H15       1.0  0.36251134982460087  0.02777841537638182  0.4079795139382156  1.0000
  H   H16       1.0  0.14824649853829186  0.1316493803942294  0.21313699338825387  1.0000
  H   H17       1.0  0.13835672762598958  0.005101366850247793  0.2121486304279756  1.0000
  H   H18       1.0  0.8742615591560677  0.017837239394076214  0.0547210266143168  1.0000
  H   H19       1.0  0.8105717048858947  0.23218135463468306  0.8559492285203021  1.0000
  H   H20       1.0  0.17369566857593088  0.5216111817497335  0.9049049300723624  1.0000
  H   H21       1.0  0.26426277193928627  0.4512488395039114  0.09570439688236122  1.0000
  H   H22       1.0  0.8664555130589946  0.22975190908636733  0.024250188163392687  1.0000
  H   H23       1.0  0.18949651518298796  0.6561653854795753  0.28253284978889337  1.0000
  H   H24       1.0  0.8794995653047265  0.38790598949348254  0.6634454452080972  1.0000
  H   H25       1.0  0.8953914291919246  0.4559957433682771  0.6193552969035708  1.0000
  H   H26       1.0  0.7920643553722823  0.403193094553245  0.608464821405498  1.0000
  H   H27       1.0  0.6089506042055675  0.3319146789746485  0.7297580115340808  1.0000
  H   H28       1.0  0.5982157518088653  0.2803010299137015  0.636320537604135  1.0000
  H   H29       1.0  0.6133124634640266  0.3784142491058444  0.6640737066176284  1.0000
  H   H30       1.0  0.2023938837065769  0.7100852700731224  0.8079826514496773  1.0000
  H   H31       1.0  0.2076303622505406  0.6211159498288411  0.7997765411953922  1.0000
  H   H32       1.0  0.29420684537909353  0.7122301344609098  0.8823589773729026  1.0000
  C   C1        1.0  0.07184820319994145  0.33102572652123996  0.0884343266424708  1.0000
  C   C2        1.0  0.03641026881629019  0.584240278527041  0.7742189079020393  1.0000
  C   C3        1.0  0.7316715430437029  0.26618177766872714  0.7687740336266913  1.0000
  C   C4        1.0  0.24132581450822949  0.4770841139110119  0.9877578245914692  1.0000
  C   C5        1.0  0.20331127274648234  0.6762094630116025  0.24110387945118109  1.0000
  C   C6        1.0  0.7425096114411998  0.4912408514948936  0.9279316479478013  1.0000
  C   C7        1.0  0.9216378000070476  0.516132220316436  0.13576056459169186  1.0000
  C   C8        1.0  0.04878904787650374  0.7035725486216079  0.08259857113763057  1.0000
  C   C9        1.0  0.9225501560471298  0.6673913019480437  0.9794069839276887  1.0000
  C   C10       1.0  0.04481265431236632  0.5353008317717353  0.23057363430708486  1.0000
  C   C11       1.0  0.24690606994443695  0.7464006055866365  0.18115024902517984  1.0000
  C   C12       1.0  0.9647081628449211  0.5349430385465154  0.7766915761381553  1.0000
  C   C13       1.0  0.7151378077907677  0.3873788132462863  0.9547118430640752  1.0000
  C   C14       1.0  0.2481205228773931  0.7541173029211947  0.25370164852761695  1.0000
  C   C15       1.0  0.6815801530671094  0.43796988302928963  0.9384234126008907  1.0000
  C   C16       1.0  0.9725971268442134  0.5458345143351194  0.21936628669110542  1.0000
  C   C17       1.0  0.986149236078006  0.7275765614356117  0.05645114902782909  1.0000
  C   C18       1.0  0.2968254756507988  0.4616700693785775  0.9648343647719672  1.0000
  C   C19       1.0  0.35108504401587476  0.45202102970844754  0.9512625486253229  1.0000
  C   C20       1.0  0.41342147305742555  0.44452069574603564  0.94050382966104  1.0000
  C   C21       1.0  0.47422181797779217  0.44019328004744557  0.9353419515933298  1.0000
  C   C22       1.0  0.5423437931754904  0.43757656043499077  0.9332841400710734  1.0000
  C   C23       1.0  0.8036584920662051  0.2757079066504889  0.8346129411031245  1.0000
  C   C24       1.0  0.6068710085733143  0.43680761295618714  0.9347401242592568  1.0000
  C   C25       1.0  0.9092648376838992  0.5888444628224008  0.441342685236414  1.0000
  C   C26       1.0  0.9764856056343444  0.6126556117333307  0.4246960947706169  1.0000
  C   C27       1.0  0.062371621271942713  0.6467443003107431  0.48926864313769153  1.0000
  C   C28       1.0  0.07841747062236228  0.6500567123102173  0.5646380455552561  1.0000
  C   C29       1.0  0.01000300698390776  0.6199431554835043  0.578397952256921  1.0000
  C   C30       1.0  0.9254510231025462  0.5922467818565665  0.5161397955378391  1.0000
  C   C31       1.0  0.9625415588338696  0.5964634326873296  0.34676081239861395  1.0000
  C   C32       1.0  0.023931585956645872  0.6129264104757866  0.6503249084516655  1.0000
  C   C33       1.0  0.03331210355393204  0.6004644789519915  0.7092825539175324  1.0000
  C   C34       1.0  0.1864170108792961  0.5072995099737981  0.9557381557455074  1.0000
  C   C35       1.0  0.9602413107185795  0.5748166280992494  0.28289857059258594  1.0000
  C   C36       1.0  0.4706306699252635  0.003637180545013097  0.6023781577382791  1.0000
  C   C37       1.0  0.5027970435375265  0.07824325481259826  0.6028101943042755  1.0000
  C   C38       1.0  0.45911444894673537  0.08630345505407186  0.5327276118918506  1.0000
  C   C39       1.0  0.39317508620106867  0.02131208063713788  0.4626163586587921  1.0000
  C   C40       1.0  0.3682628679602117  0.9456126486280709  0.4598656878317726  1.0000
  C   C41       1.0  0.4043462540857161  0.9385096252972787  0.5322486450517658  1.0000
  C   C42       1.0  0.5806131263766474  0.14282492244959857  0.6677238089849951  1.0000
  C   C43       1.0  0.3165260771933872  0.8787806020562955  0.385738138744884  1.0000
  C   C44       1.0  0.28426026264563836  0.8217773453093784  0.3232666369139638  1.0000
  C   C45       1.0  0.7597968511673726  0.34186578215275193  0.7700436721495052  1.0000
  C   C46       1.0  0.6516366930060042  0.19923756395720457  0.7153000227311921  1.0000
  C   C47       1.0  0.080612435825671  0.008166624428561432  0.17795743591256044  1.0000
  C   C48       1.0  0.001657309061947371  0.9382751554916595  0.13042385255984362  1.0000
  C   C49       1.0  0.9263131781682431  0.9438733495018354  0.08858439623126925  1.0000
  C   C50       1.0  0.9321357610443924  0.015235144967789363  0.08934112014944867  1.0000
  C   C51       1.0  0.012354892818969178  0.08320825542902811  0.13137922352461123  1.0000
  C   C52       1.0  0.08611812464560836  0.07889709161150188  0.17834838234085026  1.0000
  C   C53       1.0  0.9968431449993603  0.8643014178286351  0.11689066014086087  1.0000
  C   C54       1.0  0.01660232524393726  0.1513309518017252  0.12116737307344752  1.0000
  C   C55       1.0  0.013915465467945882  0.20420806370215416  0.10223332183262808  1.0000
  C   C56       1.0  0.23313873121456646  0.4717794604094721  0.053933305539352695  1.0000
  C   C57       1.0  0.9911924094531912  0.7996314445945105  0.09249388219615183  1.0000
  C   C58       1.0  0.103748779243716  0.6187875017475903  0.8550024600558856  1.0000
  C   C59       1.0  0.931920855575825  0.2697237756433281  0.04296629381708775  1.0000
  C   C60       1.0  0.00710641351357569  0.2635833553963707  0.07961603845414093  1.0000
  C   C61       1.0  0.13204028560604544  0.6732138151123125  0.4748838178240293  1.0000
  C   C62       1.0  0.8616007300088453  0.43100305974957104  0.6481272812354675  1.0000
  C   C63       1.0  0.8445288068197809  0.8753568774794116  0.042065831411875275  1.0000
  C   C64       1.0  0.6294446565910619  0.33776300301504864  0.6861155845837105  1.0000
  C   C65       1.0  0.22467188370728042  0.6786361593828403  0.8416647431222232  1.0000
  N   N1        1.0  0.038107681322941296  0.3738988811640525  0.06052106965660905  1.0000
  N   N2        1.0  0.8059081165446572  0.47348606033735074  0.9368211705327668  1.0000
  N   N3        1.0  0.960479102393286  0.4895269920374475  0.10034290259945083  1.0000
  N   N4        1.0  0.025655527667211655  0.6357940458663336  0.025074704720687204  1.0000
  N   N5        1.0  0.9474938540376809  0.6140173555692242  0.9617770592488171  1.0000
  N   N6        1.0  0.036269242637452195  0.5015936356414912  0.15950715902736332  1.0000
  N   N7        1.0  0.20474574512056878  0.670164475081755  0.1302590046259199  1.0000
  N   N8        1.0  0.7887195114256399  0.409354971697745  0.9532419487696018  1.0000
  N   N9        1.0  0.9871174532945515  0.5402651797229866  0.8503339906981611  1.0000
  N   N10       1.0  0.8684700149796853  0.3500656901832216  0.8725228529894693  1.0000
  N   N11       1.0  0.15006585627344998  0.5199545193258075  0.00011892972953118866  1.0000
  N   N12       1.0  0.8404967200258326  0.3897858777279239  0.830620669154257  1.0000
  N   N13       1.0  0.17940050208681405  0.49807395223950834  0.06045746856773351  1.0000
  N   N14       1.0  0.07345503163395498  0.593677194509617  0.8995601305665987  1.0000
  N   N15       1.0  0.9518010104360072  0.33581844850853315  0.03273860002102681  1.0000
  N   N16       1.0  0.17755245570813113  0.6267365938261733  0.16751674047357312  1.0000
  N   N17       1.0  0.18876821697229917  0.6940575433839058  0.46250909804467  1.0000
  N   N18       1.0  0.7771921899435056  0.8196236709889959  0.0035817102389401737  1.0000
  O   O1        1.0  0.8809175469043563  0.49162510196040177  0.719225942599813  1.0000
  O   O2        1.0  0.7217074483731946  0.3722450473085671  0.7237930027613756  1.0000
  O   O3        1.0  0.1878926639628059  0.6700337021469309  0.8920161217489947  1.0000
