data_image0
_chemical_formula_structural       Ag8H12C28N4O16
_chemical_formula_sum              "Ag8 H12 C28 N4 O16"
_cell_length_a       6.7134925474742
_cell_length_b       10.223112395025945
_cell_length_c       10.96492618006755
_cell_angle_alpha    90.000105031495
_cell_angle_beta     89.99960082640585
_cell_angle_gamma    98.53458186073928

_space_group_name_H-M_alt    "P 1"
_space_group_IT_number       1

loop_
  _space_group_symop_operation_xyz
  'x, y, z'

loop_
  _atom_site_type_symbol
  _atom_site_label
  _atom_site_symmetry_multiplicity
  _atom_site_fract_x
  _atom_site_fract_y
  _atom_site_fract_z
  _atom_site_occupancy
  Ag  Ag1       1.0  0.2652003200266365  0.38057060753841654  0.04971828102100769  1.0000
  Ag  Ag2       1.0  0.23479960949725864  0.6194270681948952  0.5497191753358949  1.0000
  Ag  Ag3       1.0  0.7347894531205555  0.6194295839418802  0.9502844174231415  1.0000
  Ag  Ag4       1.0  0.7652014281551658  0.380569422107449  0.4502826110823008  1.0000
  Ag  Ag5       1.0  0.9427587389324686  0.33761689079183543  0.6905109001121303  1.0000
  Ag  Ag6       1.0  0.5572385637052264  0.6623849044923205  0.1905140989617351  1.0000
  Ag  Ag7       1.0  0.057241330004636444  0.6623825337116076  0.3094890623128919  1.0000
  Ag  Ag8       1.0  0.44275552149692027  0.3376143933573489  0.8094885994724733  1.0000
  H   H1        1.0  0.35909701521557486  0.9852239030900736  0.4489962391854619  1.0000
  H   H2        1.0  0.14090610873854817  0.014775288410092503  0.9489992609009406  1.0000
  H   H3        1.0  0.6409090374666846  0.014775648066290607  0.5509991632326887  1.0000
  H   H4        1.0  0.8590936943969965  0.9852310247841416  0.05100343752692281  1.0000
  H   H5        1.0  0.3992610280559746  0.9271353952126944  0.23037083020650329  1.0000
  H   H6        1.0  0.10074286683449431  0.072862574050589  0.7303732081441794  1.0000
  H   H7        1.0  0.6007422085063469  0.07286508123763012  0.7696236602195726  1.0000
  H   H8        1.0  0.8992648575073972  0.9271379973918601  0.26962310627009606  1.0000
  H   H9        1.0  0.3744369511574135  0.09993122353808563  0.0714653383612998  1.0000
  H   H10       1.0  0.12556704745180272  0.9000655786530345  0.571466254852325  1.0000
  H   H11       1.0  0.6255608288692757  0.9000720921245957  0.9285328000741586  1.0000
  H   H12       1.0  0.8744449889246583  0.09993409916047113  0.4285337075473876  1.0000
  C   C1        1.0  0.29397063107502674  0.2751431904285369  0.3128644541369567  1.0000
  C   C2        1.0  0.206024511035821  0.7248527194738941  0.8128665590905442  1.0000
  C   C3        1.0  0.7060292621221793  0.7248552454534192  0.6871364202864569  1.0000
  C   C4        1.0  0.7939740619662744  0.27514667336620857  0.18713431533647912  1.0000
  C   C5        1.0  0.3103934182193201  0.18530238205740093  0.4083916630638883  1.0000
  C   C6        1.0  0.18960664033510718  0.8146937427411348  0.9083930759705511  1.0000
  C   C7        1.0  0.6896096425725345  0.8146971057739806  0.5916092113536493  1.0000
  C   C8        1.0  0.8103939557962291  0.1853086476288439  0.09160871045351371  1.0000
  C   C9        1.0  0.3470323471411946  0.05822576319223322  0.37818698919359417  1.0000
  C   C10       1.0  0.15296620147915976  0.941768324797515  0.8781878584189118  1.0000
  C   C11       1.0  0.6529645541961742  0.9417726093622106  0.6218138852361506  1.0000
  C   C12       1.0  0.84703835526809  0.05823119469550872  0.1218084560012471  1.0000
  C   C13       1.0  0.3684196993136696  0.024686461184288102  0.2568919813590043  1.0000
  C   C14       1.0  0.1315848680017312  0.9753085983748239  0.7568929977522744  1.0000
  C   C15       1.0  0.6315850331480065  0.9753140469323257  0.7431079810569727  1.0000
  C   C16       1.0  0.868415818196361  0.024685914682457608  0.24310605266848748  1.0000
  C   C17       1.0  0.35087231818013725  0.11911675121784535  0.1676420667023137  1.0000
  C   C18       1.0  0.1491334220181173  0.8808792145201991  0.6676428506767564  1.0000
  C   C19       1.0  0.6491294224216944  0.8808836935712564  0.8323578957199944  1.0000
  C   C20       1.0  0.8508662954188111  0.11911823274197532  0.3323625837404265  1.0000
  C   C21       1.0  0.2528316657159522  0.41266990571352846  0.3416318361442734  1.0000
  C   C22       1.0  0.24715567536878782  0.5873258724411274  0.8416289761740642  1.0000
  C   C23       1.0  0.7471609235715563  0.5873293604711236  0.6583681262965656  1.0000
  C   C24       1.0  0.7528389370683471  0.4126763912717094  0.1583682502684312  1.0000
  C   C25       1.0  0.2799230016180517  0.2182318344296307  0.5409453154862334  1.0000
  C   C26       1.0  0.2200770259220874  0.7817658331998204  0.040946195111971  1.0000
  C   C27       1.0  0.7200755713891384  0.7817675584100529  0.45905464694195086  1.0000
  C   C28       1.0  0.779921898549624  0.21823553688408032  0.9590546793159547  1.0000
  N   N1        1.0  0.3123131240934498  0.2412341212227744  0.1946939605258535  1.0000
  N   N2        1.0  0.18768650588406643  0.7587627314706182  0.6946943762846233  1.0000
  N   N3        1.0  0.6876828085082282  0.7587671855344527  0.8053087379060884  1.0000
  N   N4        1.0  0.812318578042124  0.2412397538902198  0.3053064981311024  1.0000
  O   O1        1.0  0.18539895623207062  0.48005962120504364  0.25752659077659973  1.0000
  O   O2        1.0  0.3145932850978639  0.5199332083852753  0.7575251547533314  1.0000
  O   O3        1.0  0.8145996167700247  0.519939771635059  0.7424742836504309  1.0000
  O   O4        1.0  0.6854015931153512  0.48006216663887363  0.24247389568053992  1.0000
  O   O5        1.0  0.28743424359753794  0.4479823041727259  0.4510351731424081  1.0000
  O   O6        1.0  0.21255953056487445  0.5520147219814222  0.9510314898014515  1.0000
  O   O7        1.0  0.7125628334746352  0.5520170570036173  0.5489657012877842  1.0000
  O   O8        1.0  0.7874289224177746  0.44798642645448444  0.04896573665324411  1.0000
  O   O9        1.0  0.4349180143948885  0.23882027733020555  0.607276502079344  1.0000
  O   O10       1.0  0.06508593556939961  0.7611785351856851  0.1072798323434014  1.0000
  O   O11       1.0  0.5650848706723508  0.7611782218784315  0.3927225483400534  1.0000
  O   O12       1.0  0.9349133403770155  0.23882481214159415  0.8927201300865876  1.0000
  O   O13       1.0  0.0955797305383328  0.20891592492046845  0.5738041071446675  1.0000
  O   O14       1.0  0.4044238904911168  0.7910789021856107  0.07380148014328822  1.0000
  O   O15       1.0  0.9044216585887882  0.7910825426252543  0.4261967672755844  1.0000
  O   O16       1.0  0.5955761784409005  0.20892052231825184  0.9261993942805732  1.0000
