data_image0
_chemical_formula_structural       Zn8H24C48S6O44
_chemical_formula_sum              "Zn8 H24 C48 S6 O44"
_cell_length_a       16.086281485071485
_cell_length_b       15.879113215943864
_cell_length_c       15.667615906858554
_cell_angle_alpha    66.58252332518941
_cell_angle_beta     67.24752650746183
_cell_angle_gamma    66.95648802170278

_space_group_name_H-M_alt    "P 1"
_space_group_IT_number       1

loop_
  _space_group_symop_operation_xyz
  'x, y, z'

loop_
  _atom_site_type_symbol
  _atom_site_label
  _atom_site_symmetry_multiplicity
  _atom_site_fract_x
  _atom_site_fract_y
  _atom_site_fract_z
  _atom_site_occupancy
  Zn  Zn1       1.0  0.9828840898735861  0.9736173301715281  0.9908859855758931  1.0000
  Zn  Zn2       1.0  0.9895615702658629  0.9648302514573571  0.18963702435516433  1.0000
  Zn  Zn3       1.0  0.00012827359209669975  0.1593512277516638  0.003553921144124699  1.0000
  Zn  Zn4       1.0  0.17526236400668438  0.9690171138300201  0.007344384177905329  1.0000
  Zn  Zn5       1.0  0.5789518790299867  0.5875559850993779  0.6023689981350624  1.0000
  Zn  Zn6       1.0  0.6094359340237644  0.5373999925800916  0.41172395936169426  1.0000
  Zn  Zn7       1.0  0.4044969481137315  0.5818138410575389  0.5592564756042433  1.0000
  Zn  Zn8       1.0  0.5557534184765202  0.3871569946677909  0.6226234412846309  1.0000
  H   H1        1.0  0.8030353207268918  0.7729882336860217  0.31222240664015993  1.0000
  H   H2        1.0  0.5070054087627013  0.8431702296210872  0.3410219166559188  1.0000
  H   H3        1.0  0.6699829919886681  0.0306748980865663  0.12100663764744019  1.0000
  H   H4        1.0  0.4407015649605767  0.12306538373547939  0.26843104410727386  1.0000
  H   H5        1.0  0.7707777194901267  0.28733449485783774  0.833856901107751  1.0000
  H   H6        1.0  0.8477414076796917  0.37458789269474824  0.5212073079342047  1.0000
  H   H7        1.0  0.043630274053143084  0.15026255274081987  0.6732425340315942  1.0000
  H   H8        1.0  0.06807325165843989  0.3918772562940233  0.40881053721450655  1.0000
  H   H9        1.0  0.30060513705593206  0.7903575874162951  0.7964777194882939  1.0000
  H   H10       1.0  0.32265659528643903  0.49125419281908483  0.8671992460722818  1.0000
  H   H11       1.0  0.11634970775989463  0.656631746191259  0.057430258276653455  1.0000
  H   H12       1.0  0.26784678375661736  0.41308699707889224  0.15225951359258258  1.0000
  H   H13       1.0  0.8258581134147319  0.2384190463119538  0.34947689856080194  1.0000
  H   H14       1.0  0.5285049061345574  0.3312844507768986  0.3767193029387811  1.0000
  H   H15       1.0  0.7241105551423742  0.20080817755719949  0.15292856523580414  1.0000
  H   H16       1.0  0.3928766584674078  0.3889871804036246  0.23789644882594976  1.0000
  H   H17       1.0  0.33370084047968607  0.7935318251334634  0.25839371332801175  1.0000
  H   H18       1.0  0.3776654900046168  0.48774037225700784  0.36458797291508926  1.0000
  H   H19       1.0  0.13920046775994874  0.6714522719587209  0.2529668035636448  1.0000
  H   H20       1.0  0.26141991536469067  0.3319058076991654  0.4329999069855219  1.0000
  H   H21       1.0  0.25712787486280325  0.3145312240148357  0.8204687262650622  1.0000
  H   H22       1.0  0.38373282183446383  0.3192288580606828  0.5208111055111643  1.0000
  H   H23       1.0  0.24855614990573113  0.10060923114498621  0.7216498774647561  1.0000
  H   H24       1.0  0.46159405038836354  0.1673282135777328  0.401005424129309  1.0000
  C   C1        1.0  0.8376934443384128  0.9273970666231931  0.1644692229605269  1.0000
  C   C2        1.0  0.7454285518187477  0.9050064880523294  0.21368521694005682  1.0000
  C   C3        1.0  0.7399618190323309  0.8209355773607853  0.2899912534886297  1.0000
  C   C4        1.0  0.6547158481133621  0.7979393026335726  0.33445026848891507  1.0000
  C   C5        1.0  0.5739488361804844  0.8604183255435345  0.30634634136473665  1.0000
  C   C6        1.0  0.5804854672255927  0.9442494911329504  0.23057414810226354  1.0000
  C   C7        1.0  0.6657166591018466  0.9665854815617506  0.1821985233930193  1.0000
  C   C8        1.0  0.6473940382729354  0.7028353458546235  0.40655408188492004  1.0000
  C   C9        1.0  0.936676542755535  0.15499590162895058  0.8549912709539522  1.0000
  C   C10       1.0  0.9105767370237744  0.2151828171083281  0.7628710693590222  1.0000
  C   C11       1.0  0.8218431011767819  0.2812979965121157  0.7647851231259889  1.0000
  C   C12       1.0  0.7987901066091679  0.3372669209731852  0.6779422438135185  1.0000
  C   C13       1.0  0.864941650907113  0.3305709353193079  0.5893540979787627  1.0000
  C   C14       1.0  0.9526023807971525  0.2637238777666937  0.5892397854471195  1.0000
  C   C15       1.0  0.975812691342213  0.20410068302604858  0.6750011330152642  1.0000
  C   C16       1.0  0.701706739256636  0.4002949320972675  0.6743109087399615  1.0000
  C   C17       1.0  0.1548925016936878  0.8265210701432223  0.9502767664438418  1.0000
  C   C18       1.0  0.20456444167427176  0.7326205734537439  0.929205736346702  1.0000
  C   C19       1.0  0.2784984460669975  0.7266802646329397  0.8450853047104301  1.0000
  C   C20       1.0  0.3192501177011878  0.6403280382775519  0.8218568897172318  1.0000
  C   C21       1.0  0.29128012997337294  0.558732444472831  0.8851877620891597  1.0000
  C   C22       1.0  0.2209296867178381  0.5649870552421701  0.9713092645794744  1.0000
  C   C23       1.0  0.1748217173547033  0.6518614260117771  0.9926922206012488  1.0000
  C   C24       1.0  0.3863912525314176  0.6340829941279934  0.724894375812944  1.0000
  C   C25       1.0  0.8805516199670792  0.1591363754663107  0.19904800002891676  1.0000
  C   C26       1.0  0.784497700634432  0.20946449996619518  0.250410239936258  1.0000
  C   C27       1.0  0.7675135539363822  0.24402850035644252  0.32647574659183193  1.0000
  C   C28       1.0  0.6750734948489169  0.2883803697930247  0.3713753565093822  1.0000
  C   C29       1.0  0.6000562614536163  0.2966050503375257  0.341782650524756  1.0000
  C   C30       1.0  0.6194443563586843  0.26513698492743026  0.26285043361266947  1.0000
  C   C31       1.0  0.7106828127065511  0.22244515636787546  0.21599851973268602  1.0000
  C   C32       1.0  0.6540649412068474  0.33894049871015847  0.4434895383453607  1.0000
  C   C33       1.0  0.17789452745551426  0.8376776519284092  0.19846334345559308  1.0000
  C   C34       1.0  0.23371971007809111  0.7417075631892376  0.24719860111424907  1.0000
  C   C35       1.0  0.3127987964499681  0.7307939914465749  0.2718165052531063  1.0000
  C   C36       1.0  0.36328344746515734  0.6391278222952508  0.3159204125782651  1.0000
  C   C37       1.0  0.33782233344562224  0.5587227362876914  0.3309374316017752  1.0000
  C   C38       1.0  0.25738470775834793  0.5718858331122121  0.3074594216842497  1.0000
  C   C39       1.0  0.203492256714469  0.6624606765221088  0.26770903073015967  1.0000
  C   C40       1.0  0.43650920593383796  0.6245134533380394  0.3611495793409104  1.0000
  C   C41       1.0  0.18950827999241676  0.1582888233911746  0.8782882744279588  1.0000
  C   C42       1.0  0.24400588433327636  0.20586494310228423  0.7803617894144278  1.0000
  C   C43       1.0  0.2729243339686603  0.28503251520941575  0.7620318028189172  1.0000
  C   C44       1.0  0.3244314334957679  0.3246725832487627  0.668437934376797  1.0000
  C   C45       1.0  0.3441336334853773  0.28762622477759686  0.5932984373688369  1.0000
  C   C46       1.0  0.3158282617972858  0.2073911289767807  0.6139041200125916  1.0000
  C   C47       1.0  0.2674222156589606  0.1648798105331508  0.706789248282419  1.0000
  C   C48       1.0  0.36832775170201154  0.4006643193935274  0.6479229641747606  1.0000
  S   S1        1.0  0.4770570315397292  0.020525903634883498  0.19320193096127974  1.0000
  S   S2        1.0  0.036308320575777486  0.2544742825727724  0.4765721553772053  1.0000
  S   S3        1.0  0.18610958934391414  0.4603840985617181  0.05217839026811088  1.0000
  S   S4        1.0  0.5284204983759577  0.2766356865623649  0.2192137999558952  1.0000
  S   S5        1.0  0.22284687850938664  0.47209237001361976  0.32582593045287916  1.0000
  S   S6        1.0  0.3383101334439047  0.15836837054352057  0.521013488595301  1.0000
  O   O1        1.0  0.038902234890038315  0.019552393491416395  0.05061205169343449  1.0000
  O   O2        1.0  0.892406285726153  0.9025037526860655  0.21678479286191543  1.0000
  O   O3        1.0  0.8548853882068027  0.9696325686101233  0.07356303945763898  1.0000
  O   O4        1.0  0.5039257144029392  0.09177896581918794  0.10435765494573693  1.0000
  O   O5        1.0  0.4246437699211257  0.9607588674244026  0.20194470053980507  1.0000
  O   O6        1.0  0.4174034778023454  0.06946460322267708  0.27822502244034547  1.0000
  O   O7        1.0  0.6724869572748132  0.6352436390633754  0.36921391303881984  1.0000
  O   O8        1.0  0.6147256615738287  0.6980127003296629  0.49579789536267765  1.0000
  O   O9        1.0  0.918617878094672  0.19689908852085133  0.9172962548387247  1.0000
  O   O10       1.0  0.9761198329256543  0.0658720002492075  0.8633244626199567  1.0000
  O   O11       1.0  0.10409097596095049  0.1627529415224274  0.49289253947898687  1.0000
  O   O12       1.0  0.9872502764222232  0.2889691477171752  0.40401160457441415  1.0000
  O   O13       1.0  0.08873859542303113  0.3310479638949813  0.4567771554161055  1.0000
  O   O14       1.0  0.6406041879502878  0.35632520758363034  0.6984018766880948  1.0000
  O   O15       1.0  0.6894618106728175  0.49020888013217956  0.6438866388343953  1.0000
  O   O16       1.0  0.20486714229558328  0.8804296841841505  0.9319579230293438  1.0000
  O   O17       1.0  0.06563286055861534  0.8450973419148935  0.9850989446593627  1.0000
  O   O18       1.0  0.10621616938568933  0.48770985224779645  0.12915423352453806  1.0000
  O   O19       1.0  0.18451452682652558  0.4093676056052401  0.9952379061585146  1.0000
  O   O20       1.0  0.2748407826302922  0.3973882416610834  0.09388120597611053  1.0000
  O   O21       1.0  0.34784958202960325  0.6356344317221101  0.6664761627678005  1.0000
  O   O22       1.0  0.47219637771409134  0.6263661603225685  0.709760865670766  1.0000
  O   O23       1.0  0.9131052160271338  0.20650257891232124  0.11286642972668658  1.0000
  O   O24       1.0  0.9169207843016024  0.07378981209870973  0.24436599210294216  1.0000
  O   O25       1.0  0.5632149315955529  0.2771556327204365  0.12008597829486686  1.0000
  O   O26       1.0  0.4808892874569821  0.20219615486472262  0.28672242133769277  1.0000
  O   O27       1.0  0.4622584340301615  0.3754118079001997  0.23392198878908477  1.0000
  O   O28       1.0  0.5969534017113604  0.3153237540629449  0.5262561066789075  1.0000
  O   O29       1.0  0.6926358448154984  0.4059929696327417  0.41330694614463664  1.0000
  O   O30       1.0  0.08976777726937972  0.8589211927424214  0.23871520688896908  1.0000
  O   O31       1.0  0.2230087561018337  0.8866198896660079  0.12075347382442916  1.0000
  O   O32       1.0  0.12481972723817591  0.5013065096459995  0.3306347006387114  1.0000
  O   O33       1.0  0.28668257706981837  0.4253655521814181  0.24912728023814157  1.0000
  O   O34       1.0  0.2455637677684308  0.4067890312139752  0.4220283175566449  1.0000
  O   O35       1.0  0.5175924165364022  0.5671283683147195  0.3386487290796011  1.0000
  O   O36       1.0  0.408599791861107  0.6678668027200839  0.42517480798844093  1.0000
  O   O37       1.0  0.22972701123088507  0.07040521513862788  0.9124533593205726  1.0000
  O   O38       1.0  0.10867578878215768  0.20758992647316885  0.915323520265957  1.0000
  O   O39       1.0  0.31658286799782326  0.06893246124006679  0.5623350173247273  1.0000
  O   O40       1.0  0.29149963213717456  0.23180852740645008  0.4476324208346155  1.0000
  O   O41       1.0  0.44697103863706633  0.14489775296319604  0.47455927364953243  1.0000
  O   O42       1.0  0.3493494395759526  0.4787097777729912  0.5817816281849985  1.0000
  O   O43       1.0  0.4255929897761276  0.3790729335101943  0.6965506219164795  1.0000
  O   O44       1.0  0.5387117941046352  0.5222325974397323  0.5479061794586285  1.0000
