data_image0
_chemical_formula_structural       Al2H22C24N2O10
_chemical_formula_sum              "Al2 H22 C24 N2 O10"
_cell_length_a       6.626226397266525
_cell_length_b       11.013132583828131
_cell_length_c       16.983268780839044
_cell_angle_alpha    88.95868408880914
_cell_angle_beta     82.47176513719192
_cell_angle_gamma    72.37456526311225

_space_group_name_H-M_alt    "P 1"
_space_group_IT_number       1

loop_
  _space_group_symop_operation_xyz
  'x, y, z'

loop_
  _atom_site_type_symbol
  _atom_site_label
  _atom_site_symmetry_multiplicity
  _atom_site_fract_x
  _atom_site_fract_y
  _atom_site_fract_z
  _atom_site_occupancy
  Al  Al1       1.0  0.0029040451695721598  0.49997682014293326  0.5019291600096594  1.0000
  Al  Al2       1.0  0.5073859389566595  0.4919766567591351  0.501625484179641  1.0000
  H   H1        1.0  0.17373614272443674  0.6466545118677088  0.5444337584790304  1.0000
  H   H2        1.0  0.8283684845805654  0.4208912507974247  0.4084696787985109  1.0000
  H   H3        1.0  0.6740946434885515  0.4501459186820895  0.2585194281632397  1.0000
  H   H4        1.0  0.726847476187011  0.44847641405777233  0.1092206244363751  1.0000
  H   H5        1.0  0.04595600653750162  0.5736449573809634  0.1095409503635096  1.0000
  H   H6        1.0  0.9932364372885444  0.5724135229500503  0.2594796993936654  1.0000
  H   H7        1.0  0.893545106641213  0.5534453664909263  0.8920556252690801  1.0000
  H   H8        1.0  0.3303555257146089  0.4372101325059602  0.8900344455428381  1.0000
  H   H9        1.0  0.3923791395556436  0.426913306727478  0.74019732916733  1.0000
  H   H10       1.0  0.9547608515393405  0.5429923481336016  0.7417238231581321  1.0000
  H   H11       1.0  0.5472760741801892  0.11642241724400995  0.37696470529095893  1.0000
  H   H12       1.0  0.7448404795684314  0.09982349133993297  0.44021743753378917  1.0000
  H   H13       1.0  0.8325513956431082  0.8788876207403646  0.41582853043532  1.0000
  H   H14       1.0  0.5968177119736001  0.8972659426003201  0.3725272791917932  1.0000
  H   H15       1.0  0.8024061462642605  0.898852931370399  0.5657069646963393  1.0000
  H   H16       1.0  0.5768849421261281  0.8802395948534992  0.6269141865303071  1.0000
  H   H17       1.0  0.6464095178116409  0.11906338147671386  0.5890764846523027  1.0000
  H   H18       1.0  0.399357033697065  0.09908324247012959  0.6306287083969195  1.0000
  H   H19       1.0  0.18303708823357573  0.0971921978436114  0.4389127453843003  1.0000
  H   H20       1.0  0.10783952991415902  0.11630951847094911  0.541984268463942  1.0000
  H   H21       1.0  0.24239086984135866  0.8962858083124912  0.5617815601219291  1.0000
  H   H22       1.0  0.2615081635731403  0.8768339819326412  0.4581499768142692  1.0000
  C   C1        1.0  0.6399813828685766  0.7287702324414339  0.49974888168269865  1.0000
  C   C2        1.0  0.7062728214581571  0.48424574084157945  0.6444802854052369  1.0000
  C   C3        1.0  0.36050516590909615  0.2668799453874441  0.5046173283804691  1.0000
  C   C4        1.0  0.30260812212249283  0.5068657814612721  0.3560161363915668  1.0000
  C   C5        1.0  0.33071667792824405  0.5111826259145786  0.2674363658321894  1.0000
  C   C6        1.0  0.5378320873928718  0.4775575889930151  0.2252677407950756  1.0000
  C   C7        1.0  0.5676995961384395  0.47717801872284576  0.1429695995871327  1.0000
  C   C8        1.0  0.388770494068524  0.5127424336268119  0.10147982291495339  1.0000
  C   C9        1.0  0.18143331184303696  0.5467849830361899  0.1433269557779155  1.0000
  C   C10       1.0  0.152772920569099  0.5458633181826683  0.2259526267958378  1.0000
  C   C11       1.0  0.785577873360687  0.5261058747573771  0.8576454867080656  1.0000
  C   C12       1.0  0.6069315669706796  0.4985000271615121  0.8988015331724384  1.0000
  C   C13       1.0  0.4648223318133804  0.461178625547987  0.8567874634801527  1.0000
  C   C14       1.0  0.4994576628643374  0.45528020418534243  0.774440109375625  1.0000
  C   C15       1.0  0.675391794317271  0.48579783021506984  0.7330852170610243  1.0000
  C   C16       1.0  0.818973608013323  0.5204864849107834  0.7750572387046119  1.0000
  C   C17       1.0  0.6040356344748404  0.07121223131548497  0.43158619817578625  1.0000
  C   C18       1.0  0.6588966104417654  0.9246259369507537  0.4242749346473502  1.0000
  C   C19       1.0  0.5585357739060728  0.8734364979562269  0.4999190449585384  1.0000
  C   C20       1.0  0.6270548824358717  0.9257803527369641  0.5727899141865009  1.0000
  C   C21       1.0  0.5263027400977762  0.07232284518036639  0.5797076329984207  1.0000
  C   C22       1.0  0.42921603562336946  0.12220252120440728  0.5029718678432075  1.0000
  C   C23       1.0  0.24141051281144144  0.07004161459767738  0.4963978342239344  1.0000
  C   C24       1.0  0.3138518058353769  0.9236798026377572  0.504713405270678  1.0000
  N   N1        1.0  0.40324274219537426  0.5124290906122865  0.01772974185394109  1.0000
  N   N2        1.0  0.5863864829195367  0.5076958056147304  0.98237655746685  1.0000
  O   O1        1.0  0.8419904025857934  0.6771425162446575  0.4926458557680746  1.0000
  O   O2        1.0  0.5584646777556018  0.4663842108052592  0.6097126260216753  1.0000
  O   O3        1.0  0.5082133966240507  0.3196924891741943  0.4970953805244632  1.0000
  O   O4        1.0  0.12417727096988078  0.4987716351006029  0.390292177541788  1.0000
  O   O5        1.0  0.16185536041358267  0.3260494622838124  0.512369253443886  1.0000
  O   O6        1.0  0.4612619358724004  0.5098754023229759  0.3902726119956199  1.0000
  O   O7        1.0  0.5017519967848048  0.6688696063467461  0.5085857285455404  1.0000
  O   O8        1.0  0.8758908157325822  0.5037732483212023  0.6100323232343001  1.0000
  O   O9        1.0  0.21602078807399064  0.555252393541579  0.5348266237299484  1.0000
  O   O10       1.0  0.7955434280575706  0.44384988733553116  0.46449830110367424  1.0000
