data_image0
_chemical_formula_structural       Zn2H40C52N4O10
_chemical_formula_sum              "Zn2 H40 C52 N4 O10"
_cell_length_a       9.667549947760103
_cell_length_b       10.671521869755173
_cell_length_c       15.924528936325764
_cell_angle_alpha    72.54115098885677
_cell_angle_beta     82.59167101986726
_cell_angle_gamma    67.0487675671362

_space_group_name_H-M_alt    "P 1"
_space_group_IT_number       1

loop_
  _space_group_symop_operation_xyz
  'x, y, z'

loop_
  _atom_site_type_symbol
  _atom_site_label
  _atom_site_symmetry_multiplicity
  _atom_site_fract_x
  _atom_site_fract_y
  _atom_site_fract_z
  _atom_site_occupancy
  Zn  Zn1       1.0  0.2785522085057082  0.7631390528787918  0.5497161195631862  1.0000
  Zn  Zn2       1.0  0.7214503064076679  0.23685885848569646  0.4502836787557102  1.0000
  H   H1        1.0  0.05107201683419039  0.40901870885996783  0.812616920279716  1.0000
  H   H2        1.0  0.9489307212081002  0.5909759478551991  0.18738040647090767  1.0000
  H   H3        1.0  0.5034713542931185  0.3705771719102274  0.7344178234448506  1.0000
  H   H4        1.0  0.49653384487420726  0.6294165892454869  0.26558577658708066  1.0000
  H   H5        1.0  0.14701694426384648  0.18877416555537962  0.9367662850606139  1.0000
  H   H6        1.0  0.8529832740825326  0.8112216190139848  0.06323351665496801  1.0000
  H   H7        1.0  0.6010687206594054  0.1542834456404664  0.8576865193068741  1.0000
  H   H8        1.0  0.39893502354066607  0.845711358583337  0.1423163485729972  1.0000
  H   H9        1.0  0.3402545028474009  0.9985779258790332  0.01847135030098452  1.0000
  H   H10       1.0  0.6597427904619124  0.0014146758820387973  0.9815287275753093  1.0000
  H   H11       1.0  0.21292275062379665  0.6522115744509023  0.3059309381555623  1.0000
  H   H12       1.0  0.7870695418660814  0.3477937877225585  0.6940693589714969  1.0000
  H   H13       1.0  0.13467831672409858  0.09367379312652702  0.2511151303031128  1.0000
  H   H14       1.0  0.8653233909782896  0.9063314696712229  0.7488812977601214  1.0000
  H   H15       1.0  0.13963098824783762  0.6922306935821824  0.15265071599966257  1.0000
  H   H16       1.0  0.8603656900619754  0.3077714564245965  0.8473486532099131  1.0000
  H   H17       1.0  0.05592522209281727  0.1367106775819451  0.1002234364624428  1.0000
  H   H18       1.0  0.944080451905464  0.8632924474784718  0.8997724985373737  1.0000
  H   H19       1.0  0.07587394028197271  0.8409785288104673  0.006716782471549663  1.0000
  H   H20       1.0  0.9241260909562213  0.1590256963902945  0.9932806259737961  1.0000
  H   H21       1.0  0.09140239741836353  0.9749456433835988  0.6552235958078256  1.0000
  H   H22       1.0  0.9085969818799384  0.0250522900444778  0.3447770756158519  1.0000
  H   H23       1.0  0.13746195820877458  0.12572752170475354  0.7345283755130441  1.0000
  H   H24       1.0  0.862535348571107  0.8742756843152012  0.26547072093250523  1.0000
  H   H25       1.0  0.3982966408868194  0.1270965380175468  0.7288848261187795  1.0000
  H   H26       1.0  0.6016985740884663  0.8729066882422888  0.2711150606882028  1.0000
  H   H27       1.0  0.5995900653680762  0.9786319792838823  0.6465630301059734  1.0000
  H   H28       1.0  0.4004072246772735  0.021371293106000205  0.3534385658385092  1.0000
  H   H29       1.0  0.7568271970730577  0.8438960014365762  0.5832010454160896  1.0000
  H   H30       1.0  0.243172789777141  0.15610307096707743  0.4168024776172317  1.0000
  H   H31       1.0  0.934522190328238  0.6748848054109189  0.5057971153454661  1.0000
  H   H32       1.0  0.06547614771123017  0.3251184485627761  0.49420377298093143  1.0000
  H   H33       1.0  0.8374677626116237  0.5324867321357304  0.44326949014075007  1.0000
  H   H34       1.0  0.1625318449188953  0.46751858408686797  0.556728978033384  1.0000
  H   H35       1.0  0.5635003678711782  0.5759492858850593  0.4581895621339314  1.0000
  H   H36       1.0  0.43650048149693527  0.4240528734193987  0.5418101009769816  1.0000
  H   H37       1.0  0.9611575442694116  0.9152215147592319  0.5738948956145364  1.0000
  H   H38       1.0  0.03884601027081659  0.0847764113740368  0.4261054448357414  1.0000
  H   H39       1.0  0.036786994440291196  0.7445563747121114  0.6159890721293309  1.0000
  H   H40       1.0  0.9632159358134942  0.2554404788155083  0.3840109162102436  1.0000
  C   C1        1.0  0.21170584064628162  0.5381450012869847  0.6947181525557442  1.0000
  C   C2        1.0  0.7882979244719617  0.4618497199744098  0.30528159095046453  1.0000
  C   C3        1.0  0.27117337436382627  0.40427082589200586  0.7671237339643897  1.0000
  C   C4        1.0  0.7288308102784523  0.5957228209400327  0.23287557468776043  1.0000
  C   C5        1.0  0.17110636306890822  0.35163168212386614  0.8239165899701889  1.0000
  C   C6        1.0  0.8288967777628855  0.6483619665318728  0.17608280142531638  1.0000
  C   C7        1.0  0.4263240837870725  0.33083844834301607  0.7801135801173303  1.0000
  C   C8        1.0  0.5736804994610833  0.669154207022075  0.21988841805443118  1.0000
  C   C9        1.0  0.22507888583871247  0.22996364000324115  0.8929288030892197  1.0000
  C   C10       1.0  0.7749219651613829  0.7700331839868113  0.1070701009875918  1.0000
  C   C11       1.0  0.4802001086490859  0.20984384956415886  0.8495478931732238  1.0000
  C   C12       1.0  0.5198030154481754  0.7901498654615082  0.15045399772121473  1.0000
  C   C13       1.0  0.3803819707087825  0.15768969921868603  0.9085084811382844  1.0000
  C   C14       1.0  0.619619074134782  0.8423039862694142  0.09149232549338383  1.0000
  C   C15       1.0  0.4292911074197363  0.03461871344329381  0.9843237476272293  1.0000
  C   C16       1.0  0.5707061817059438  0.9653739049102654  0.015676955123787154  1.0000
  C   C17       1.0  0.2187946548557845  0.8474132390299474  0.3804413633407507  1.0000
  C   C18       1.0  0.781201825426919  0.15259206607127146  0.6195567281887053  1.0000
  C   C19       1.0  0.17788967794291458  0.8702607567752239  0.2881140914205105  1.0000
  C   C20       1.0  0.8221040820651165  0.12974351255270733  0.7118850632344051  1.0000
  C   C21       1.0  0.17904096940645786  0.7574936225264679  0.2598095022699242  1.0000
  C   C22       1.0  0.8209509202939104  0.2425127477064279  0.7401887302122534  1.0000
  C   C23       1.0  0.13405085879016096  0.0064203372331875005  0.22919388539520474  1.0000
  C   C24       1.0  0.8659487571076243  0.9935849458044428  0.7708033330294626  1.0000
  C   C25       1.0  0.13719876686187135  0.7807588571495998  0.17441804612756331  1.0000
  C   C26       1.0  0.862797080767123  0.21924540853093077  0.8255809430406561  1.0000
  C   C27       1.0  0.08896806590988149  0.03009800107571441  0.14468572346849845  1.0000
  C   C28       1.0  0.9110313326746039  0.969905184704352  0.8553125826156177  1.0000
  C   C29       1.0  0.08852062899059357  0.9177357878383818  0.11554858134044824  1.0000
  C   C30       1.0  0.9114766819729282  0.08226740158909251  0.8844498902303715  1.0000
  C   C31       1.0  0.040970193142634025  0.9376714272876542  0.0277454065670923  1.0000
  C   C32       1.0  0.9590308819060451  0.06233279608940021  0.9722519191349054  1.0000
  C   C33       1.0  0.20241317297366387  0.9777749422231421  0.6563108243538098  1.0000
  C   C34       1.0  0.7975851625141529  0.022222993028634605  0.3436899298132232  1.0000
  C   C35       1.0  0.22874537591959407  0.06142822820117292  0.6998441175865867  1.0000
  C   C36       1.0  0.771251705179722  0.9385729137461851  0.30015731626787817  1.0000
  C   C37       1.0  0.37356926472883595  0.06157468145486431  0.6966419730185509  1.0000
  C   C38       1.0  0.6264267767436348  0.938426445723714  0.3033589187045251  1.0000
  C   C39       1.0  0.4865913047807099  0.9774168932992141  0.6514070350814977  1.0000
  C   C40       1.0  0.5134068201290914  0.0225842468244366  0.34859431602961183  1.0000
  C   C41       1.0  0.4523272484122882  0.8934812425994781  0.6109279101588783  1.0000
  C   C42       1.0  0.5476717071783312  0.1065177818504353  0.38907382099358767  1.0000
  C   C43       1.0  0.5660932012614168  0.796953619389015  0.563996586430612  1.0000
  C   C44       1.0  0.4339078419501732  0.20304540141349753  0.43600497923515763  1.0000
  C   C45       1.0  0.7171665016680178  0.7816280427789695  0.5563618218284462  1.0000
  C   C46       1.0  0.2828324497389687  0.21837099826342413  0.44364053419875676  1.0000
  C   C47       1.0  0.8169260361936067  0.6861567209458882  0.5125282320481477  1.0000
  C   C48       1.0  0.18307313671031264  0.31384440076158876  0.4874724114448838  1.0000
  C   C49       1.0  0.7635318233451328  0.6086795214390862  0.47761104814222943  1.0000
  C   C50       1.0  0.23646756687208642  0.39132369752594803  0.5223885076913461  1.0000
  C   C51       1.0  0.6108028822178753  0.6313558843638205  0.48654617340073264  1.0000
  C   C52       1.0  0.3891954683724991  0.36864731983243365  0.5134528403014613  1.0000
  N   N1        1.0  0.3110400105271579  0.8958364638426347  0.6133754356002897  1.0000
  N   N2        1.0  0.688960404214356  0.10416150094670232  0.3866264028295064  1.0000
  N   N3        1.0  0.5150078610231289  0.7228522179822149  0.5287933977384613  1.0000
  N   N4        1.0  0.4849913076971573  0.27714892031773536  0.4712078706292928  1.0000
  O   O1        1.0  0.31045285499175873  0.5775049986104507  0.6436766470434706  1.0000
  O   O2        1.0  0.6895540415579261  0.42248971717983613  0.35632284823268634  1.0000
  O   O3        1.0  0.07041219215174986  0.6024308753802785  0.6886601853422152  1.0000
  O   O4        1.0  0.9295936773219893  0.3975637758637802  0.3113368931783569  1.0000
  O   O5        1.0  0.20564914091489328  0.9541388011315278  0.4059717262992494  1.0000
  O   O6        1.0  0.794348992362181  0.045862305807162294  0.5940283750623934  1.0000
  O   O7        1.0  0.2641043678952002  0.7215327035661119  0.4312077776799656  1.0000
  O   O8        1.0  0.7358937779327731  0.2784683535951302  0.5687904490574811  1.0000
  O   O9        1.0  0.04146165024370404  0.8278398487230734  0.564697037673433  1.0000
  O   O10       1.0  0.9585425285829673  0.17215915001585105  0.4353036548875481  1.0000
