data_image0
_chemical_formula_structural       Zn2H18C30N2O10
_chemical_formula_sum              "Zn2 H18 C30 N2 O10"
_cell_length_a       9.722592475820049
_cell_length_b       11.069766958293656
_cell_length_c       16.111807983547784
_cell_angle_alpha    84.80608329641635
_cell_angle_beta     88.10519291271797
_cell_angle_gamma    90.20794978185246

_space_group_name_H-M_alt    "P 1"
_space_group_IT_number       1

loop_
  _space_group_symop_operation_xyz
  'x, y, z'

loop_
  _atom_site_type_symbol
  _atom_site_label
  _atom_site_symmetry_multiplicity
  _atom_site_fract_x
  _atom_site_fract_y
  _atom_site_fract_z
  _atom_site_occupancy
  Zn  Zn1       1.0  0.3678366047950874  0.49224779706022287  0.5112069890811527  1.0000
  Zn  Zn2       1.0  0.653316877622686  0.4966849236911627  0.5038213225993928  1.0000
  H   H1        1.0  0.6445359974911825  0.6668962981941743  0.9372560719406027  1.0000
  H   H2        1.0  0.1883905086105315  0.11216413866673487  0.4565852735134257  1.0000
  H   H3        1.0  0.17351559334404953  0.882722768456247  0.4783603602919442  1.0000
  H   H4        1.0  0.890548892672527  0.41109144915867535  0.3939173607834618  1.0000
  H   H5        1.0  0.1499161872002261  0.4081514643185641  0.3985136162236033  1.0000
  H   H6        1.0  0.12264578622203713  0.5433694979548915  0.6997695707287975  1.0000
  H   H7        1.0  0.1308826119225017  0.6881220943041126  0.6399179790265493  1.0000
  H   H8        1.0  0.8598909400296366  0.5478054270068211  0.6938783491494576  1.0000
  H   H9        1.0  0.8718237040667988  0.6925407614683718  0.6348235510616365  1.0000
  H   H10       1.0  0.40891260320280765  0.6867866012659646  0.04380002373751071  1.0000
  H   H11       1.0  0.7493107552313774  0.4854889600401504  0.05430018359618322  1.0000
  H   H12       1.0  0.6151494664684379  0.30521861334347006  0.9707127193446043  1.0000
  H   H13       1.0  0.37878810745544905  0.3250671346824347  0.0767977676706195  1.0000
  H   H14       1.0  0.2744385378301217  0.507079119971408  0.9599307597497315  1.0000
  H   H15       1.0  0.7285068589157008  0.8802242215190287  0.4925265165046114  1.0000
  H   H16       1.0  0.7344624747176882  0.10527763497175607  0.49016710193014756  1.0000
  H   H17       1.0  0.1830270232540556  0.9521845281499421  0.6386904310160234  1.0000
  H   H18       1.0  0.24823865001061307  0.19542025576058106  0.5888567155757656  1.0000
  C   C1        1.0  0.5088418206477742  0.7286910540189592  0.5072393204193943  1.0000
  C   C2        1.0  0.5109917220983391  0.49075638921568276  0.9222748996160421  1.0000
  C   C3        1.0  0.43770837155813785  0.40091810751603413  0.044955355017428617  1.0000
  C   C4        1.0  0.5126187308069775  0.5008109151033721  0.09213426269991493  1.0000
  C   C5        1.0  0.5694045759678517  0.3899696927568498  0.9878619071702204  1.0000
  C   C6        1.0  0.6439815490204098  0.4900224275934091  0.032526869995045615  1.0000
  C   C7        1.0  0.5118365604084687  0.48515613288879655  0.8348943167228813  1.0000
  C   C8        1.0  0.5115190170013052  0.5055702835512291  0.17962535446582714  1.0000
  C   C9        1.0  0.38813537352294253  0.931774207329887  0.5103219852987878  1.0000
  C   C10       1.0  0.5084209295403568  0.8638439453949048  0.504894301070813  1.0000
  C   C11       1.0  0.6327110752725246  0.9305759949856165  0.4965012811891399  1.0000
  C   C12       1.0  0.5089156988855947  0.4782663008785163  0.6701472537517719  1.0000
  C   C13       1.0  0.6361498580933329  0.05707825421485068  0.494519180057388  1.0000
  C   C14       1.0  0.5144717493478126  0.12475941548424876  0.49962982391733857  1.0000
  C   C15       1.0  0.39241168643285107  0.05787205221984948  0.5052647672020572  1.0000
  C   C16       1.0  0.23799921418749648  0.07160499719488196  0.5130491928802527  1.0000
  C   C17       1.0  0.23140983123800407  0.9268982108775458  0.5247838231660467  1.0000
  C   C18       1.0  0.9338445585534815  0.5394519445200529  0.5640707660447221  1.0000
  C   C19       1.0  0.9441142926809295  0.447578416887829  0.4445908484287742  1.0000
  C   C20       1.0  0.08718087211020989  0.4450404473077183  0.44739158183733724  1.0000
  C   C21       1.0  0.07719482398449878  0.5364093341947579  0.5672400670175294  1.0000
  C   C22       1.0  0.080310198094601  0.5985583936592319  0.6467221661425029  1.0000
  C   C23       1.0  0.5143074719112591  0.2584565075574474  0.504286335007734  1.0000
  C   C24       1.0  0.9168138781366296  0.6016096681189109  0.6433222159931945  1.0000
  C   C25       1.0  0.5116389595776525  0.5070368509131383  0.3448348706619911  1.0000
  C   C26       1.0  0.4543776123614407  0.601982035915533  0.02657748456332601  1.0000
  C   C27       1.0  0.5858918085182125  0.5910359934547171  0.9693372066404751  1.0000
  C   C28       1.0  0.511519419742399  0.48011065752421417  0.7595852056599455  1.0000
  C   C29       1.0  0.5108962338525346  0.5079281158731277  0.2551601927478018  1.0000
  C   C30       1.0  0.3796867082255417  0.5020929041586157  0.981843436205729  1.0000
  N   N1        1.0  0.8640079555715305  0.4957678179514459  0.503921943496458  1.0000
  N   N2        1.0  0.1569826055692261  0.48984423455016207  0.5098982183755468  1.0000
  O   O1        1.0  0.3944132036955708  0.6770945893161198  0.49628822660294963  1.0000
  O   O2        1.0  0.6237479403482524  0.6757520844811606  0.5191425696321943  1.0000
  O   O3        1.0  0.3924581994254197  0.4971673244225198  0.6372512427497412  1.0000
  O   O4        1.0  0.6225573587236397  0.4588560708719386  0.6320503843067301  1.0000
  O   O5        1.0  0.39980421257610743  0.3049921290664912  0.5267203277162196  1.0000
  O   O6        1.0  0.6260618195833557  0.31632693286821467  0.4868266323010175  1.0000
  O   O7        1.0  0.39783015125617294  0.48127827038327076  0.384459872796711  1.0000
  O   O8        1.0  0.6256890001790937  0.5310104729077236  0.3766791526842752  1.0000
  O   O9        1.0  0.1812035711212019  0.8820504314177526  0.605427384561068  1.0000
  O   O10       1.0  0.18774768631882213  0.12475514041553026  0.5854144266932978  1.0000
