data_image0
_chemical_formula_structural       Cd4H64C24N4Cl12O12
_chemical_formula_sum              "Cd4 H64 C24 N4 Cl12 O12"
_cell_length_a       7.715577077
_cell_length_b       9.393904210677107
_cell_length_c       16.5639
_cell_angle_alpha    90.0
_cell_angle_beta     90.0
_cell_angle_gamma    101.88325881114521

_space_group_name_H-M_alt    "P 1"
_space_group_IT_number       1

loop_
  _space_group_symop_operation_xyz
  'x, y, z'

loop_
  _atom_site_type_symbol
  _atom_site_label
  _atom_site_symmetry_multiplicity
  _atom_site_fract_x
  _atom_site_fract_y
  _atom_site_fract_z
  _atom_site_occupancy
  Cd  Cd1       1.0  0.724615120653958  0.3210098044245839  0.23967845736812873  1.0000
  Cd  Cd2       1.0  0.7753835511672945  0.6789896221785057  0.7396790610906832  1.0000
  Cd  Cd3       1.0  0.2753833617452983  0.6789896221785057  0.7603209389093166  1.0000
  Cd  Cd4       1.0  0.224615203963225  0.3210108922578385  0.2603209389093166  1.0000
  H   H1        1.0  0.0353418691576337  0.2207703208804972  0.6670705570547992  1.0000
  H   H2        1.0  0.46465696928215294  0.7792312813891087  0.1670705570547995  1.0000
  H   H3        1.0  0.964657636589699  0.7792280178893307  0.33293065039030967  1.0000
  H   H4        1.0  0.5353423313108934  0.2207714087137589  0.8329306503903098  1.0000
  H   H5        1.0  0.8172240259045225  0.1300754863566169  0.6924637313676101  1.0000
  H   H6        1.0  0.6827751913792568  0.869926115912989  0.1924643350901647  1.0000
  H   H7        1.0  0.1827754798428103  0.869922852413211  0.3075368723549374  1.0000
  H   H8        1.0  0.31722410921378946  0.1300765741898786  0.8075362686323899  1.0000
  H   H9        1.0  0.5906715524665316  0.4243702815906119  0.5475534143528975  1.0000
  H   H10       1.0  0.9093302569759132  0.575631320678994  0.0475552255205614  1.0000
  H   H11       1.0  0.40933109090199343  0.5756302328457323  0.4524459819245479  1.0000
  H   H12       1.0  0.09066849815460638  0.4243691937573573  0.9524447744794386  1.0000
  H   H13       1.0  0.5490152745002916  0.23832468619153246  0.6651543416707426  1.0000
  H   H14       1.0  0.9509844882460072  0.7616790917445897  0.16515554911585176  1.0000
  H   H15       1.0  0.4509847767095607  0.7616758282448117  0.3348450546067028  1.0000
  H   H16       1.0  0.0490171317744412  0.2383225105250162  0.8348444508841482  1.0000
  H   H17       1.0  0.5659532271033498  0.0582284508895015  0.6357959176280943  1.0000
  H   H18       1.0  0.9340462629116856  0.9417742392133661  0.1357959176280943  1.0000
  H   H19       1.0  0.4340468241065025  0.9417720635468427  0.3642040823719057  1.0000
  H   H20       1.0  0.0659579492674354  0.0582273630562469  0.8642040823719057  1.0000
  H   H21       1.0  0.8670971669435659  0.4633767187820297  0.46604966221723026  1.0000
  H   H22       1.0  0.6329032788425764  0.536619444321282  0.9660526808299962  1.0000
  H   H23       1.0  0.13290438549991282  0.536619444321282  0.5339485266151058  1.0000
  H   H24       1.0  0.3670947256711372  0.4633832457815856  0.0339479228925583  1.0000
  H   H25       1.0  0.2616393526703931  0.0742816063022218  0.6383575124215923  1.0000
  H   H26       1.0  0.23836207792806616  0.9257199959673911  0.1383581161441469  1.0000
  H   H27       1.0  0.7383627452356052  0.9257167324676132  0.3616418838558531  1.0000
  H   H28       1.0  0.7616415887885282  0.0742794306356984  0.8616424875784077  1.0000
  H   H29       1.0  0.665484517978797  0.1329560688281788  0.5103490120080423  1.0000
  H   H30       1.0  0.8345167460011211  0.8670433577749108  0.0103496157305969  1.0000
  H   H31       1.0  0.3345175799272013  0.8670422699416491  0.48965098799195766  1.0000
  H   H32       1.0  0.1654848740193273  0.1329582444947022  0.9896509879919577  1.0000
  H   H33       1.0  0.48172252427396967  0.2939227562591924  0.474871256165514  1.0000
  H   H34       1.0  0.01827863359322629  0.7060777581771518  0.9748718598880686  1.0000
  H   H35       1.0  0.518279846363292  0.7060766703438901  0.5251293475570336  1.0000
  H   H36       1.0  0.9817190981892168  0.2939238440924541  0.0251281401119314  1.0000
  H   H37       1.0  0.8473109788102278  0.3711806743598274  0.6183640326251663  1.0000
  H   H38       1.0  0.6526869423942115  0.6288209279097785  0.1183652400702755  1.0000
  H   H39       1.0  0.15268879966836124  0.6288187522432622  0.3816365710973884  1.0000
  H   H40       1.0  0.34731235819883477  0.3711817621930891  0.8816353636522791  1.0000
  H   H41       1.0  0.29502375226785926  0.2314691609891923  0.5753361225315317  1.0000
  H   H42       1.0  0.2049745407094008  0.7685302656138973  0.0753361225315317  1.0000
  H   H43       1.0  0.7049757534794736  0.7685291777806356  0.4246638774684683  1.0000
  H   H44       1.0  0.7950265338485211  0.2314691609891923  0.9246626700233662  1.0000
  H   H45       1.0  0.6836005978422008  0.48993725564974255  0.4078550341405105  1.0000
  H   H46       1.0  0.8164001206751976  0.5100599952868237  0.9078580527532765  1.0000
  H   H47       1.0  0.316399658521938  0.5100589074535691  0.5921431546918328  1.0000
  H   H48       1.0  0.18359761110725256  0.48994160698278216  0.0921425509692781  1.0000
  H   H49       1.0  0.9389357256351261  0.2915828269176757  0.5345721720126306  1.0000
  H   H50       1.0  0.5610637643799166  0.7084198631851919  0.0345727757351852  1.0000
  H   H51       1.0  0.06106562165406609  0.7084176875186685  0.465428431709924  1.0000
  H   H52       1.0  0.43893580894439305  0.2915839147509374  0.9654278279873694  1.0000
  H   H53       1.0  0.8967731397678804  0.2924520056921409  0.3877806555219507  1.0000
  H   H54       1.0  0.603224441128333  0.707543069577909  0.8877824666896075  1.0000
  H   H55       1.0  0.10322554778566939  0.707543069577909  0.6122181370329471  1.0000
  H   H56       1.0  0.3967732906541173  0.292458532691704  0.1122175333103925  1.0000
  H   H57       1.0  0.9566719550722383  0.9641640233635655  0.6340855716346994  1.0000
  H   H58       1.0  0.5433272622115339  0.0358375789060474  0.1340855716346994  1.0000
  H   H59       1.0  0.0433278234063508  0.0358354032395241  0.36591442836530047  1.0000
  H   H60       1.0  0.4566723111127686  0.9641661990300818  0.8659144283653006  1.0000
  H   H61       1.0  0.2130569446054835  0.0466441145074441  0.48687990147247723  1.0000
  H   H62       1.0  0.2869413483717835  0.9533553120956385  0.9868805051950318  1.0000
  H   H63       1.0  0.7869412650625165  0.9533542242623839  0.5131200985275227  1.0000
  H   H64       1.0  0.7130587028380688  0.0466452023407058  0.0131200985275228  1.0000
  C   C1        1.0  0.6084258565488554  0.340629965095701  0.503846920109396  1.0000
  C   C2        1.0  0.8915735658892033  0.6593672858408652  0.0038481275544981004  1.0000
  C   C3        1.0  0.39157262585040087  0.6593694615073886  0.4961524761680494  1.0000
  C   C4        1.0  0.10842750866871849  0.3406321407622244  0.9961512687229472  1.0000
  C   C5        1.0  0.846717094551046  0.269425839085045  0.585619328781263  1.0000
  C   C6        1.0  0.6532821227327261  0.7305757631845609  0.085619328781263  1.0000
  C   C7        1.0  0.153282683927543  0.7305735875180446  0.41438187866383897  1.0000
  C   C8        1.0  0.3467184739396458  0.2694269269183067  0.9143812749412843  1.0000
  C   C9        1.0  0.5317656881641923  0.159766807345612  0.6151594733124455  1.0000
  C   C10       1.0  0.9682335291195869  0.8402347949239938  0.1151606807575476  1.0000
  C   C11       1.0  0.4682343630456671  0.8402337070907322  0.3848393192424453  1.0000
  C   C12       1.0  0.0317680909008615  0.159766807345612  0.8848405266875545  1.0000
  C   C13       1.0  0.34062584736204116  0.1300548175246803  0.5877637512904599  1.0000
  C   C14       1.0  0.15937401442581486  0.8699456969116639  0.08776314756790529  1.0000
  C   C15       1.0  0.6593736583852916  0.8699435212451476  0.4122362487095401  1.0000
  C   C16       1.0  0.8406270601321068  0.1300537296914257  0.9122356449869926  1.0000
  C   C17       1.0  0.7405535317423642  0.407887432040333  0.4399344357307129  1.0000
  C   C18       1.0  0.7594456179644382  0.5921087310629716  0.9399362468983767  1.0000
  C   C19       1.0  0.2594467246217818  0.5921087310629716  0.5600643568241779  1.0000
  C   C20       1.0  0.24055211381800484  0.4078928712066343  0.0600643568241779  1.0000
  C   C21       1.0  0.9083048055377534  0.1623808706685637  0.6414407235011055  1.0000
  C   C22       1.0  0.591694411746019  0.8376207316010422  0.1414407235011055  1.0000
  C   C23       1.0  0.09169340413023969  0.8376174681012643  0.358559880221442  1.0000
  C   C24       1.0  0.408304616115764  0.1623808706685637  0.8585604839439966  1.0000
  N   N1        1.0  0.6635408934144563  0.220081722427139  0.550454301221329  1.0000
  N   N2        1.0  0.8364593472173922  0.7799187920092123  0.050454301221329  1.0000
  N   N3        1.0  0.3364599084122091  0.779916616342696  0.449546906223773  1.0000
  N   N4        1.0  0.1635409767237235  0.22008281026039359  0.949545698778671  1.0000
  Cl  Cl1       1.0  0.025631601781633193  0.5155111277509548  0.2314104770011909  1.0000
  Cl  Cl2       1.0  0.47436696392689015  0.48448938668539643  0.7314104770011909  1.0000
  Cl  Cl3       1.0  0.9743671533488865  0.48448938668539643  0.7685895229988091  1.0000
  Cl  Cl4       1.0  0.5256330872829622  0.5155111277509548  0.2685889192762545  1.0000
  Cl  Cl5       1.0  0.6636175182232692  0.3182380052789853  0.0854997917157192  1.0000
  Cl  Cl6       1.0  0.8363798575186507  0.6817614213241042  0.5855003954382738  1.0000
  Cl  Cl7       1.0  0.3363799408279178  0.681762509157366  0.9145002082842808  1.0000
  Cl  Cl8       1.0  0.1636186248806055  0.3182380052789853  0.4144996045617261  1.0000
  Cl  Cl9       1.0  0.9255791539415695  0.121086720132098  0.24698289654006797  1.0000
  Cl  Cl10      1.0  0.574421086690279  0.8789137943042533  0.7469835002626224  1.0000
  Cl  Cl11      1.0  0.07442062453702647  0.8789127064709916  0.7530164997373774  1.0000
  Cl  Cl12      1.0  0.42557664509216403  0.12108780796535258  0.2530158960148299  1.0000
  O   O1        1.0  0.7698360025365998  0.2995533812111617  0.3831784784984222  1.0000
  O   O2        1.0  0.7301618510908697  0.7004427818921428  0.8831796859435244  1.0000
  O   O3        1.0  0.2301629577482132  0.7004427818921428  0.6168203140564756  1.0000
  O   O4        1.0  0.2698358806915735  0.2995588203774631  0.1168203140564756  1.0000
  O   O5        1.0  0.32169672327597715  0.041225617041114  0.5172562017399258  1.0000
  O   O6        1.0  0.1783070267498843  0.9587748973952372  0.0172562017399258  1.0000
  O   O7        1.0  0.6783069434406173  0.9587738095619756  0.4827437982600742  1.0000
  O   O8        1.0  0.8216982087773061  0.041225617041114  0.9827437982600741  1.0000
  O   O9        1.0  0.9315179858050797  0.0379599415956307  0.5962593350599832  1.0000
  O   O10       1.0  0.5684812314786996  0.9620416606739823  0.0962593350599832  1.0000
  O   O11       1.0  0.06848049659417647  0.9620394850074588  0.4037406649400167  1.0000
  O   O12       1.0  0.4315177963830834  0.0379599415956307  0.9037406649400168  1.0000
