data_image0
_chemical_formula_structural       Zn10H32C48S4N36O16
_chemical_formula_sum              "Zn10 H32 C48 S4 N36 O16"
_cell_length_a       15.828613779883455
_cell_length_b       15.828717806135922
_cell_length_c       15.828603647591743
_cell_angle_alpha    108.51986180782625
_cell_angle_beta     108.51968238345857
_cell_angle_gamma    111.39139378638505

_space_group_name_H-M_alt    "P 1"
_space_group_IT_number       1

loop_
  _space_group_symop_operation_xyz
  'x, y, z'

loop_
  _atom_site_type_symbol
  _atom_site_label
  _atom_site_symmetry_multiplicity
  _atom_site_fract_x
  _atom_site_fract_y
  _atom_site_fract_z
  _atom_site_occupancy
  Zn  Zn1       1.0  0.9809802593897174  0.19683970609762025  0.9483098551481601  1.0000
  Zn  Zn2       1.0  0.24853041588976044  0.0326670316323856  0.051686421650089125  1.0000
  Zn  Zn3       1.0  0.9673317020262359  0.01901785198894144  0.2158599808869464  1.0000
  Zn  Zn4       1.0  0.8031631832808728  0.7514740313192475  0.7841368443773501  1.0000
  Zn  Zn5       1.0  0.0014760229482178484  0.5531602666395797  0.2841382230615963  1.0000
  Zn  Zn6       1.0  0.2690177024862805  0.7173381708736101  0.7158636828536515  1.0000
  Zn  Zn7       1.0  0.4468416274007582  0.7309819386426781  0.4483157797360063  1.0000
  Zn  Zn8       1.0  0.282663349912113  0.9985280799796494  0.5516867036396463  1.0000
  Zn  Zn9       1.0  0.9999990820460809  0.9999977324058232  0.9999964039904083  1.0000
  Zn  Zn10      1.0  0.24999697332781784  0.7499999063655947  0.4999997518591072  1.0000
  H   H1        1.0  0.0737393617581219  0.5427596176403211  0.009380495977353576  1.0000
  H   H2        1.0  0.7921337002412941  0.04791899634241054  0.7040192091694305  1.0000
  H   H3        1.0  0.7053499722246318  0.8317472879860403  0.6208724314099853  1.0000
  H   H4        1.0  0.21986402730257046  0.3252478068337865  0.977316142574594  1.0000
  H   H5        1.0  0.5333881045044961  0.06437134535035217  0.9906321445754995  1.0000
  H   H6        1.0  0.34389439037033753  0.08810262564823289  0.29597326602632984  1.0000
  H   H7        1.0  0.21086632558557028  0.08446561054721256  0.37911773819355676  1.0000
  H   H8        1.0  0.3479333842454011  0.2425459245381488  0.02268016732658391  1.0000
  H   H9        1.0  0.9356369849356979  0.9262622206336953  0.4690205078284604  1.0000
  H   H10       1.0  0.9118966074845574  0.20786619471893178  0.2557881908769416  1.0000
  H   H11       1.0  0.9155309006497276  0.2946482227980594  0.12639718185393148  1.0000
  H   H12       1.0  0.7574549694383351  0.7801329150762155  0.10538244058059802  1.0000
  H   H13       1.0  0.45723993580692485  0.4666206482150414  0.5309885233515316  1.0000
  H   H14       1.0  0.9520838653378831  0.6561005214693194  0.7442083994306399  1.0000
  H   H15       1.0  0.16825540155135585  0.7891314721331352  0.8736052107525082  1.0000
  H   H16       1.0  0.6747500904639594  0.6520689129983237  0.89461135475009  1.0000
  H   H17       1.0  0.7166191378858002  0.20724367613059502  0.03098284782243591  1.0000
  H   H18       1.0  0.9060953579062385  0.7020727899166274  0.24421066953390624  1.0000
  H   H19       1.0  0.03912052088297462  0.9182442607442381  0.3736005354800369  1.0000
  H   H20       1.0  0.9020710614528085  0.42474786551689186  0.3946122729526774  1.0000
  H   H21       1.0  0.1762632898663484  0.6856363132340489  0.9690245614883325  1.0000
  H   H22       1.0  0.4578619795461734  0.6618975537285647  0.755792834943797  1.0000
  H   H23       1.0  0.5446452590725598  0.6655313194011753  0.6264012364658383  1.0000
  H   H24       1.0  0.0301357133057892  0.507454363619459  0.60538468585289  1.0000
  H   H25       1.0  0.7927600331435584  0.8237420821754211  0.5093786921852936  1.0000
  H   H26       1.0  0.297926726691756  0.5421368554010824  0.2040251425227949  1.0000
  H   H27       1.0  0.0817511338094903  0.4553491291044691  0.12087641618291661  1.0000
  H   H28       1.0  0.5752502756674005  0.969865833743341  0.4773234549584086  1.0000
  H   H29       1.0  0.31436656322195955  0.2833835371350943  0.4906261633838795  1.0000
  H   H30       1.0  0.33810941026122515  0.09389955208204281  0.7959813132116053  1.0000
  H   H31       1.0  0.3344749838466683  0.960873861959534  0.8791248206310626  1.0000
  H   H32       1.0  0.4925424029777332  0.09792758921689433  0.5226814733612882  1.0000
  C   C1        1.0  0.025150175274163206  0.3311430655199955  0.8888089824846546  1.0000
  C   C2        1.0  0.07675566810187473  0.4302005237824459  0.8897552141821095  1.0000
  C   C3        1.0  0.0977510198440402  0.5281084806404409  0.9516980695178745  1.0000
  C   C4        1.0  0.8069037168412906  0.0019426766170697067  0.7382791144043491  1.0000
  C   C5        1.0  0.7650492855366692  0.8953335150930923  0.6976641836212776  1.0000
  C   C6        1.0  0.2071217663788262  0.25913823077424786  0.9896658586084257  1.0000
  C   C7        1.0  0.4423397446594776  0.13634741159464164  0.1111962938077155  1.0000
  C   C8        1.0  0.5404513833678877  0.18700737528872213  0.11024793441419682  1.0000
  C   C9        1.0  0.576415773309364  0.14606223326563136  0.04830278066964391  1.0000
  C   C10       1.0  0.2636592756905713  0.06861578702875448  0.26171637094212485  1.0000
  C   C11       1.0  0.1976618447383842  0.06737575001688606  0.3023299895807056  1.0000
  C   C12       1.0  0.26947239697040704  0.21745150936644103  0.010328602432636518  1.0000
  C   C13       1.0  0.8636564496995476  0.9748467632750886  0.30599010580625213  1.0000
  C   C14       1.0  0.8129970868917623  0.9232384921098525  0.35344321601074535  1.0000
  C   C15       1.0  0.8539431314011169  0.9022412576470058  0.43035472580164186  1.0000
  C   C16       1.0  0.931383562813245  0.19309901704900048  0.195038668943617  1.0000
  C   C17       1.0  0.93261932525283  0.2349480389846689  0.13027853115189433  1.0000
  C   C18       1.0  0.7825463717667843  0.7928753564716755  0.052016219591834334  1.0000
  C   C19       1.0  0.6688567730353017  0.5576682459077418  0.6940133377785074  1.0000
  C   C20       1.0  0.5697999074550709  0.45956056079304364  0.6465679361388154  1.0000
  C   C21       1.0  0.4718925525103258  0.4235930593407601  0.5696524769986265  1.0000
  C   C22       1.0  0.9980584882568097  0.7363383962751012  0.8049568651794131  1.0000
  C   C23       1.0  0.1046695056863882  0.8023328828477428  0.8697133176127136  1.0000
  C   C24       1.0  0.7408588765972014  0.7305260867315794  0.9479771314371986  1.0000
  C   C25       1.0  0.807668676811076  0.4188600671608638  0.19401025852720696  1.0000
  C   C26       1.0  0.7095597351050884  0.3198026732866238  0.14656447772620124  1.0000
  C   C27       1.0  0.673593297237332  0.22189456142015013  0.06964820062654521  1.0000
  C   C28       1.0  0.9863344701374005  0.748051385482739  0.304956773739711  1.0000
  C   C29       1.0  0.05232683413618842  0.8546623395032852  0.369716751036492  1.0000
  C   C30       1.0  0.9805280505293225  0.4908576341120748  0.447978057563709  1.0000
  C   C31       1.0  0.22484749772247872  0.6136548482908066  0.8059913526343364  1.0000
  C   C32       1.0  0.17323766116896155  0.5629971783006695  0.8534446314398352  1.0000
  C   C33       1.0  0.15224411268949475  0.6039439895091049  0.9303582929772957  1.0000
  C   C34       1.0  0.44309585837348214  0.6813861757506173  0.6950453935826103  1.0000
  C   C35       1.0  0.4849466271500449  0.6826209843445596  0.630285100572017  1.0000
  C   C36       1.0  0.04287650609911975  0.5325447072412712  0.5520168306825113  1.0000
  C   C37       1.0  0.5811422714079127  0.7751496289447102  0.38880613144967646  1.0000
  C   C38       1.0  0.6802014035187723  0.826758705336999  0.3897559034011307  1.0000
  C   C39       1.0  0.7781115354323945  0.8477583987077181  0.4517028990140233  1.0000
  C   C40       1.0  0.2519464365889306  0.556903872282774  0.23828366883409288  1.0000
  C   C41       1.0  0.1453362801580695  0.5150492884980549  0.19766707133560144  1.0000
  C   C42       1.0  0.509140348635853  0.9571193333360309  0.4896703652115091  1.0000
  C   C43       1.0  0.38634530414172735  0.19233498900976537  0.6111914417777129  1.0000
  C   C44       1.0  0.43700500847928936  0.2904473847768115  0.6102443741993111  1.0000
  C   C45       1.0  0.39605777937030245  0.32641376349393164  0.548303703007761  1.0000
  C   C46       1.0  0.31861647710042007  0.013662414001849744  0.7617192100699767  1.0000
  C   C47       1.0  0.31738053306152386  0.9476677320481528  0.8023355834381363  1.0000
  C   C48       1.0  0.4674533637713765  0.019471409047753314  0.5103338841872471  1.0000
  S   S1        1.0  0.12499504051184827  0.43171169680607574  0.8067101254245371  1.0000
  S   S2        1.0  0.6250016456315561  0.3182923069497574  0.19329085555652606  1.0000
  S   S3        1.0  0.681712139424164  0.8749971617665364  0.3067097305052612  1.0000
  S   S4        1.0  0.568289538213371  0.3750009433694218  0.6932908831767577  1.0000
  N   N1        1.0  0.8826421195326121  0.9729575557272053  0.8580883360693927  1.0000
  N   N2        1.0  0.8787877547020031  0.04726218452331919  0.8373269954895901  1.0000
  N   N3        1.0  0.8139332139578387  0.880393423768595  0.773889224078161  1.0000
  N   N4        1.0  0.11713668072248845  0.19862753250185955  0.9842497776027344  1.0000
  N   N5        1.0  0.11486641725920071  0.0245484656658661  0.14190695985251978  1.0000
  N   N6        1.0  0.20993180778135923  0.04145464916094716  0.16266804856353898  1.0000
  N   N7        1.0  0.10649762004400289  0.04003373667389808  0.22610324011157695  1.0000
  N   N8        1.0  0.21437880117719027  0.13288078228577394  0.015743461770213622  1.0000
  N   N9        1.0  0.9754492318684314  0.11735464121272089  0.09031261475538321  1.0000
  N   N10       1.0  0.9585433029968441  0.12121089331153456  0.16847201269430162  1.0000
  N   N11       1.0  0.9599636120230172  0.18606509242751895  0.06645743217946141  1.0000
  N   N12       1.0  0.8671180398882611  0.88286227969877  0.08149270933374436  1.0000
  N   N13       1.0  0.0270449929088486  0.8851328439612443  0.9096793631555898  1.0000
  N   N14       1.0  0.952739250985651  0.7900671652190636  0.8315202538755525  1.0000
  N   N15       1.0  0.11961020337164999  0.8934986436529185  0.9335369211304395  1.0000
  N   N16       1.0  0.8013701701063385  0.785622530624792  0.9185030333046881  1.0000
  N   N17       1.0  0.13513103396838497  0.7770429043726137  0.409683392684883  1.0000
  N   N18       1.0  0.040065531687112424  0.702735987014094  0.331524319886789  1.0000
  N   N19       1.0  0.14349418876737027  0.8696050370459357  0.4335375335974803  1.0000
  N   N20       1.0  0.03562366435092918  0.5513700380077821  0.4185050048226557  1.0000
  N   N21       1.0  0.36735477847011583  0.7254533168533398  0.5903185528931373  1.0000
  N   N22       1.0  0.3712088708124243  0.7085466632672135  0.6684769352095188  1.0000
  N   N23       1.0  0.43606453107516785  0.7099647281825979  0.5664639911762847  1.0000
  N   N24       1.0  0.13286311584644045  0.6171206507849689  0.5814973331111871  1.0000
  N   N25       1.0  0.22296030658112195  0.6326439506093137  0.3580908061948449  1.0000
  N   N26       1.0  0.2972656736890115  0.6287903421780567  0.33733006892744993  1.0000
  N   N27       1.0  0.13039584432303292  0.5639327880590911  0.2738912425562461  1.0000
  N   N28       1.0  0.44862810631709493  0.8671356014649945  0.48425564451782305  1.0000
  N   N29       1.0  0.2745457536752128  0.8648672349485548  0.6419102570164483  1.0000
  N   N30       1.0  0.29145301517052513  0.959932611101628  0.6626705615471734  1.0000
  N   N31       1.0  0.29003664826496606  0.856502504755184  0.7261095745636511  1.0000
  N   N32       1.0  0.38287980611272576  0.9643774939136732  0.5157462781807992  1.0000
  N   N33       1.0  0.1225917469352355  0.12258814591381664  0.9999963676115583  1.0000
  N   N34       1.0  0.8774100119868963  0.8774077718991219  0.9999974789377075  1.0000
  N   N35       1.0  0.12740963535797095  0.6274121489292523  0.5000017861852727  1.0000
  N   N36       1.0  0.3725876339764796  0.8725918341574681  0.5000010519859615  1.0000
  O   O1        1.0  0.006708439421999101  0.24848203115994494  0.8210651419567229  1.0000
  O   O2        1.0  0.004806523670709012  0.33404083981212546  0.9633301035690351  1.0000
  O   O3        1.0  0.42741674896917903  0.18564685949053228  0.17893705399789175  1.0000
  O   O4        1.0  0.3707165284829017  0.041482565814646905  0.03667323849184345  1.0000
  O   O5        1.0  0.814354526671451  0.9932868958717618  0.24176920906238278  1.0000
  O   O6        1.0  0.9585222065250035  0.9951914663038932  0.3292345583471244  1.0000
  O   O7        1.0  0.7515194611611377  0.5725851202210064  0.7582294408338295  1.0000
  O   O8        1.0  0.6659565835192183  0.6292865942021918  0.6707656129959928  1.0000
  O   O9        1.0  0.8225903092604129  0.5015234875879812  0.2582332238326897  1.0000
  O   O10       1.0  0.8792880182473508  0.41595756814605517  0.1707648084880515  1.0000
  O   O11       1.0  0.24329138208137382  0.5643536593117416  0.7417745915445905  1.0000
  O   O12       1.0  0.24519022512073732  0.7085203640704165  0.8292354843727593  1.0000
  O   O13       1.0  0.49847949086768045  0.7567086305263968  0.32106155727097263  1.0000
  O   O14       1.0  0.5840411687676408  0.7548112775917843  0.463331014222696  1.0000
  O   O15       1.0  0.43564402230267524  0.17741359414263508  0.6789336025037896  1.0000
  O   O16       1.0  0.2914788355426338  0.12071144727837432  0.5366678305867223  1.0000
