data_image0
_chemical_formula_structural       Er4H32C24N4O28
_chemical_formula_sum              "Er4 H32 C24 N4 O28"
_cell_length_a       6.494584098170053
_cell_length_b       11.419530553030693
_cell_length_c       12.673422893382755
_cell_angle_alpha    90.00024932333486
_cell_angle_beta     89.99916273751882
_cell_angle_gamma    90.00011038157363

_space_group_name_H-M_alt    "P 1"
_space_group_IT_number       1

loop_
  _space_group_symop_operation_xyz
  'x, y, z'

loop_
  _atom_site_type_symbol
  _atom_site_label
  _atom_site_symmetry_multiplicity
  _atom_site_fract_x
  _atom_site_fract_y
  _atom_site_fract_z
  _atom_site_occupancy
  Er  Er1       1.0  0.6452620853014678  0.5005878391575108  0.4976336625698181  1.0000
  Er  Er2       1.0  0.1452770747733894  0.9994110727381338  0.502367600690242  1.0000
  Er  Er3       1.0  0.35472321996756756  0.0005912836555168998  0.0023690109220453  1.0000
  Er  Er4       1.0  0.8547293666001322  0.4994175278850361  0.9976319866569057  1.0000
  H   H1        1.0  0.7364424675429362  0.739737322824659  0.6472216204650962  1.0000
  H   H2        1.0  0.23647018742471465  0.7602669384007753  0.3527821281580614  1.0000
  H   H3        1.0  0.2635430356770527  0.23974155738742545  0.8527848806194241  1.0000
  H   H4        1.0  0.763534516202917  0.26025927775224733  0.1472167878084107  1.0000
  H   H5        1.0  0.0060925314152058  0.7267547683472769  0.6358824374750113  1.0000
  H   H6        1.0  0.5060931616725668  0.7732378684538471  0.36412142779801127  1.0000
  H   H7        1.0  0.9939052437236668  0.2267677033613893  0.8641232256889992  1.0000
  H   H8        1.0  0.49390850843649053  0.273239502060889  0.1358822713091712  1.0000
  H   H9        1.0  0.7063998770867883  0.028905267818885198  0.710262557588898  1.0000
  H   H10       1.0  0.2064101576795778  0.47109813476048135  0.2897347968582622  1.0000
  H   H11       1.0  0.2936141332618405  0.5289082928255338  0.7897399940506062  1.0000
  H   H12       1.0  0.7935937543568129  0.9710995308020353  0.2102593888818447  1.0000
  H   H13       1.0  0.5770975525192199  0.9061118778923712  0.65643550021354  1.0000
  H   H14       1.0  0.07709877376225192  0.5938904656343026  0.3435686317465354  1.0000
  H   H15       1.0  0.42289931932347  0.4061101025939847  0.8435645252250056  1.0000
  H   H16       1.0  0.9228991804714541  0.0938900231686404  0.1564367598439844  1.0000
  H   H17       1.0  0.11147107924988833  0.8307664070868127  0.7564171643348415  1.0000
  H   H18       1.0  0.6114886957741917  0.6692324695309534  0.2435788241452244  1.0000
  H   H19       1.0  0.8885501613231526  0.33077424791523663  0.7435731089571361  1.0000
  H   H20       1.0  0.3885218437636838  0.1692267176676268  0.2564244836587619  1.0000
  H   H21       1.0  0.9099618482085177  0.9111651959368526  0.8145320633580581  1.0000
  H   H22       1.0  0.409983036397982  0.5888313651389295  0.1854696196448415  1.0000
  H   H23       1.0  0.0900396607261627  0.41116840863516296  0.6854735044525242  1.0000
  H   H24       1.0  0.5900148999282706  0.08883574820321626  0.3145333857646051  1.0000
  H   H25       1.0  0.5258348956820456  0.2700890033789348  0.5747975101902583  1.0000
  H   H26       1.0  0.0258342309495632  0.2298993239430018  0.42518854783504173  1.0000
  H   H27       1.0  0.47417535154185236  0.7701060329120393  0.9251830662640613  1.0000
  H   H28       1.0  0.9741688253721746  0.7299002277351362  0.0747984181218087  1.0000
  H   H29       1.0  0.7492491896520265  0.24069202775770998  0.5402037686401187  1.0000
  H   H30       1.0  0.24925070479533673  0.2593061653775876  0.459792481535537  1.0000
  H   H31       1.0  0.2507470954225326  0.7406984896679206  0.9597853768385036  1.0000
  H   H32       1.0  0.7507370583032652  0.7592987808830287  0.040201696562562006  1.0000
  C   C1        1.0  0.873475704474103  0.779492002055079  0.6108892543341753  1.0000
  C   C2        1.0  0.3734837520130014  0.7204975154136475  0.3891205876594412  1.0000
  C   C3        1.0  0.1265284167772478  0.27949452479894177  0.8891142400200351  1.0000
  C   C4        1.0  0.6265192706452112  0.22050091318912018  0.1108876473596681  1.0000
  C   C5        1.0  0.8612918828032079  0.7685043783029141  0.49125940320983835  1.0000
  C   C6        1.0  0.36128110065683217  0.7314921319824775  0.5087505285022118  1.0000
  C   C7        1.0  0.13870207175015284  0.26851025646674026  0.0087474343381118  1.0000
  C   C8        1.0  0.6387043732596069  0.23149482686415715  0.9912590977732876  1.0000
  C   C9        1.0  0.7080469403961304  0.9657238238035004  0.6444928163010815  1.0000
  C   C10       1.0  0.2080460637131623  0.5342734022524166  0.3555198209000494  1.0000
  C   C11       1.0  0.2919655403413657  0.46572635033898974  0.8555121676584961  1.0000
  C   C12       1.0  0.7919532187431957  0.03427714152964258  0.1444853464207227  1.0000
  C   C13       1.0  0.6702152001087994  0.040154861769927684  0.5463709189625305  1.0000
  C   C14       1.0  0.17022838390730044  0.4598336162728741  0.45362749070829983  1.0000
  C   C15       1.0  0.32978345280476873  0.5401596238062181  0.9536253626339359  1.0000
  C   C16       1.0  0.8297616304099192  0.9598386049399888  0.0463705979778979  1.0000
  C   C17       1.0  0.014382781004208298  0.908717870826024  0.7459745540983675  1.0000
  C   C18       1.0  0.5143982781189179  0.591279153090596  0.2540260939258445  1.0000
  C   C19       1.0  0.9856248783188024  0.40872236270193696  0.7540246920629201  1.0000
  C   C20       1.0  0.48560274646126794  0.09127695280499634  0.2459706082456492  1.0000
  C   C21       1.0  0.16036891841262246  0.013189026615854997  0.7505930259311029  1.0000
  C   C22       1.0  0.6603982709813607  0.48680732238621255  0.2494022999226004  1.0000
  C   C23       1.0  0.8396250195607138  0.5131906674093472  0.7494047323400039  1.0000
  C   C24       1.0  0.339610315997561  0.986818079934352  0.2505951011253842  1.0000
  N   N1        1.0  0.9060687514477409  0.9015356480992052  0.6440185354578318  1.0000
  N   N2        1.0  0.4060819465564124  0.5984617846120983  0.3559871214815757  1.0000
  N   N3        1.0  0.093935802903637  0.40154059741208675  0.8559806836970195  1.0000
  N   N4        1.0  0.5939237226118267  0.09846356348120365  0.1440190763343452  1.0000
  O   O1        1.0  0.8049252978846795  0.6702988147203044  0.4529950986597058  1.0000
  O   O2        1.0  0.3049152936878913  0.829702890888022  0.5470120915353149  1.0000
  O   O3        1.0  0.19507446727401856  0.17030757106729055  0.0470066351170502  1.0000
  O   O4        1.0  0.6950859261972512  0.32970019816278295  0.9529931698131406  1.0000
  O   O5        1.0  0.9129189398772368  0.8556453252373187  0.43543704681024303  1.0000
  O   O6        1.0  0.412906228916583  0.6443468604372454  0.5645622473954433  1.0000
  O   O7        1.0  0.08707994314959679  0.35565493280827093  0.0645669623298346  1.0000
  O   O8        1.0  0.5870666178955801  0.14435447511356608  0.93544389489373  1.0000
  O   O9        1.0  0.4900902246900999  0.05904775914239478  0.5147305992343547  1.0000
  O   O10       1.0  0.9900940937392804  0.44094455549042516  0.4852623009555401  1.0000
  O   O11       1.0  0.5099177337494964  0.5590406084655015  0.9852625971671785  1.0000
  O   O12       1.0  0.009895853543803  0.9409485295331236  0.0147365057232776  1.0000
  O   O13       1.0  0.8281505585780025  0.09114905604886298  0.5051921346991932  1.0000
  O   O14       1.0  0.32816236665194504  0.4088404625024537  0.49480116778878624  1.0000
  O   O15       1.0  0.17185751371164326  0.5911591143573104  0.9948067058654856  1.0000
  O   O16       1.0  0.6718336258088727  0.9088415766474749  0.005189627562259599  1.0000
  O   O17       1.0  0.2556778973287663  0.031585843645920895  0.8358474993639148  1.0000
  O   O18       1.0  0.7557034994162422  0.468416734676829  0.16414949248839147  1.0000
  O   O19       1.0  0.7443145659612328  0.5315834538091976  0.6641645310624611  1.0000
  O   O20       1.0  0.24430656218567753  0.968417312838248  0.33583758166510347  1.0000
  O   O21       1.0  0.1848290658812104  0.07512132549823039  0.6681180960885271  1.0000
  O   O22       1.0  0.684846567069343  0.4248803031894183  0.33188020607737206  1.0000
  O   O23       1.0  0.8151866481444685  0.5751294851039856  0.8318885746780823  1.0000
  O   O24       1.0  0.3151479425654885  0.9248853665697111  0.16811064962664804  1.0000
  O   O25       1.0  0.6626120892720094  0.30452392464452765  0.5685390939576465  1.0000
  O   O26       1.0  0.1626126603555491  0.19547505376773694  0.43145858266237974  1.0000
  O   O27       1.0  0.3373921209578584  0.8045338373671099  0.9314542368908505  1.0000
  O   O28       1.0  0.8373871941701198  0.6954731562500169  0.0685393005401309  1.0000
