data_image0
_chemical_formula_structural       Cd2H32C32N20O8
_chemical_formula_sum              "Cd2 H32 C32 N20 O8"
_cell_length_a       4.974392032072198
_cell_length_b       9.132006059011502
_cell_length_c       20.93416183258883
_cell_angle_alpha    90.00013304925035
_cell_angle_beta     94.3386211601689
_cell_angle_gamma    89.99986798499992

_space_group_name_H-M_alt    "P 1"
_space_group_IT_number       1

loop_
  _space_group_symop_operation_xyz
  'x, y, z'

loop_
  _atom_site_type_symbol
  _atom_site_label
  _atom_site_symmetry_multiplicity
  _atom_site_fract_x
  _atom_site_fract_y
  _atom_site_fract_z
  _atom_site_occupancy
  Cd  Cd1       1.0  0.49999888986884145  0.9999981573612615  0.5000002288616798  1.0000
  Cd  Cd2       1.0  0.4999996294323735  0.5000015466486758  1.2272693789873303e-07  1.0000
  H   H1        1.0  0.1988738596357607  0.5665665562904111  0.4287394833757717  1.0000
  H   H2        1.0  0.8011364701326542  0.06657213723561033  0.0712615849143035  1.0000
  H   H3        1.0  0.8011359861215653  0.4334304219156239  0.5712611501115461  1.0000
  H   H4        1.0  0.1988753916655526  0.9334336013664315  0.9287390829731096  1.0000
  H   H5        1.0  0.08987030789501202  0.3143199370192278  0.5001016585966127  1.0000
  H   H6        1.0  0.9101294603084115  0.8143215110845575  0.9998992108342863  1.0000
  H   H7        1.0  0.910125409879882  0.6856770411924559  0.4998977784700714  1.0000
  H   H8        1.0  0.08987637668850111  0.18567875227653025  0.00010278733628870002  1.0000
  H   H9        1.0  0.7159186799872613  0.22178534855581947  0.3817748147097362  1.0000
  H   H10       1.0  0.28406682747306883  0.7217944443076122  0.1182250323416767  1.0000
  H   H11       1.0  0.28406898135097686  0.7782072494632076  0.6182249625956333  1.0000
  H   H12       1.0  0.7159167705684409  0.2782134844037429  0.881772764880971  1.0000
  H   H13       1.0  0.7770192125560983  0.4540254843806367  0.326939385542417  1.0000
  H   H14       1.0  0.2229895844660561  0.9540327563179786  0.17306205009097655  1.0000
  H   H15       1.0  0.2229926570512646  0.54596930372621  0.6730617601643304  1.0000
  H   H16       1.0  0.7770141975264976  0.04597188723656131  0.8269375245630998  1.0000
  H   H17       1.0  0.6558213753893583  0.6173205501537711  0.36171463886461214  1.0000
  H   H18       1.0  0.3441766572488659  0.11732815049195013  0.13828627116968312  1.0000
  H   H19       1.0  0.3441804061373119  0.38267533300728473  0.6382858570384259  1.0000
  H   H20       1.0  0.6558190682918622  0.8826797782174511  0.8617136437267164  1.0000
  H   H21       1.0  0.748980179929447  0.5420538736492162  0.14581335545834412  1.0000
  H   H22       1.0  0.25102219037167117  0.04205506704328601  0.35418802983040376  1.0000
  H   H23       1.0  0.2510216171635591  0.4579463897129445  0.8541880960958255  1.0000
  H   H24       1.0  0.7489755590320897  0.9579441012690424  0.6458123972823131  1.0000
  H   H25       1.0  0.7986567354066736  0.35788188842128943  0.17056018459415165  1.0000
  H   H26       1.0  0.20134233051877  0.8578834443826224  0.3294390766067821  1.0000
  H   H27       1.0  0.20134100621175577  0.6421161848401341  0.8294397646935112  1.0000
  H   H28       1.0  0.7986554033078334  0.14211681897683096  0.6705603948573968  1.0000
  H   H29       1.0  0.2883620084483809  0.31176218756611723  0.24123300930566677  1.0000
  H   H30       1.0  0.7116332311542095  0.8117703987301186  0.25876757285490026  1.0000
  H   H31       1.0  0.7116357565433731  0.6882304104508494  0.7587683734529806  1.0000
  H   H32       1.0  0.28836246324736686  0.18823205472601504  0.7412304307407923  1.0000
  C   C1        1.0  0.2845636928490408  0.45737472555639885  0.4298975690578218  1.0000
  C   C2        1.0  0.7154390505390752  0.9573808387804664  0.07010424438708181  1.0000
  C   C3        1.0  0.715440112523339  0.5426211576047565  0.5701034390656832  1.0000
  C   C4        1.0  0.2845667864491688  0.042623804779204  0.9298977537855678  1.0000
  C   C5        1.0  0.23656260202059093  0.33464935038028204  0.4653750065279355  1.0000
  C   C6        1.0  0.7634426429136738  0.8346552160559426  0.03462672495917471  1.0000
  C   C7        1.0  0.7634391795082465  0.6653454377311335  0.5346254893745837  1.0000
  C   C8        1.0  0.2365652023431153  0.16535052255094485  0.9653748297854108  1.0000
  C   C9        1.0  0.5608013182354695  0.2790347034641628  0.4054869370118582  1.0000
  C   C10       1.0  0.4391920192076242  0.7790391001558703  0.0945126240736016  1.0000
  C   C11       1.0  0.43919238348122047  0.7209622747486862  0.5945124656588804  1.0000
  C   C12       1.0  0.5608036829771237  0.22096554340081556  0.905485857347664  1.0000
  C   C13       1.0  0.5962767267839338  0.5098315562623911  0.34174197787967137  1.0000
  C   C14       1.0  0.40372776366794483  0.009839188020166001  0.15825797778511236  1.0000
  C   C15       1.0  0.4037311029195223  0.4901632318455216  0.6582586212106707  1.0000
  C   C16       1.0  0.5962739866892477  0.9901665505826641  0.8417406068244874  1.0000
  C   C17       1.0  0.0397058373970225  0.42602709737072086  0.09357672344287953  1.0000
  C   C18       1.0  0.9602949828070919  0.9260248291961661  0.4064231145839016  1.0000
  C   C19       1.0  0.9602939202687892  0.5739764511377672  0.9064232602433224  1.0000
  C   C20       1.0  0.03970075053630499  0.07397543416696811  0.5935772781333881  1.0000
  C   C21       1.0  0.9020114297645065  0.4569761113728534  0.1553597815071797  1.0000
  C   C22       1.0  0.09798929136338329  0.9569778766232134  0.344641519337273  1.0000
  C   C23       1.0  0.0979883512724555  0.5430230569408253  0.8446416356505255  1.0000
  C   C24       1.0  0.9020064419821807  0.0430212916902803  0.6553588733795054  1.0000
  C   C25       1.0  0.39030707679516047  0.5309211002409171  0.28671892886445965  1.0000
  C   C26       1.0  0.6096953063809707  0.030929861346741905  0.21328053457499152  1.0000
  C   C27       1.0  0.6096967052212179  0.46907149776752277  0.713280645783904  1.0000
  C   C28       1.0  0.3903064517658875  0.9690747822077057  0.7867185278586251  1.0000
  C   C29       1.0  0.2647901675466571  0.42891281485473354  0.24553903899236224  1.0000
  C   C30       1.0  0.7352146655566756  0.9289176886892605  0.2544603927410591  1.0000
  C   C31       1.0  0.7352156305214307  0.5710830683014765  0.7544605700535032  1.0000
  C   C32       1.0  0.26478709259450994  0.0710847647658923  0.745538669691513  1.0000
  N   N1        1.0  0.49136606215799367  0.4201471894500913  0.3923118362880589  1.0000
  N   N2        1.0  0.5086307413871366  0.9201526643195241  0.1076874495513636  1.0000
  N   N3        1.0  0.5086316716772785  0.5798486937107799  0.6076876351740452  1.0000
  N   N4        1.0  0.49136698464330664  0.0798519792372545  0.8923115440903688  1.0000
  N   N5        1.0  0.4101031294231348  0.22432404387224378  0.4496641889013235  1.0000
  N   N6        1.0  0.5898944487744443  0.7243302090401473  0.0503349112821851  1.0000
  N   N7        1.0  0.5898925727810961  0.7756707442376296  0.5503342925152666  1.0000
  N   N8        1.0  0.41010528552454417  0.27567552956385555  0.949663638931483  1.0000
  N   N9        1.0  0.08511843507324102  0.5073216671933879  0.2079418492238005  1.0000
  N   N10       1.0  0.9148800560723558  0.0073282744731316  0.29206038999573286  1.0000
  N   N11       1.0  0.914879345491336  0.4926720258757485  0.7920604891844222  1.0000
  N   N12       1.0  0.0851217254434857  0.9926730839361543  0.7079401059099056  1.0000
  N   N13       1.0  0.2827031884310998  0.665109606014916  0.2716171933885292  1.0000
  N   N14       1.0  0.7173047120876462  0.16511721780279492  0.22838250045979447  1.0000
  N   N15       1.0  0.7173086500262826  0.33488518208689305  0.7283820410201117  1.0000
  N   N16       1.0  0.2826990854799051  0.8348874257542678  0.7716180298433386  1.0000
  N   N17       1.0  0.09826890798094469  0.6512342193240033  0.22337789568503305  1.0000
  N   N18       1.0  0.9017370469483053  0.15123966627513855  0.2766227062603832  1.0000
  N   N19       1.0  0.9017369056621405  0.34876166383472207  0.7766226690098821  1.0000
  N   N20       1.0  0.0982667506235799  0.8487627871826292  0.7233778240417053  1.0000
  O   O1        1.0  0.8882100528062437  0.3778409754734043  0.0469404896649763  1.0000
  O   O2        1.0  0.111792966286913  0.8778389169162822  0.45305885924896944  1.0000
  O   O3        1.0  0.11178970486172797  0.6221614779854364  0.9530594940207069  1.0000
  O   O4        1.0  0.8882027592733195  0.12215915634630654  0.5469410556427619  1.0000
  O   O5        1.0  0.2912436501049953  0.44865723812908703  0.0941780498761844  1.0000
  O   O6        1.0  0.7087530406853518  0.9486487100997185  0.4058212629864359  1.0000
  O   O7        1.0  0.7087540837042782  0.5513517856275316  0.9058214215921511  1.0000
  O   O8        1.0  0.2912406532373453  0.051351553260808216  0.5941776618613306  1.0000
