data_image0
_chemical_formula_structural       Zn4H48C64N8O16
_chemical_formula_sum              "Zn4 H48 C64 N8 O16"
_cell_length_a       7.407267831
_cell_length_b       7.407327014
_cell_length_c       29.262
_cell_angle_alpha    90.0
_cell_angle_beta     90.0
_cell_angle_gamma    90.0

_space_group_name_H-M_alt    "P 1"
_space_group_IT_number       1

loop_
  _space_group_symop_operation_xyz
  'x, y, z'

loop_
  _atom_site_type_symbol
  _atom_site_label
  _atom_site_symmetry_multiplicity
  _atom_site_fract_x
  _atom_site_fract_y
  _atom_site_fract_z
  _atom_site_occupancy
  Zn  Zn1       1.0  0.7429729997027862  0.6866228519933415  0.6915675620258386  1.0000
  Zn  Zn2       1.0  0.2570272931177371  0.3133775511210359  0.1915672202856982  1.0000
  Zn  Zn3       1.0  0.3133787049369587  0.7429697635325709  0.4415682455061187  1.0000
  Zn  Zn4       1.0  0.6866215878835575  0.2570306395818065  0.9415675620258386  1.0000
  H   H1        1.0  0.2788342540222644  0.0197372142101599  0.7461017702139259  1.0000
  H   H2        1.0  0.7211646887728165  0.9802604888749116  0.24610177021392596  1.0000
  H   H3        1.0  0.9802642709383065  0.2788306761800001  0.4961010867336456  1.0000
  H   H4        1.0  0.0197333218313318  0.7211710769490265  0.9961014284737859  1.0000
  H   H5        1.0  0.1026599844030969  0.46711721967457  0.7354422117421893  1.0000
  H   H6        1.0  0.8973403084174265  0.5328845334544567  0.23544221174218902  1.0000
  H   H7        1.0  0.5328806909722772  0.1026605141858496  0.4854428952224694  1.0000
  H   H8        1.0  0.4671223018991171  0.8973385389138712  0.9854428952224696  1.0000
  H   H9        1.0  0.4764523277030648  0.5543470663896882  0.8471693664137805  1.0000
  H   H10       1.0  0.5235479651174515  0.4456506366953831  0.3471693664137803  1.0000
  H   H11       1.0  0.4456541973795964  0.47644852094821016  0.5971700498940609  1.0000
  H   H12       1.0  0.5543447454154844  0.5235478321222118  0.0971700498940606  1.0000
  H   H13       1.0  0.3800294608248223  0.08452981741140768  0.823659695167791  1.0000
  H   H14       1.0  0.619970831995694  0.9154665356590144  0.3236590116875107  1.0000
  H   H15       1.0  0.9154725000789554  0.3800277744832385  0.5736590116875107  1.0000
  H   H16       1.0  0.0845277927415609  0.6199739786457883  0.0736593534276508  1.0000
  H   H17       1.0  0.948201166779171  0.3217354918306867  0.7819701319116916  1.0000
  H   H18       1.0  0.0517964259904744  0.6782649112836905  0.2819704736518318  1.0000
  H   H19       1.0  0.6782635803951678  0.9482030409519027  0.5319704736518318  1.0000
  H   H20       1.0  0.3217367124253485  0.0517960121478183  0.0319701319116916  1.0000
  H   H21       1.0  0.0046008866936589  0.891610426746041  0.8183757091107895  1.0000
  H   H22       1.0  0.9953967060759865  0.10839132638298567  0.3183753673706492  1.0000
  H   H23       1.0  0.1083894923631519  0.0046008499335315  0.5683753673706493  1.0000
  H   H24       1.0  0.8916094504319289  0.9954009031954951  0.0683757091107893  1.0000
  H   H25       1.0  0.7048509813766444  0.6468487203203138  0.789271068279682  1.0000
  H   H26       1.0  0.2951466113929939  0.3531530328087129  0.2892710682796817  1.0000
  H   H27       1.0  0.3531545044249924  0.7048493998080687  0.5392717517599622  1.0000
  H   H28       1.0  0.6468444383700884  0.2951496532916521  0.0392714100198219  1.0000
  H   H29       1.0  0.728441325885143  0.2335525347713485  0.8424424167862767  1.0000
  H   H30       1.0  0.2715589669353733  0.7664478683430218  0.3424424167862767  1.0000
  H   H31       1.0  0.7664485920490236  0.7284436058785813  0.5924420750461366  1.0000
  H   H32       1.0  0.2335530507969281  0.2715554472211394  0.0924417333059964  1.0000
  H   H33       1.0  0.3468336853229701  0.5600481782644806  0.6827578429362334  1.0000
  H   H34       1.0  0.6531652574721106  0.4399535748645461  0.1827581846763735  1.0000
  H   H35       1.0  0.439954389979178  0.3468336142233639  0.4327581846763735  1.0000
  H   H36       1.0  0.5600459028413383  0.6531667888910064  0.9327585264165139  1.0000
  H   H37       1.0  0.2451038684468472  0.6078292468376744  0.8872527510081343  1.0000
  H   H38       1.0  0.7548991244245471  0.3921684562473969  0.3872534344884144  1.0000
  H   H39       1.0  0.3921702395912732  0.24510056010333864  0.6372537762285546  1.0000
  H   H40       1.0  0.6078314032546857  0.7548984929963822  0.1372537762285546  1.0000
  H   H41       1.0  0.1027315357513245  0.9809422462741038  0.8981142779030835  1.0000
  H   H42       1.0  0.8972687570691917  0.019055456810967493  0.39811325268266273  1.0000
  H   H43       1.0  0.0190502089595626  0.1027307149477465  0.6481139361629433  1.0000
  H   H44       1.0  0.9809500838609537  0.8972696881666238  0.1481146196432235  1.0000
  H   H45       1.0  0.0134098026784315  0.5067293495893708  0.9425169161369669  1.0000
  H   H46       1.0  0.9865918401675273  0.4932697035103501  0.4425172578771069  1.0000
  H   H47       1.0  0.4932709446131511  0.013406995507594397  0.692517257877107  1.0000
  H   H48       1.0  0.5067293482073651  0.9865920575921264  0.1925172578771068  1.0000
  C   C1        1.0  0.038913133232974  0.87129000620628  0.724731050509192  1.0000
  C   C2        1.0  0.9610844595366714  0.1287103969080974  0.2247300252887712  1.0000
  C   C3        1.0  0.1287100752601376  0.03890877228118229  0.4747307087690516  1.0000
  C   C4        1.0  0.8712902175603787  0.961088930803889  0.9747313922493321  1.0000
  C   C5        1.0  0.1566380515018295  0.9566716828630106  0.7595123368190855  1.0000
  C   C6        1.0  0.8433595412678159  0.0433273702367174  0.25951131159865787  1.0000
  C   C7        1.0  0.0433277164161439  0.1566354499817706  0.509511653338798  1.0000
  C   C8        1.0  0.9566698763534944  0.843366303147256  0.009511995078945304  1.0000
  C   C9        1.0  0.2339931590898061  0.5048730794430654  0.7493028501127768  1.0000
  C   C10       1.0  0.7660098337815882  0.4951259736566555  0.2493031918529169  1.0000
  C   C11       1.0  0.4951258795653501  0.2339912895332077  0.49930353359305724  1.0000
  C   C12       1.0  0.5048744132551661  0.7660064135518638  0.9993031918529169  1.0000
  C   C13       1.0  0.3577999419581133  0.11584880731984977  0.9150994463809712  1.0000
  C   C14       1.0  0.6422017008878456  0.884152945809177  0.4150987629006906  1.0000
  C   C15       1.0  0.884150559885434  0.3578024832697081  0.6650984211605506  1.0000
  C   C16       1.0  0.1158524329859603  0.6421992698593186  0.1650984211605504  1.0000
  C   C17       1.0  0.4400137910984654  0.5568243432758493  0.8111605495181495  1.0000
  C   C18       1.0  0.5599851516966154  0.4431787598678341  0.31116054951814937  1.0000
  C   C19       1.0  0.4431782507257935  0.4400129755092266  0.5611612329984297  1.0000
  C   C20       1.0  0.5568220420947299  0.5599847275758449  0.06116089125828952  1.0000
  C   C21       1.0  0.1221638019099203  0.4668148163925493  0.8297570227598925  1.0000
  C   C22       1.0  0.877836490910596  0.5331842367071715  0.3297573645000328  1.0000
  C   C23       1.0  0.5331844466958913  0.12216282584658697  0.5797573645000327  1.0000
  C   C24       1.0  0.466815846124625  0.8778362272531339  0.0797573645000327  1.0000
  C   C25       1.0  0.2546782488551287  0.027931803146934397  0.8373152894538975  1.0000
  C   C26       1.0  0.7453220439653876  0.9720658999381371  0.3373146059736172  1.0000
  C   C27       1.0  0.9720682665025109  0.2546762140289687  0.5873146059736172  1.0000
  C   C28       1.0  0.0279320263180054  0.7453255391000653  0.0873149477137574  1.0000
  C   C29       1.0  0.9694910679408366  0.3660875231881562  0.8170600095687208  1.0000
  C   C30       1.0  0.0305078748542442  0.6339115299115647  0.3170603513088679  1.0000
  C   C31       1.0  0.6339125446968055  0.969490071982392  0.5670600095687208  1.0000
  C   C32       1.0  0.3660890981491534  0.0305089811173289  0.0670596678285804  1.0000
  C   C33       1.0  0.2657916582630477  0.5095063297282394  0.7965450071765405  1.0000
  C   C34       1.0  0.7342086345574755  0.49049272337148137  0.2965450071765403  1.0000
  C   C35       1.0  0.4904912422357341  0.265789534643055  0.5465453489166805  1.0000
  C   C36       1.0  0.5095090505847821  0.7342081684420165  0.046545348916680516  1.0000
  C   C37       1.0  0.1282024656953453  0.9530846939330215  0.8051257603718156  1.0000
  C   C38       1.0  0.8717964770997355  0.0469130091520498  0.3051247351513879  1.0000
  C   C39       1.0  0.0469147340056537  0.1282014413843484  0.5551250768915283  1.0000
  C   C40       1.0  0.9530842087894271  0.8718003117446783  0.0551254186316754  1.0000
  C   C41       1.0  0.5694339797391379  0.6054950715046132  0.7792850796254528  1.0000
  C   C42       1.0  0.4305649630559429  0.394505331609757  0.2792850796254527  1.0000
  C   C43       1.0  0.3945071336249342  0.5694334801241965  0.5292854213655929  1.0000
  C   C44       1.0  0.6054918091701467  0.4305655729755244  0.029285421365592906  1.0000
  C   C45       1.0  0.8458476381505662  0.3163907838239765  0.850348916683757  1.0000
  C   C46       1.0  0.1541526546699572  0.683606919261095  0.350349258423897  1.0000
  C   C47       1.0  0.6836083311053187  0.8458489800920219  0.6003489166837568  1.0000
  C   C48       1.0  0.3163919617152047  0.1541514230223484  0.1003489166837568  1.0000
  C   C49       1.0  0.37084928784452126  0.5555013289170248  0.7195137037796471  1.0000
  C   C50       1.0  0.629153705026873  0.4444977241826962  0.21951404551978732  1.0000
  C   C51       1.0  0.4444985756044275  0.37084767485060866  0.4695140455197873  1.0000
  C   C52       1.0  0.5555017172160888  0.6291513782491123  0.9695140455197873  1.0000
  C   C53       1.0  0.1353278999585825  0.5218994642322912  0.8755269632971123  1.0000
  C   C54       1.0  0.8646737428873692  0.4780982388527803  0.37552662155696487  1.0000
  C   C55       1.0  0.4780993587377651  0.1353254687021987  0.6255269632971123  1.0000
  C   C56       1.0  0.5219022841081866  0.8646749344121785  0.1255269632971121  1.0000
  C   C57       1.0  0.2264559670678921  0.03455902507290179  0.8829440913129647  1.0000
  C   C58       1.0  0.7735443257526241  0.9654386780121698  0.3829437495728243  1.0000
  C   C59       1.0  0.9654355915242476  0.226455507746536  0.6329434078326841  1.0000
  C   C60       1.0  0.0345647012962687  0.7735462453824906  0.13294374957282432  1.0000
  C   C61       1.0  0.0052245984461408  0.46768962588695456  0.9067001572004616  1.0000
  C   C62       1.0  0.994777044399811  0.5323080771981168  0.4067004989406087  1.0000
  C   C63       1.0  0.5323109802373196  0.005223206688036399  0.6567004989406087  1.0000
  C   C64       1.0  0.4676906626086321  0.9947771964263408  0.15670015720046146  1.0000
  N   N1        1.0  0.5354457393050112  0.6072649407132005  0.7339877657029561  1.0000
  N   N2        1.0  0.4645545535155122  0.3927395124451322  0.2339877657029561  1.0000
  N   N3        1.0  0.3927399503262237  0.5354428112197311  0.4839881074431035  1.0000
  N   N4        1.0  0.6072603424942926  0.4645548918653404  0.9839881074431036  1.0000
  N   N5        1.0  0.8639852299138511  0.3638235486169917  0.894656892898638  1.0000
  N   N6        1.0  0.1360150629066652  0.6361741544680795  0.3946572346387783  1.0000
  N   N7        1.0  0.6361778873822388  0.8639850769250754  0.644656892898638  1.0000
  N   N8        1.0  0.3638237554637199  0.1360139761746453  0.14465689289863806  1.0000
  O   O1        1.0  0.093034303028162  0.860009283775355  0.6842126307156067  1.0000
  O   O2        1.0  0.9069605896906054  0.13998841930971648  0.18421194723531903  1.0000
  O   O3        1.0  0.1399908878223997  0.09302950965950167  0.4342122889754663  1.0000
  O   O4        1.0  0.8600094049981166  0.9069708934548755  0.9342126307156067  1.0000
  O   O5        1.0  0.5032894833906241  0.18536241175864623  0.8971051192673087  1.0000
  O   O6        1.0  0.4967094594044497  0.814640691385037  0.3971058027475891  1.0000
  O   O7        1.0  0.8146404501192919  0.5032935623003922  0.6471040940468882  1.0000
  O   O8        1.0  0.1853571426503464  0.4967068408139781  0.14710409404688826  1.0000
  O   O9        1.0  0.3262984483812943  0.11363748332010457  0.9572964937461566  1.0000
  O   O10       1.0  0.6737045444900929  0.8863683198528776  0.457295810265876  1.0000
  O   O11       1.0  0.8863605515278934  0.32630124138326266  0.707295468525736  1.0000
  O   O12       1.0  0.1136464914198143  0.6737018617604135  0.2072954685257358  1.0000
  O   O13       1.0  0.8854938351965203  0.8061328990490253  0.7392526143120791  1.0000
  O   O14       1.0  0.1145024075476826  0.1938688540800015  0.2392519308317986  1.0000
  O   O15       1.0  0.1938636529369475  0.8854908103291663  0.4892529560522192  1.0000
  O   O16       1.0  0.8061352898581333  0.1145109427998605  0.9892526143120791  1.0000
