data_image0
_chemical_formula_structural       Ca2H24C28N4O20
_chemical_formula_sum              "Ca2 H24 C28 N4 O20"
_cell_length_a       7.665068131446476
_cell_length_b       10.185188536304953
_cell_length_c       11.17801657944451
_cell_angle_alpha    81.31198286539404
_cell_angle_beta     81.77273194433218
_cell_angle_gamma    89.81431269523291

_space_group_name_H-M_alt    "P 1"
_space_group_IT_number       1

loop_
  _space_group_symop_operation_xyz
  'x, y, z'

loop_
  _atom_site_type_symbol
  _atom_site_label
  _atom_site_symmetry_multiplicity
  _atom_site_fract_x
  _atom_site_fract_y
  _atom_site_fract_z
  _atom_site_occupancy
  Ca  Ca1       1.0  0.23996788352514642  0.972766630810753  0.04405847567630873  1.0000
  Ca  Ca2       1.0  0.7600310365708581  0.027232743404319106  0.9559413784431712  1.0000
  H   H1        1.0  0.9823793933626779  0.6923913837906925  0.7901238400411117  1.0000
  H   H2        1.0  0.017620873828271  0.30760898915295354  0.20987395898105632  1.0000
  H   H3        1.0  0.926514966410551  0.6089404760011876  0.6016901097215667  1.0000
  H   H4        1.0  0.07348665784018493  0.3910618877463747  0.3983072864681817  1.0000
  H   H5        1.0  0.04945014718136062  0.7333161503062373  0.3948146079151584  1.0000
  H   H6        1.0  0.9505541136048664  0.2666862215239973  0.6051825348287211  1.0000
  H   H7        1.0  0.22404168580868603  0.9426809683810831  0.3820237196137556  1.0000
  H   H8        1.0  0.775959948406893  0.05732238744181471  0.6179753288408847  1.0000
  H   H9        1.0  0.38358956648161074  0.6864214722360132  0.7884469750403866  1.0000
  H   H10       1.0  0.6164067364749287  0.31357888727765737  0.21155299447021045  1.0000
  H   H11       1.0  0.5703097544004267  0.6742617668699042  0.5881479292840054  1.0000
  H   H12       1.0  0.4296931498596735  0.32573960492582194  0.4118530588768294  1.0000
  H   H13       1.0  0.68110557393549  0.45354207410164804  0.5403784068986184  1.0000
  H   H14       1.0  0.31889991392127126  0.5464573170552711  0.45962528940530223  1.0000
  H   H15       1.0  0.5950714476653405  0.24861123650306652  0.6881587307538838  1.0000
  H   H16       1.0  0.4049314324831387  0.7513891412584003  0.3118432906215176  1.0000
  H   H17       1.0  0.14158280974061913  0.6873974275892966  0.1052924670615809  1.0000
  H   H18       1.0  0.8584160909593593  0.312600953244484  0.8947075251126437  1.0000
  H   H19       1.0  0.972239488724725  0.7698422881619466  0.12788121487457005  1.0000
  H   H20       1.0  0.027760730242995604  0.23015609671318063  0.8721186505767309  1.0000
  H   H21       1.0  0.4616953652651788  0.08922366814049101  0.19880211086202587  1.0000
  H   H22       1.0  0.5383035307192118  0.910774712040322  0.8011987764720204  1.0000
  H   H23       1.0  0.2759870013266124  0.1515332440840069  0.23220549397982646  1.0000
  H   H24       1.0  0.7240132564331605  0.8484671275536897  0.7677940953619784  1.0000
  C   C1        1.0  0.13190052361760965  0.864792142358013  0.6939347529636564  1.0000
  C   C2        1.0  0.8680997582537703  0.13520922331394306  0.3060638031635818  1.0000
  C   C3        1.0  0.03378434943261511  0.747311776973355  0.7004808984509908  1.0000
  C   C4        1.0  0.9662172360260756  0.2526886000116307  0.2995167738482466  1.0000
  C   C5        1.0  0.0044502356198635054  0.7000313519907027  0.593925727034936  1.0000
  C   C6        1.0  0.9955500703631376  0.29997100771551294  0.40607179587774317  1.0000
  C   C7        1.0  0.07304279043454191  0.7685874861840603  0.47866408161341684  1.0000
  C   C8        1.0  0.9269588291006061  0.23141487691052737  0.5213342097361533  1.0000
  C   C9        1.0  0.17093003029381043  0.8854199287280763  0.4702417322608667  1.0000
  C   C10       1.0  0.8290702662580075  0.1145824296721898  0.5297575809714559  1.0000
  C   C11       1.0  0.19793226859448515  0.9320750478744204  0.5775414954733549  1.0000
  C   C12       1.0  0.80207066449281  0.06792731860853253  0.4224575643130991  1.0000
  C   C13       1.0  0.16547622294135075  0.9077923508521125  0.8119206467987611  1.0000
  C   C14       1.0  0.8345214029985257  0.09220801335587232  0.18807830082909055  1.0000
  C   C15       1.0  0.38244433161180785  0.47494221056697944  0.8447149437209589  1.0000
  C   C16       1.0  0.6175545884841966  0.5250571636480926  0.15528491039852813  1.0000
  C   C17       1.0  0.4273120406337371  0.5913395125786283  0.7627019704442973  1.0000
  C   C18       1.0  0.5726868747466795  0.4086598609834696  0.23729877883499745  1.0000
  C   C19       1.0  0.5346553773149552  0.5836212611702081  0.6524894517856765  1.0000
  C   C20       1.0  0.46534617460094563  0.4163781204745761  0.3475110440477636  1.0000
  C   C21       1.0  0.5970824250242334  0.46041476713271123  0.6265066632899519  1.0000
  C   C22       1.0  0.402920474520272  0.5395866040100401  0.37349522003070496  1.0000
  C   C23       1.0  0.5504712599374175  0.3451003259677422  0.7092036293083553  1.0000
  C   C24       1.0  0.4495290077871915  0.6549010377452974  0.2907976122983413  1.0000
  C   C25       1.0  0.4408768000726796  0.34989853404703564  0.8196526351732702  1.0000
  C   C26       1.0  0.5591234529714981  0.6501018369376935  0.18034784932835635  1.0000
  C   C27       1.0  0.3815673897591339  0.22050486361987254  0.8981119798885119  1.0000
  C   C28       1.0  0.6184302120691215  0.7794945065538601  0.10188800095389892  1.0000
  N   N1        1.0  0.29099058385199356  0.05975377755189022  0.5659732100796832  1.0000
  N   N2        1.0  0.7090109974247626  0.9402475895495216  0.4340287999639045  1.0000
  N   N3        1.0  0.2824413419070809  0.4888948443784856  0.963609970497352  1.0000
  N   N4        1.0  0.7175549222574136  0.5111035283726153  0.03639027512273428  1.0000
  O   O1        1.0  0.37313091106305774  0.10661689843025363  0.4644540042941118  1.0000
  O   O2        1.0  0.6268733161803726  0.8933844780597797  0.5355459619839777  1.0000
  O   O3        1.0  0.27992657217260597  0.11625014069394268  0.6576280281960438  1.0000
  O   O4        1.0  0.720074999139314  0.8837502343321267  0.3423723295826449  1.0000
  O   O5        1.0  0.03751798211074232  0.951293804515274  0.8782855872448254  1.0000
  O   O6        1.0  0.9624796244331082  0.04870556631141911  0.12171349843777085  1.0000
  O   O7        1.0  0.3163545226141552  0.8882121738526441  0.8453476664793202  1.0000
  O   O8        1.0  0.6836444074466927  0.11178819243777131  0.154653839905059  1.0000
  O   O9        1.0  0.18062443300590306  0.5844830420988958  0.9684919864781278  1.0000
  O   O10       1.0  0.8193731447107455  0.4155153340405775  0.031509027578849165  1.0000
  O   O11       1.0  0.3076700027117101  0.4082198711344987  0.05401590369785231  1.0000
  O   O12       1.0  0.6923222626082579  0.591775511307624  0.9459824507758087  1.0000
  O   O13       1.0  0.21785580733810417  0.19724663641241597  0.9299654657007894  1.0000
  O   O14       1.0  0.7821417944901583  0.8027527337613097  0.07003451514162153  1.0000
  O   O15       1.0  0.49744798740540125  0.13617158103760124  0.9248856578905065  1.0000
  O   O16       1.0  0.5025496291032924  0.8638287818644416  0.07511508005698178  1.0000
  O   O17       1.0  0.0973005219491085  0.7639830367115438  0.1433345187242097  1.0000
  O   O18       1.0  0.902698398146896  0.23601633750352854  0.8566653353952703  1.0000
  O   O19       1.0  0.3324645731703769  0.0735054833532587  0.20500295328037774  1.0000
  O   O20       1.0  0.6675343663216466  0.9264948842430982  0.7949967627843577  1.0000
