data_image0
_chemical_formula_structural       Gd2Zn2H32C52N4Cl2O22
_chemical_formula_sum              "Gd2 Zn2 H32 C52 N4 Cl2 O22"
_cell_length_a       8.279004904087925
_cell_length_b       12.841319079735435
_cell_length_c       13.304212415646955
_cell_angle_alpha    106.6814405657918
_cell_angle_beta     104.51296430577129
_cell_angle_gamma    93.57330380386342

_space_group_name_H-M_alt    "P 1"
_space_group_IT_number       1

loop_
  _space_group_symop_operation_xyz
  'x, y, z'

loop_
  _atom_site_type_symbol
  _atom_site_label
  _atom_site_symmetry_multiplicity
  _atom_site_fract_x
  _atom_site_fract_y
  _atom_site_fract_z
  _atom_site_occupancy
  Gd  Gd1       1.0  0.7539543564246928  0.5100354580810418  0.5105415146045758  1.0000
  Gd  Gd2       1.0  0.2460473015525153  0.4899667316227081  0.4894596171355871  1.0000
  Zn  Zn1       1.0  0.6764886351695053  0.7812720092194282  0.33397014013068116  1.0000
  Zn  Zn2       1.0  0.32351375325897186  0.21872771587112538  0.6660326715879563  1.0000
  H   H1        1.0  0.9975833443819582  0.4173286822421004  0.6405028645638566  1.0000
  H   H2        1.0  0.002419033596069705  0.5826710531271928  0.3594954385394685  1.0000
  H   H3        1.0  0.8584534977840975  0.4165574596351434  0.7052501861565972  1.0000
  H   H4        1.0  0.14154905472987173  0.5834430973204121  0.29474837337105697  1.0000
  H   H5        1.0  0.572436535965913  0.2557200116614808  0.9416933536006907  1.0000
  H   H6        1.0  0.4275544297131971  0.744278852843898  0.058303690019947375  1.0000
  H   H7        1.0  0.3531113944518792  0.1459911577464652  0.9784779262121716  1.0000
  H   H8        1.0  0.6468844007354306  0.8540068977468206  0.021523397938785913  1.0000
  H   H9        1.0  0.26134357787416457  0.22044968539857732  0.14933724620773597  1.0000
  H   H10       1.0  0.7386580870700145  0.7795524974526769  0.8506668912759635  1.0000
  H   H11       1.0  0.7059023053404516  0.4993286111374786  0.8941883729557529  1.0000
  H   H12       1.0  0.2941000569619092  0.5006711396499384  0.10580316722459317  1.0000
  H   H13       1.0  0.9527780655549805  0.3084824418114849  0.08937497536037137  1.0000
  H   H14       1.0  0.04720737769739707  0.6915139402215683  0.9106190163402841  1.0000
  H   H15       1.0  0.0895074349896277  0.22849116349653537  0.9381221420756628  1.0000
  H   H16       1.0  0.910492099732295  0.7715069147040977  0.06187676116316952  1.0000
  H   H17       1.0  0.022192241212920297  0.28751996721512535  0.773456487490364  1.0000
  H   H18       1.0  0.9778135359365479  0.7124781391233695  0.22654263903160643  1.0000
  H   H19       1.0  0.9576325840541813  0.01633357566255  0.8969152966910626  1.0000
  H   H20       1.0  0.04236873181812226  0.9836669640161798  0.10308832794398619  1.0000
  H   H21       1.0  0.23981036688215338  0.9548057713305269  0.9522650135896953  1.0000
  H   H22       1.0  0.7601909524736287  0.04519476492195909  0.04774011391712916  1.0000
  H   H23       1.0  0.3267651937150262  0.8069902393507036  0.8161647263310243  1.0000
  H   H24       1.0  0.6732378911154697  0.19301277379800294  0.1838383596490445  1.0000
  H   H25       1.0  0.4842577490450282  0.04145720691710858  0.7178355180250265  1.0000
  H   H26       1.0  0.5157432090466896  0.9585416981547326  0.28216383658193667  1.0000
  H   H27       1.0  0.9276364751311661  0.0170469455997946  0.601021906966629  1.0000
  H   H28       1.0  0.07236732970014968  0.9829536132144552  0.39897835037660184  1.0000
  H   H29       1.0  0.8486093289364192  0.16788285231574213  0.5234153224817175  1.0000
  H   H30       1.0  0.1513893060235247  0.8321168637724625  0.4765838986619642  1.0000
  H   H31       1.0  0.5882023016206684  0.2507889875811387  0.5473978651354654  1.0000
  H   H32       1.0  0.4117974076371879  0.7492099122057494  0.4526012945276959  1.0000
  C   C1        1.0  0.4367384045339763  0.36926005422139935  0.2071527369354981  1.0000
  C   C2        1.0  0.5632643294828981  0.6307413174679153  0.7928490847600285  1.0000
  C   C3        1.0  0.5667196810372772  0.43053775039306424  0.18895440065936944  1.0000
  C   C4        1.0  0.4332800247371011  0.5694611528200751  0.8110432561320166  1.0000
  C   C5        1.0  0.6150552474373612  0.3881505289511579  0.09300141423417324  1.0000
  C   C6        1.0  0.3849408828878963  0.6118491834196431  0.9069944112783545  1.0000
  C   C7        1.0  0.5376236777435963  0.28642620464650287  0.017371209211674447  1.0000
  C   C8        1.0  0.4623701364168511  0.7135743118881661  0.9826274885811086  1.0000
  C   C9        1.0  0.41253063709852716  0.22499886079789633  0.03861965276545481  1.0000
  C   C10       1.0  0.5874653308829778  0.7750000179947777  0.9613811763739476  1.0000
  C   C11       1.0  0.3608925241627574  0.2661376573080148  0.13223171421812194  1.0000
  C   C12       1.0  0.6391075376504602  0.7338628822251465  0.8677694611654656  1.0000
  C   C13       1.0  0.3703342849818369  0.41233811382903685  0.3027340782122393  1.0000
  C   C14       1.0  0.6296671984594369  0.5876632542884508  0.6972667971035945  1.0000
  C   C15       1.0  0.6547213203757423  0.541405460676863  0.2664576086787847  1.0000
  C   C16       1.0  0.3452783888821145  0.4585934391100252  0.7335415509843697  1.0000
  C   C17       1.0  0.7890729779734188  0.4385705608326162  0.9049770909416704  1.0000
  C   C18       1.0  0.2109265462980545  0.5614275276467637  0.09501730368184266  1.0000
  C   C19       1.0  0.8166166261565448  0.40648747332787843  0.9986587970811485  1.0000
  C   C20       1.0  0.1833775554493542  0.5935089491260683  0.0013350563543709836  1.0000
  C   C21       1.0  0.926400074614726  0.3307909056472979  0.01429306055881335  1.0000
  C   C22       1.0  0.07359286164079748  0.6692055080954445  0.9857021008046798  1.0000
  C   C23       1.0  0.0014448475424444004  0.28720184331519494  0.9317397489204211  1.0000
  C   C24       1.0  0.9985520149758216  0.7127954027292771  0.06825850800647242  1.0000
  C   C25       1.0  0.9655041107118835  0.32155961566357394  0.8392209798484416  1.0000
  C   C26       1.0  0.034497919936008245  0.6784384748200832  0.16077756184211  1.0000
  C   C27       1.0  0.09473155182344331  0.7824195926172166  0.6905209751201224  1.0000
  C   C28       1.0  0.9052711821934307  0.2175817790720984  0.3094808465754041  1.0000
  C   C29       1.0  0.9362400592463728  0.8160166989167337  0.6594445377818373  1.0000
  C   C30       1.0  0.06376035512220568  0.18398548036269347  0.3405586533221764  1.0000
  C   C31       1.0  0.8920237811857633  0.9012932765459993  0.7350740059581468  1.0000
  C   C32       1.0  0.1079775329447941  0.09870726484585647  0.2649288672410179  1.0000
  C   C33       1.0  0.9983553511405602  0.9505733314002425  0.8404799083356732  1.0000
  C   C34       1.0  0.0016450701949821973  0.04942884102668187  0.1595262885118842  1.0000
  C   C35       1.0  0.15502666678415267  0.9164064340022404  0.8703140279310231  1.0000
  C   C36       1.0  0.8449719786262335  0.0835932718072101  0.12968970182797787  1.0000
  C   C37       1.0  0.20424978566947513  0.8339483277564738  0.7948851476354405  1.0000
  C   C38       1.0  0.7957504559049013  0.16605302822357257  0.20511853848012854  1.0000
  C   C39       1.0  0.14328895384274892  0.6865724723151629  0.6161898295392801  1.0000
  C   C40       1.0  0.8567141292460008  0.3134305425466692  0.3838125050048972  1.0000
  C   C41       1.0  0.8181776355470946  0.7698288725642611  0.5453404544063358  1.0000
  C   C42       1.0  0.18182527300571394  0.23017332071131588  0.45466162371351254  1.0000
  C   C43       1.0  0.5683798330077963  0.06756969827100788  0.6754289662056292  1.0000
  C   C44       1.0  0.43162005078600163  0.9324300231021424  0.32457044988185396  1.0000
  C   C45       1.0  0.7102935502942671  0.0175165059018951  0.6644640950756225  1.0000
  C   C46       1.0  0.28970883465072467  0.9824832226148955  0.33553721377124646  1.0000
  C   C47       1.0  0.8147214609104906  0.0533878324720689  0.6096239097119422  1.0000
  C   C48       1.0  0.1852784228833072  0.9466118889010812  0.39037550637554813  1.0000
  C   C49       1.0  0.7699099924829228  0.13775442635166257  0.5663945880765766  1.0000
  C   C50       1.0  0.23008971503318779  0.8622444751483511  0.4336038201506937  1.0000
  C   C51       1.0  0.6266804765540357  0.18466242515088274  0.5798124679841264  1.0000
  C   C52       1.0  0.37331923096208197  0.8153364763491312  0.42018594024314376  1.0000
  N   N1        1.0  0.8628963800527103  0.3964845027769214  0.8261496352403623  1.0000
  N   N2        1.0  0.1371068907203323  0.6035136015573029  0.17384534421456974  1.0000
  N   N3        1.0  0.5288000415687151  0.14994284082335696  0.6344258782827338  1.0000
  N   N4        1.0  0.4711998422250828  0.8500568805497933  0.36557353780474944  1.0000
  Cl  Cl1       1.0  0.7729945346092464  0.8744180537126383  0.23869216618606967  1.0000
  Cl  Cl2       1.0  0.22700662510069955  0.12557592712659726  0.7613058448187289  1.0000
  O   O1        1.0  0.2197611209081884  0.3813726677045039  0.2960291955113731  1.0000
  O   O2        1.0  0.7802414368310053  0.6186278841116745  0.7039716183239405  1.0000
  O   O3        1.0  0.46630418146989433  0.48355729071548115  0.39264308071788173  1.0000
  O   O4        1.0  0.5336971291771773  0.5164432541026257  0.6073582896095144  1.0000
  O   O5        1.0  0.78202475779009  0.5439430796956514  0.3445720399125136  1.0000
  O   O6        1.0  0.217977621929677  0.45605665396052325  0.6554270146266957  1.0000
  O   O7        1.0  0.5969405755471869  0.6243800070402087  0.24557532482183564  1.0000
  O   O8        1.0  0.40306198393374615  0.375620543062844  0.7544262404493621  1.0000
  O   O9        1.0  0.7380691332255723  0.4548175295870536  0.07757501341231428  1.0000
  O   O10       1.0  0.26192057316923467  0.5451813399121264  0.9224173266491957  1.0000
  O   O11       1.0  0.2940854399009893  0.6812261149944091  0.6139065606156535  1.0000
  O   O12       1.0  0.7059153217977324  0.3187777091706606  0.3860963919011268  1.0000
  O   O13       1.0  0.026187802915259815  0.6058008263510573  0.5552615565455454  1.0000
  O   O14       1.0  0.9738143769280329  0.39420382982459745  0.4447395930317056  1.0000
  O   O15       1.0  0.6977993665397122  0.6936601444664062  0.5216195664453025  1.0000
  O   O16       1.0  0.30220478910521825  0.3063420558072423  0.4783819551824706  1.0000
  O   O17       1.0  0.8493538770040489  0.8170469622805143  0.47841914520816414  1.0000
  O   O18       1.0  0.1506492078264401  0.18295605086819927  0.5215839407719044  1.0000
  O   O19       1.0  0.7322622486414474  0.9325559182570016  0.7081294642272693  1.0000
  O   O20       1.0  0.2677395890969266  0.06744708789363328  0.2918741782448748  1.0000
  O   O21       1.0  0.8747399754773683  0.4114362420010948  0.6306423286834145  1.0000
  O   O22       1.0  0.12526275331428138  0.588565134827597  0.36935723870445253  1.0000
