data_image0
_chemical_formula_structural       Cd2H40C36N4O20
_chemical_formula_sum              "Cd2 H40 C36 N4 O20"
_cell_length_a       9.758994394407935
_cell_length_b       9.402150490607797
_cell_length_c       14.022636146144698
_cell_angle_alpha    105.72400115895714
_cell_angle_beta     90.00431850290666
_cell_angle_gamma    121.28713821306118

_space_group_name_H-M_alt    "P 1"
_space_group_IT_number       1

loop_
  _space_group_symop_operation_xyz
  'x, y, z'

loop_
  _atom_site_type_symbol
  _atom_site_label
  _atom_site_symmetry_multiplicity
  _atom_site_fract_x
  _atom_site_fract_y
  _atom_site_fract_z
  _atom_site_occupancy
  Cd  Cd1       1.0  0.36689663341721257  0.9999975850885858  0.7499883873027926  1.0000
  Cd  Cd2       1.0  0.6331042601208097  0.9999989370487724  0.2500106784828944  1.0000
  H   H1        1.0  0.6012590173241745  0.3161297842442392  0.7488256128341677  1.0000
  H   H2        1.0  0.2849793759737195  0.6840104442025988  0.7512055631790986  1.0000
  H   H3        1.0  0.3987360779135328  0.6838688722563971  0.2511684226286093  1.0000
  H   H4        1.0  0.7150207089868559  0.3159858957621394  0.24879238218571234  1.0000
  H   H5        1.0  0.46880684618454893  0.35223523012148655  0.7980829886381144  1.0000
  H   H6        1.0  0.11628732179516982  0.6476889249128702  0.701904159388846  1.0000
  H   H7        1.0  0.5311905021583028  0.6477638329528687  0.20191682155310528  1.0000
  H   H8        1.0  0.8837144749495282  0.3523046916666956  0.2980919210760433  1.0000
  H   H9        1.0  0.06803941877608821  0.03683878369962909  0.39603305487102614  1.0000
  H   H10       1.0  0.03132417261845417  0.963077999190439  0.10393303145781366  1.0000
  H   H11       1.0  0.9319601080868832  0.9631666836061823  0.6039656434665304  1.0000
  H   H12       1.0  0.9686749073460633  0.036922477018222793  0.8960684331898535  1.0000
  H   H13       1.0  0.06644792334607529  0.18303471947213978  0.2714191624409494  1.0000
  H   H14       1.0  0.8834795470049172  0.8170537221824785  0.22858950267562506  1.0000
  H   H15       1.0  0.9335620569950221  0.8169773065280452  0.7285805900991633  1.0000
  H   H16       1.0  0.1165137020035374  0.18294533978964714  0.7714103072214941  1.0000
  H   H17       1.0  0.33144390177838556  0.41549048700192515  0.24325502131112842  1.0000
  H   H18       1.0  0.9156484569347043  0.5844976488661189  0.2568116635123801  1.0000
  H   H19       1.0  0.6685717496439169  0.5845205845682815  0.7567495736912734  1.0000
  H   H20       1.0  0.08434376724014919  0.4155014128304515  0.7431881463112122  1.0000
  H   H21       1.0  0.5939685722190264  0.49930993788573363  0.3452430856820712  1.0000
  H   H22       1.0  0.09428715000611727  0.5005504642156211  0.1548642020567357  1.0000
  H   H23       1.0  0.4060419080637842  0.5006907951181744  0.6547619888877351  1.0000
  H   H24       1.0  0.9057044690996323  0.4994473876335094  0.845136840674634  1.0000
  H   H25       1.0  0.5732525205832388  0.33702481304226944  0.4640951837915709  1.0000
  H   H26       1.0  0.23592252292399957  0.6626596082292835  0.03595016598743678  1.0000
  H   H27       1.0  0.42675154910414637  0.662973346630487  0.5359101907581376  1.0000
  H   H28       1.0  0.7640715656134418  0.33733703459906644  0.9640521098722701  1.0000
  H   H29       1.0  0.4389855017066396  0.15488249587872358  0.5413750930339916  1.0000
  H   H30       1.0  0.28380987155178145  0.8447108703266081  0.9584978871434728  1.0000
  H   H31       1.0  0.5610119793771204  0.8451127351931048  0.45862552873689577  1.0000
  H   H32       1.0  0.7161882090088838  0.15528965635931513  0.0415042992533472  1.0000
  H   H33       1.0  0.2295936084335394  0.8353096985009641  0.5112987679058989  1.0000
  H   H34       1.0  0.39442638620631243  0.16423074149125938  0.9885793031912019  1.0000
  H   H35       1.0  0.7704067437130746  0.16468512737493055  0.488696079504173  1.0000
  H   H36       1.0  0.6055714581902549  0.8357672642696841  0.011423905449333877  1.0000
  H   H37       1.0  0.11637254722489114  0.8325470832298193  0.4129779563518383  1.0000
  H   H38       1.0  0.2840020271368502  0.16723131499357885  0.086858869308827  1.0000
  H   H39       1.0  0.883623305660379  0.1674530876352165  0.5870191771392116  1.0000
  H   H40       1.0  0.716000203617689  0.8327693143002222  0.9131447610274395  1.0000
  C   C1        1.0  0.1794749407448677  0.1416323969712819  0.3825323615388641  1.0000
  C   C2        1.0  0.03790659642685049  0.8582938956866357  0.11747644515699557  1.0000
  C   C3        1.0  0.8205276097594093  0.8583729696555407  0.6174648933739205  1.0000
  C   C4        1.0  0.9620941642998633  0.14170789215067706  0.8825252303017734  1.0000
  C   C5        1.0  0.18141530892621197  0.22459567150904997  0.3142587112718616  1.0000
  C   C6        1.0  0.9568255493575107  0.7754024727754538  0.18578720644281074  1.0000
  C   C7        1.0  0.8185919602269109  0.7754191283535831  0.6857436279173257  1.0000
  C   C8        1.0  0.04316974931814601  0.22459658974779023  0.8142126036013625  1.0000
  C   C9        1.0  0.330284172975297  0.3539899760486591  0.2990441849955729  1.0000
  C   C10       1.0  0.9760979200973879  0.6459506658805269  0.2010279787597753  1.0000
  C   C11       1.0  0.6697271231109739  0.6460144369748592  0.7009579126000675  1.0000
  C   C12       1.0  0.023895379770550586  0.35404849759724755  0.7989732747826894  1.0000
  C   C13       1.0  0.47433392959669624  0.3990822902910977  0.3538535488621122  1.0000
  C   C14       1.0  0.07496437402894432  0.6007566779158113  0.14623062854869323  1.0000
  C   C15       1.0  0.5256763670857225  0.600922173209682  0.6461492704826811  1.0000
  C   C16       1.0  0.9250303195776013  0.39924117475997883  0.8537704144032432  1.0000
  C   C17       1.0  0.46607001715606333  0.3118330978794218  0.4209872853308667  1.0000
  C   C18       1.0  0.15397668034064074  0.6878979462586728  0.07904802661501262  1.0000
  C   C19       1.0  0.5339287447629317  0.6881687909124281  0.579015833626201  1.0000
  C   C20       1.0  0.8460197448875776  0.3121013195514237  0.9209546707933713  1.0000
  C   C21       1.0  0.3128590328430079  0.093167826270907  0.506002475105575  1.0000
  C   C22       1.0  0.219550001931445  0.9065178926331755  0.9939255865717699  1.0000
  C   C23       1.0  0.6871413645708913  0.9068311868772978  0.4939966134835387  1.0000
  C   C24       1.0  0.7804504972014215  0.09348132352632628  0.006076389308041999  1.0000
  C   C25       1.0  0.2197132705643625  0.12533782512915784  0.5905395813052721  1.0000
  C   C26       1.0  0.09416281519312242  0.8744765905234287  0.9094207656998421  1.0000
  C   C27       1.0  0.7802862093271089  0.8746573049881263  0.40945959696731654  1.0000
  C   C28       1.0  0.905838339868332  0.12552393698916828  0.09058142091755171  1.0000
  C   C29       1.0  0.2409559261944167  0.8974572355056692  0.45331585841121574  1.0000
  C   C30       1.0  0.3435791049887841  0.10221479221713278  0.0466033342327563  1.0000
  C   C31       1.0  0.759038932879193  0.1025389000699803  0.5466791992952836  1.0000
  C   C32       1.0  0.6564192936174039  0.8977843218856023  0.9533971978546633  1.0000
  C   C33       1.0  0.3446371582028577  0.8610297664132319  0.381330588249611  1.0000
  C   C34       1.0  0.48370492704921003  0.1386835633314405  0.11861147643708142  1.0000
  C   C35       1.0  0.6553546263699631  0.13896636833575116  0.6186644692363075  1.0000
  C   C36       1.0  0.5162948652955845  0.8613142399693172  0.881388845059803  1.0000
  N   N1        1.0  0.32027309323918723  0.18512261075837694  0.4338348702056649  1.0000
  N   N2        1.0  0.13502838605113243  0.8146232673267589  0.06614459897676278  1.0000
  N   N3        1.0  0.6797285087207214  0.81488290785137  0.5661645501016112  1.0000
  N   N4        1.0  0.8649707193431269  0.18537725963472695  0.9338575874935773  1.0000
  O   O1        1.0  0.215446772771557  0.059800006418122095  0.6602194380342256  1.0000
  O   O2        1.0  0.15544833681959583  0.9401226392553709  0.839775628091502  1.0000
  O   O3        1.0  0.784546409427854  0.9401845818460115  0.3397773324415567  1.0000
  O   O4        1.0  0.8445511629094185  0.0598766273813922  0.1602270695374557  1.0000
  O   O5        1.0  0.15526565721649624  0.20938526117323866  0.5860088119659396  1.0000
  O   O6        1.0  0.9456321387267222  0.7904374001708376  0.9140102892837376  1.0000
  O   O7        1.0  0.8447400113516466  0.7906181436363512  0.413997405460549  1.0000
  O   O8        1.0  0.05436851468881796  0.20956827042182616  0.0859912964180367  1.0000
  O   O9        1.0  0.46885367642449444  0.9944019380492576  0.3675081863262122  1.0000
  O   O10       1.0  0.47454459760137985  0.0053180931386621  0.13237400862224294  1.0000
  O   O11       1.0  0.5311466391079733  0.0056010086071224905  0.6324915343285866  1.0000
  O   O12       1.0  0.5254528016009486  0.9946810714413415  0.8676272452143226  1.0000
  O   O13       1.0  0.5993261239286127  0.2973925794065053  0.15874902075541542  1.0000
  O   O14       1.0  0.3015306889752836  0.702365980563556  0.3412323552729006  1.0000
  O   O15       1.0  0.4006774298675068  0.7026025010601841  0.8412494359885943  1.0000
  O   O16       1.0  0.6984612046129187  0.297632421346286  0.6587580708559316  1.0000
  O   O17       1.0  0.5392265458345662  0.3110020529350876  0.8081491231583584  1.0000
  O   O18       1.0  0.22797569080652372  0.6890064182239257  0.6918560567023135  1.0000
  O   O19       1.0  0.4607730685020286  0.688995395095887  0.19184614557980947  1.0000
  O   O20       1.0  0.772029492892301  0.3109898723657664  0.3081411672074452  1.0000
