data_image0
_chemical_formula_structural       Hg4H42C66I8N12O12
_chemical_formula_sum              "Hg4 H42 C66 I8 N12 O12"
_cell_length_a       10.768323044478137
_cell_length_b       14.272448711206676
_cell_length_c       14.793364249129581
_cell_angle_alpha    62.562819386621385
_cell_angle_beta     89.55369018432111
_cell_angle_gamma    69.82724862458859

_space_group_name_H-M_alt    "P 1"
_space_group_IT_number       1

loop_
  _space_group_symop_operation_xyz
  'x, y, z'

loop_
  _atom_site_type_symbol
  _atom_site_label
  _atom_site_symmetry_multiplicity
  _atom_site_fract_x
  _atom_site_fract_y
  _atom_site_fract_z
  _atom_site_occupancy
  Hg  Hg1       1.0  0.7838996543469245  0.7049630839396314  0.16438933629323318  1.0000
  Hg  Hg2       1.0  0.21610316018980302  0.29503651955799626  0.835611438178141  1.0000
  Hg  Hg3       1.0  0.7308366212524007  0.7911848569935952  0.3898073483619343  1.0000
  Hg  Hg4       1.0  0.26916302383568075  0.20881559773026476  0.6101923830284193  1.0000
  H   H1        1.0  0.7885451360629857  0.5177945726824404  0.46108666622633615  1.0000
  H   H2        1.0  0.2114551270665218  0.48220245614560026  0.5389166064946381  1.0000
  H   H3        1.0  0.6897715514741734  0.3994584141312813  0.4290276371201501  1.0000
  H   H4        1.0  0.310226087303242  0.6005403250852623  0.5709728589467034  1.0000
  H   H5        1.0  0.30984619733454366  0.689734389309919  0.3061500448410824  1.0000
  H   H6        1.0  0.6901538364480614  0.31026521021266257  0.6938500636376403  1.0000
  H   H7        1.0  0.4250102083419522  0.79689224918566  0.3432011591811845  1.0000
  H   H8        1.0  0.574989825440653  0.2031073503369214  0.6567989492975387  1.0000
  H   H9        1.0  0.47166531331191647  0.3806697832492461  0.3892204783265782  1.0000
  H   H10       1.0  0.528333792570784  0.6193298145717492  0.6107796336520721  1.0000
  H   H11       1.0  0.31916305476084267  0.50469192481912  0.32917761625729725  1.0000
  H   H12       1.0  0.6808355089708938  0.49530681496930357  0.6708235528020411  1.0000
  H   H13       1.0  0.7196479886056436  0.32601111078212597  0.0875806928631775  1.0000
  H   H14       1.0  0.2803503369424405  0.6739901963117205  0.9124193414311108  1.0000
  H   H15       1.0  0.6573058653215114  0.9681042934756049  0.9504791230864102  1.0000
  H   H16       1.0  0.34269679575876916  0.03189359678817989  0.0495230855540356  1.0000
  H   H17       1.0  0.7382140733131732  0.0991414955393708  0.8064256934833836  1.0000
  H   H18       1.0  0.2617872711726861  0.9008572482241062  0.19357614156860595  1.0000
  H   H19       1.0  0.14481671445821576  0.8714422968600176  0.9696442480205788  1.0000
  H   H20       1.0  0.8551844006807343  0.12855901759800048  0.03035442278915921  1.0000
  H   H21       1.0  0.047377421594553985  0.7540321906562182  0.11013970650082439  1.0000
  H   H22       1.0  0.9526268600474521  0.24596827144586797  0.8898606838823327  1.0000
  H   H23       1.0  0.9442934497307647  0.16050183410155938  0.75999214779835  1.0000
  H   H24       1.0  0.055705270402995805  0.8394986200504133  0.24000691059951867  1.0000
  H   H25       1.0  0.10848480409982392  0.05250654913768218  0.8182874554675053  1.0000
  H   H26       1.0  0.8915157718337456  0.9474939084174632  0.18171159593052988  1.0000
  H   H27       1.0  0.16898382700519235  0.7972304392515353  0.613128428156614  1.0000
  H   H28       1.0  0.8310162067774128  0.20276916027104616  0.3868716803221162  1.0000
  H   H29       1.0  0.06652021710640103  0.6161762796848648  0.06700255298680698  1.0000
  H   H30       1.0  0.9334807386849346  0.383823319279891  0.9329989049767989  1.0000
  H   H31       1.0  0.23676088220869923  0.43853245870004537  0.0783757467887654  1.0000
  H   H32       1.0  0.7632400765282198  0.5614671413944166  0.9216250346824494  1.0000
  H   H33       1.0  0.9636654124866338  0.270663811461624  0.2098146123485733  1.0000
  H   H34       1.0  0.036332936626109744  0.7293375046698642  0.7901800100065158  1.0000
  H   H35       1.0  0.8057101086935106  0.4538853747175365  0.1947098517774322  1.0000
  H   H36       1.0  0.1942908559345825  0.5461142276363373  0.8052895767089796  1.0000
  H   H37       1.0  0.17210259196103556  0.17549200429473893  0.15248561889661974  1.0000
  H   H38       1.0  0.8278983756126337  0.8245075991888411  0.8475131330973937  1.0000
  H   H39       1.0  0.28487188037232875  0.24634024597308005  0.10108763285941083  1.0000
  H   H40       1.0  0.7151290872013403  0.7536593575105001  0.8989111191346028  1.0000
  H   H41       1.0  0.6125426822394289  0.14231909108423219  0.4524637747260627  1.0000
  H   H42       1.0  0.38745696579423583  0.857681364769327  0.5475352801718857  1.0000
  C   C1        1.0  0.6826922219727294  0.5530461049865777  0.42644813726168  1.0000
  C   C2        1.0  0.3173072637677451  0.44695263424402026  0.5735543812825412  1.0000
  C   C3        1.0  0.627227213278914  0.487644709531935  0.407337108494346  1.0000
  C   C4        1.0  0.37277188671261996  0.5123548860296481  0.5926643564690934  1.0000
  C   C5        1.0  0.49171406868560297  0.5370498814090681  0.36095167253515104  1.0000
  C   C6        1.0  0.5082854229460381  0.4629488600809423  0.6390494930242667  1.0000
  C   C7        1.0  0.41669770620125496  0.64914097917417  0.3391741178144018  1.0000
  C   C8        1.0  0.5833013937902791  0.35085861638741267  0.6608273471490449  1.0000
  C   C9        1.0  0.48005214858272893  0.7086670128297496  0.36051694812690027  1.0000
  C   C10       1.0  0.519947343048905  0.29133172866025336  0.6394842174325177  1.0000
  C   C11       1.0  0.4284793380452569  0.4722687356698429  0.3326812062741382  1.0000
  C   C12       1.0  0.5715197619462843  0.5277308598917398  0.6673202586893012  1.0000
  C   C13       1.0  0.5663323105752552  0.41190625730770597  0.21659919870198513  1.0000
  C   C14       1.0  0.4336667982530287  0.5880933416429954  0.7834002367842601  1.0000
  C   C15       1.0  0.5454719150765825  0.4479206018120578  0.1041134305863025  1.0000
  C   C16       1.0  0.4545277300114988  0.5520798529117953  0.8958863008040511  1.0000
  C   C17       1.0  0.4231917868723016  0.5428420670961955  0.05648199779461289  1.0000
  C   C18       1.0  0.5768065386757756  0.45715923999765085  0.9435180364996756  1.0000
  C   C19       1.0  0.36291631467679514  0.5667984527456581  0.13849906568286496  1.0000
  C   C20       1.0  0.6370816192311821  0.43320370841976086  0.861501268015438  1.0000
  C   C21       1.0  0.6264994697459868  0.401461889828532  0.049414814125661614  1.0000
  C   C22       1.0  0.37349978370199477  0.5985394189669008  0.9505852166687135  1.0000
  C   C23       1.0  0.7645689782873644  0.950377794375413  0.9520414786331274  1.0000
  C   C24       1.0  0.23543421905271336  0.04962095166153088  0.04796102591142671  1.0000
  C   C25       1.0  0.8106131090470824  0.022689261782247203  0.8716425007742359  1.0000
  C   C26       1.0  0.18938877758974118  0.9773103400138012  0.1283582771970586  1.0000
  C   C27       1.0  0.9491346598659334  0.9952776517993835  0.8755759550932042  1.0000
  C   C28       1.0  0.05086854631089469  0.004721097626678299  0.1244245199741485  1.0000
  C   C29       1.0  0.03613533517173538  0.8968814493680527  0.9625895213184632  1.0000
  C   C30       1.0  0.9638667019759523  0.10311986453213957  0.037410498976157704  1.0000
  C   C31       1.0  0.9823722022170924  0.8301508930684847  0.04055863301753958  1.0000
  C   C32       1.0  0.017631540219532803  0.16984871213072947  0.9594421379539142  1.0000
  C   C33       1.0  0.004934204966588112  0.06929601572949907  0.7897140071150588  1.0000
  C   C34       1.0  0.9950663739125571  0.9307044429553597  0.21028436779057819  1.0000
  C   C35       1.0  0.07997010209325592  0.94529297356231  0.7062391031072224  1.0000
  C   C36       1.0  0.920031787489151  0.05470662936344439  0.2937609983716669  1.0000
  C   C37       1.0  0.04887373723268975  0.9617738169088095  0.6008127431850028  1.0000
  C   C38       1.0  0.951125368650011  0.03822578091218529  0.3991873687936404  1.0000
  C   C39       1.0  0.955683008435095  0.0740166696646938  0.5386454935777749  1.0000
  C   C40       1.0  0.044316636652986546  0.9259837850591593  0.4613542378125715  1.0000
  C   C41       1.0  0.9241428014940212  0.13114006626335586  0.6034213995012863  1.0000
  C   C42       1.0  0.07585723228858406  0.8688595332592256  0.39657870897743663  1.0000
  C   C43       1.0  0.0962393618714899  0.8839419901375504  0.5644090622400528  1.0000
  C   C44       1.0  0.9037602832165916  0.1160584645863025  0.4355906691502939  1.0000
  C   C45       1.0  0.047012824967154594  0.5379669049020706  0.09829051034299142  1.0000
  C   C46       1.0  0.9529885254098714  0.4620318411208115  0.9017099717242019  1.0000
  C   C47       1.0  0.14208025119147996  0.4388483006039507  0.10483109394318291  1.0000
  C   C48       1.0  0.8579197884822843  0.561151301178036  0.8951676615507437  1.0000
  C   C49       1.0  0.11572075210107609  0.3391365330297019  0.14691487982893392  1.0000
  C   C50       1.0  0.8842792905182788  0.6608630698819908  0.8530831991725947  1.0000
  C   C51       1.0  0.9915501016241205  0.34480840941957763  0.17823922539277967  1.0000
  C   C52       1.0  0.00844994688639403  0.6551911957515271  0.821757500623953  1.0000
  C   C53       1.0  0.9021032441205391  0.4475978003556235  0.16918848990592047  1.0000
  C   C54       1.0  0.09789679555322546  0.5524018014263632  0.8308102655880063  1.0000
  C   C55       1.0  0.2201873780752095  0.22874097702643328  0.1596860649958032  1.0000
  C   C56       1.0  0.7798113508953077  0.7712594805146649  0.8403109639248642  1.0000
  C   C57       1.0  0.4028560037848051  0.1873500396627463  0.2948470829341403  1.0000
  C   C58       1.0  0.5971423306000218  0.8126512708202185  0.7051509218829465  1.0000
  C   C59       1.0  0.46476353068327814  0.09425929754215899  0.4034682500437796  1.0000
  C   C60       1.0  0.5352357286558698  0.9057420135126791  0.596530427765792  1.0000
  C   C61       1.0  0.4033031150194829  0.015158209424320997  0.4295837007258498  1.0000
  C   C62       1.0  0.5966965359597648  0.9848422475589516  0.5704146776797003  1.0000
  C   C63       1.0  0.3024657716415362  0.05574051337868009  0.33780912857896783  1.0000
  C   C64       1.0  0.6975342621410688  0.9442590861439012  0.6621909798997623  1.0000
  C   C65       1.0  0.5639358615119221  0.0814503408807283  0.4730197286025728  1.0000
  C   C66       1.0  0.436062855676255  0.9185501121415455  0.526980006287694  1.0000
  I   I1        1.0  0.9687365059766363  0.6367506701972231  0.32956822540950986  1.0000
  I   I2        1.0  0.03126616394038703  0.3632472234556732  0.6704319537537416  1.0000
  I   I3        1.0  0.5400828826235652  0.7546365968809852  0.07057537420410395  1.0000
  I   I4        1.0  0.45992047111853646  0.24536386351951475  0.9294250196789734  1.0000
  I   I5        1.0  0.8599194916587577  0.7101346821565357  0.5800947565937308  1.0000
  I   I6        1.0  0.14008078619866637  0.28986235232003565  0.41990513366524607  1.0000
  I   I7        1.0  0.5998409989765888  0.9731434251414864  0.20400530767818037  1.0000
  I   I8        1.0  0.40015903775159956  0.026856175510800995  0.7959941243081446  1.0000
  N   N1        1.0  0.6112049111280766  0.6621825782019711  0.4021442181237092  1.0000
  N   N2        1.0  0.3887945775579809  0.33781616215833304  0.5978576239281139  1.0000
  N   N3        1.0  0.45128453875139474  0.4833490974573279  0.23158947423334553  1.0000
  N   N4        1.0  0.5487141754911987  0.5166513544352398  0.7684109371493193  1.0000
  N   N5        1.0  0.8494435810018857  0.8552847379923846  0.03461316827666387  1.0000
  N   N6        1.0  0.15055976979463986  0.144715721278402  0.9653879020988114  1.0000
  N   N7        1.0  0.006010581424810395  0.0503621893415627  0.7010710426207396  1.0000
  N   N8        1.0  0.9939894553033711  0.9496374113107248  0.29892838936559246  1.0000
  N   N9        1.0  0.9292887994189554  0.5424794746566519  0.13076624035169707  1.0000
  N   N10       1.0  0.07071254801248734  0.4575192702365313  0.8692349182078871  1.0000
  N   N11       1.0  0.3054427919352277  0.15949310909775247  0.2620164482932026  1.0000
  N   N12       1.0  0.6945559340897062  0.8405073473136397  0.7379812571198627  1.0000
  O   O1        1.0  0.6636498942750108  0.33873102036007197  0.28478884336946203  1.0000
  O   O2        1.0  0.3363497508130706  0.6612694343637883  0.7152108880208844  1.0000
  O   O3        1.0  0.2571512721750224  0.642116237447908  0.1299435017483646  1.0000
  O   O4        1.0  0.7428461195819905  0.3578850656849468  0.8700578890306332  1.0000
  O   O5        1.0  0.15215263965302483  0.858963027912857  0.7846137435489738  1.0000
  O   O6        1.0  0.8478479303893779  0.1410374273828836  0.2153866608338575  1.0000
  O   O7        1.0  0.8434922414254089  0.2268339529532639  0.5809218933773863  1.0000
  O   O8        1.0  0.15650740660825585  0.7731665029003026  0.419077161520562  1.0000
  O   O9        1.0  0.23035659570530234  0.0099490944202003  0.3271536736567314  1.0000
  O   O10       1.0  0.7696421244284583  0.9900513597317722  0.6728453847411305  1.0000
  O   O11       1.0  0.428007985961436  0.2718206751625871  0.24163066090655155  1.0000
  O   O12       1.0  0.5719890259378034  0.7281814865606575  0.7583683233068754  1.0000
