data_image0
_chemical_formula_structural       Zr6H19C50NO34F10
_chemical_formula_sum              "Zr6 H19 C50 N1 O34 F10"
_cell_length_a       14.783728233485332
_cell_length_b       14.792345982276638
_cell_length_c       14.809200301085811
_cell_angle_alpha    60.16112488267468
_cell_angle_beta     59.90141895285173
_cell_angle_gamma    60.08527913537564

_space_group_name_H-M_alt    "P 1"
_space_group_IT_number       1

loop_
  _space_group_symop_operation_xyz
  'x, y, z'

loop_
  _atom_site_type_symbol
  _atom_site_label
  _atom_site_symmetry_multiplicity
  _atom_site_fract_x
  _atom_site_fract_y
  _atom_site_fract_z
  _atom_site_occupancy
  Zr  Zr1       1.0  0.8779129397279278  0.8836941758105612  0.6164935735692509  1.0000
  Zr  Zr2       1.0  0.12093667640097293  0.1191341667774495  0.3814804067977278  1.0000
  Zr  Zr3       1.0  0.11727944836414403  0.8806149818501153  0.6194599623274328  1.0000
  Zr  Zr4       1.0  0.8816696903210611  0.12214447323926006  0.3782649024538217  1.0000
  Zr  Zr5       1.0  0.1191460678653087  0.8818665880427974  0.37911983671785526  1.0000
  Zr  Zr6       1.0  0.8794389088988838  0.1207903009127095  0.619152420362745  1.0000
  H   H1        1.0  0.09112676550518001  0.7197966033134335  0.5919464986522699  1.0000
  H   H2        1.0  0.09715861855841006  0.09486111987599338  0.2169397168764462  1.0000
  H   H3        1.0  0.09365739441234676  0.09240170507077038  0.595963868164354  1.0000
  H   H4        1.0  0.7164331057195242  0.09777700980775729  0.59138427765199  1.0000
  H   H5        1.0  0.15896654935027482  0.567025792396983  0.38644288091995804  1.0000
  H   H6        1.0  0.8273563528878114  0.4478046481909747  0.5984129546581869  1.0000
  H   H7        1.0  0.6213341842666722  0.10764381507356546  0.9414083763347493  1.0000
  H   H8        1.0  0.4069585807591592  0.8628771143353547  0.08654416027702166  1.0000
  H   H9        1.0  0.8379619878478337  0.12122148496744253  0.10944349458824834  1.0000
  H   H10       1.0  0.1376571224032618  0.8556834793571184  0.9131113448250902  1.0000
  H   H11       1.0  0.592717847242298  0.4146029826836894  0.35413785263978775  1.0000
  H   H12       1.0  0.43126943957204134  0.6128514814588188  0.6177157497389844  1.0000
  H   H13       1.0  0.13308602096665828  0.5982555399914203  0.9199905941056487  1.0000
  H   H14       1.0  0.7342863922661422  0.6310073490971889  0.9675477877346099  1.0000
  H   H15       1.0  0.822348365520753  0.5451367605145025  0.8832891521774686  1.0000
  H   H16       1.0  0.8258701095291983  0.37563897432541904  0.054262823936518614  1.0000
  H   H17       1.0  0.7384607896903432  0.4614215110694675  0.13884185557957104  1.0000
  H   H18       1.0  0.6056623091820866  0.8475668237886184  0.6239746165921075  1.0000
  H   H19       1.0  0.41910711281261115  0.1297409804409284  0.3476513838080565  1.0000
  C   C1        1.0  0.9902061672057627  0.7048482728584846  0.49431824744937825  1.0000
  C   C2        1.0  0.31212306175302745  0.9942802118643855  0.20565806934214242  1.0000
  C   C3        1.0  0.9999299329334052  0.3055703877635241  0.4962218304561362  1.0000
  C   C4        1.0  0.7009919912455443  0.9934169563590064  0.8074900650776372  1.0000
  C   C5        1.0  0.9919066274035585  0.7036904990325471  0.8057790285727081  1.0000
  C   C6        1.0  0.7026570692759575  0.00098253464427985  0.48656462539999273  1.0000
  C   C7        1.0  0.9963517050808404  0.3090292790017061  0.20151521674265643  1.0000
  C   C8        1.0  0.30900451004677604  0.9890166838417899  0.49859138125268737  1.0000
  C   C9        1.0  0.3075155849716109  0.7027102634018547  0.49121708009403164  1.0000
  C   C10       1.0  0.988644751110854  0.995154845884194  0.8105965309794243  1.0000
  C   C11       1.0  0.7047209098311669  0.3127469843811995  0.4933939040291619  1.0000
  C   C12       1.0  0.9979200134207247  0.9943634245152356  0.19996836812276103  1.0000
  C   C13       1.0  0.9986206567506313  0.40867844708895995  0.4931207470033315  1.0000
  C   C14       1.0  0.9883805154572585  0.6053519887283446  0.4930086306473029  1.0000
  C   C15       1.0  0.09118421711122704  0.44440958421282056  0.43416245298130474  1.0000
  C   C16       1.0  0.8958507281446301  0.5695743179957093  0.5518252247056951  1.0000
  C   C17       1.0  0.08617383916099913  0.5410110033182178  0.43310691272973406  1.0000
  C   C18       1.0  0.9003104117867549  0.4736215202480527  0.5521213086096992  1.0000
  C   C19       1.0  0.4189155215076497  0.9880215998415313  0.11072000251688519  1.0000
  C   C20       1.0  0.6072251629792474  0.9850315906362612  0.9150908518515738  1.0000
  C   C21       1.0  0.4834368672903225  0.053806005835781504  0.06958839917364652  1.0000
  C   C22       1.0  0.546717433571551  0.9142455003635489  0.9603362381039774  1.0000
  C   C23       1.0  0.5747042579872215  0.053495009422185574  0.973328921417135  1.0000
  C   C24       1.0  0.45431431522150223  0.9161249312569315  0.055189513163682674  1.0000
  C   C25       1.0  0.983832076029579  0.9912817614171773  0.9158407907307408  1.0000
  C   C26       1.0  0.9935867365946007  0.9876956646041752  0.10468550396058145  1.0000
  C   C27       1.0  0.8990740654016136  0.06385694576380287  0.974903964877285  1.0000
  C   C28       1.0  0.07590126233280617  0.9119248623314393  0.048517879534557634  1.0000
  C   C29       1.0  0.9039278396442185  0.06277817496404503  0.06651319935220802  1.0000
  C   C30       1.0  0.0714905816813596  0.9138231917057809  0.9562623335567721  1.0000
  C   C31       1.0  0.41408777157634075  0.6076901577221038  0.4843819480382692  1.0000
  C   C32       1.0  0.6086435190427013  0.4184000443998386  0.4888527057841968  1.0000
  C   C33       1.0  0.46374299116183704  0.5512297713204363  0.4088909295221796  1.0000
  C   C34       1.0  0.5621243835636988  0.47809034349844387  0.5607047634751295  1.0000
  C   C35       1.0  0.5580615049032644  0.45856721484497626  0.4114225809071997  1.0000
  C   C36       1.0  0.4667779703890104  0.569789987223942  0.55938307391677  1.0000
  C   C37       1.0  0.9881636414331678  0.6071918681633196  0.9094973993226888  1.0000
  C   C38       1.0  0.9923902827433012  0.412523062720098  0.1046987919329964  1.0000
  C   C39       1.0  0.908899394844077  0.5559211923017816  0.9618305474099743  1.0000
  C   C40       1.0  0.07065849175211275  0.4671698345479314  0.051632472651363094  1.0000
  C   C41       1.0  0.9114444006870672  0.46183576884439503  0.05618165497322979  1.0000
  C   C42       1.0  0.0695881226992157  0.5606865499350987  0.9578752455902944  1.0000
  C   C43       1.0  0.8079685088362396  0.5576958973594661  0.9571665083544191  1.0000
  C   C44       1.0  0.8104957110760651  0.45150491339771326  0.06400211695710578  1.0000
  C   C45       1.0  0.4153087442349343  0.9843137360268844  0.4924484660015762  1.0000
  C   C46       1.0  0.6072050374871549  0.9951464606348995  0.4815842133023836  1.0000
  C   C47       1.0  0.47161402038026523  0.9040762486197594  0.5679264747153638  1.0000
  C   C48       1.0  0.5541391646157052  0.07216979049572105  0.402789593792825  1.0000
  C   C49       1.0  0.5648269136687316  0.9094725699697722  0.5632469545646546  1.0000
  C   C50       1.0  0.46011282927895547  0.06759307420124834  0.4082255965944769  1.0000
  N   N1        1.0  0.16212651390421937  0.4265447528760691  0.09238080597750556  1.0000
  O   O1        1.0  0.915239324370901  0.7432038652834765  0.5723460263157918  1.0000
  O   O2        1.0  0.26913470918896815  0.07393981292963767  0.24195922644949514  1.0000
  O   O3        1.0  0.07778248726273064  0.2635222942547912  0.4217414392618862  1.0000
  O   O4        1.0  0.7373852303588107  0.9216996579877024  0.7627732556911155  1.0000
  O   O5        1.0  0.07166312352436666  0.7401333025931222  0.7644546426981407  1.0000
  O   O6        1.0  0.7398282469632563  0.08021550617017702  0.4139754462201283  1.0000
  O   O7        1.0  0.9214622339258299  0.2681561238327391  0.23686152221353765  1.0000
  O   O8        1.0  0.26540039050423303  0.9162337045694001  0.5778479773325174  1.0000
  O   O9        1.0  0.26442432456231996  0.739842427604522  0.4183088348625787  1.0000
  O   O10       1.0  0.9161296957421571  0.07468080241446981  0.7674259146091061  1.0000
  O   O11       1.0  0.7405751262300627  0.26938583446833786  0.5731832937551504  1.0000
  O   O12       1.0  0.07643055090090199  0.9211539543326241  0.23757515699436033  1.0000
  O   O13       1.0  0.06775351930247074  0.9197277235689189  0.7702775089001223  1.0000
  O   O14       1.0  0.7412455734248412  0.2724218448349592  0.4180186405194988  1.0000
  O   O15       1.0  0.9231829125074144  0.0744856509377742  0.23524352372908208  1.0000
  O   O16       1.0  0.2667889994266872  0.7381208997091591  0.5712415831614948  1.0000
  O   O17       1.0  0.9167757108433034  0.7409394060430261  0.7653387309186288  1.0000
  O   O18       1.0  0.2683684782744534  0.06845108727481633  0.4242607481584173  1.0000
  O   O19       1.0  0.07358726718770471  0.2683317154543516  0.2401314402413632  1.0000
  O   O20       1.0  0.738193855956048  0.9264102110539627  0.5660258103048079  1.0000
  O   O21       1.0  0.7363886562291881  0.07325142722651637  0.7674797130673171  1.0000
  O   O22       1.0  0.06934950401638659  0.7414261068970662  0.4190316258132756  1.0000
  O   O23       1.0  0.27001221772959366  0.9207743050431035  0.2404768630430353  1.0000
  O   O24       1.0  0.9224936119290702  0.26731486221325473  0.5738211145083271  1.0000
  O   O25       1.0  0.7967621923196049  0.07090374438257668  0.5648133286810905  1.0000
  O   O26       1.0  0.06656766579900616  0.06639118369289318  0.5688148174511056  1.0000
  O   O27       1.0  0.0689343812288783  0.06864390232156133  0.2970649958649147  1.0000
  O   O28       1.0  0.06487074231311128  0.7998544299106601  0.5655294177125112  1.0000
  O   O29       1.0  0.14829771838670744  0.9504762615644398  0.4506016584690754  1.0000
  O   O30       1.0  0.9497551686133081  0.9533123021492785  0.4477873362665222  1.0000
  O   O31       1.0  0.9510597747487423  0.1497085891059129  0.4500595214231353  1.0000
  O   O32       1.0  0.9481475675236553  0.9519536316611978  0.6475865334097649  1.0000
  O   O33       1.0  0.14373653702328687  0.4644688637297349  0.15999314904986045  1.0000
  O   O34       1.0  0.2510518726556441  0.36278144395577533  0.05087336570698399  1.0000
  F   F1        1.0  0.18991183731128558  0.38355014131241943  0.3793541395999469  1.0000
  F   F2        1.0  0.7977399630062294  0.6291142393296738  0.609645239477679  1.0000
  F   F3        1.0  0.45859616999025105  0.11989507076252447  0.12276254362969752  1.0000
  F   F4        1.0  0.5746775933080811  0.8428956759035419  0.9111636596356051  1.0000
  F   F5        1.0  0.8091700799916735  0.1384496193897888  0.9439856982669428  1.0000
  F   F6        1.0  0.16429866105363547  0.8352239707031829  0.08093085892988933  1.0000
  F   F7        1.0  0.41997519068203093  0.5837737242125628  0.33178120269836586  1.0000
  F   F8        1.0  0.6087259071689105  0.44771759735031963  0.634714808486102  1.0000
  F   F9        1.0  0.4359263804428508  0.8186761161880299  0.6493557988391885  1.0000
  F   F10       1.0  0.5922572977628207  0.15518045472813918  0.31895940419839514  1.0000
