data_image0
_chemical_formula_structural       H72Pb6C72S24O24
_chemical_formula_sum              "H72 Pb6 C72 S24 O24"
_cell_length_a       12.246580444364588
_cell_length_b       16.959892454713476
_cell_length_c       16.9596677768974
_cell_angle_alpha    110.2911238681831
_cell_angle_beta     99.22580696881204
_cell_angle_gamma    99.22733137672802

_space_group_name_H-M_alt    "P 1"
_space_group_IT_number       1

loop_
  _space_group_symop_operation_xyz
  'x, y, z'

loop_
  _atom_site_type_symbol
  _atom_site_label
  _atom_site_symmetry_multiplicity
  _atom_site_fract_x
  _atom_site_fract_y
  _atom_site_fract_z
  _atom_site_occupancy
  H   H1        1.0  0.11713193395883785  0.7912357936925144  0.5009371026352483  1.0000
  H   H2        1.0  0.8828763969223701  0.4990618110972491  0.20874807317312624  1.0000
  H   H3        1.0  0.8828728122230416  0.20876144954537068  0.49905765923302436  1.0000
  H   H4        1.0  0.11712389796629452  0.5009289910499177  0.7912368447723565  1.0000
  H   H5        1.0  0.020530662529800712  0.6888542842177969  0.44188389799170835  1.0000
  H   H6        1.0  0.9794658922728987  0.5581153095307912  0.3111378104374084  1.0000
  H   H7        1.0  0.9794658993955707  0.31114616254016875  0.5581063608459474  1.0000
  H   H8        1.0  0.020530198870339692  0.4418780488806248  0.6888475385709966  1.0000
  H   H9        1.0  0.9870907024351324  0.7642161742587487  0.5337967715973376  1.0000
  H   H10       1.0  0.012916596320685873  0.46620588728526247  0.2357805092516116  1.0000
  H   H11       1.0  0.012912592957533806  0.23578169288302317  0.4662004065880865  1.0000
  H   H12       1.0  0.9870841155334207  0.5337861791691835  0.7642102078260891  1.0000
  H   H13       1.0  0.2983458777938637  0.14852886163714632  0.5455928342241947  1.0000
  H   H14       1.0  0.701680439636924  0.45441093076312467  0.8514656101900331  1.0000
  H   H15       1.0  0.7016703956117353  0.8514567738041661  0.45441032814428445  1.0000
  H   H16       1.0  0.2983299108908213  0.5455773050916548  0.1485277825377835  1.0000
  H   H17       1.0  0.34220681848631784  0.16255972834601096  0.4545668827325642  1.0000
  H   H18       1.0  0.6578141667143456  0.5454296112551731  0.8374332943548454  1.0000
  H   H19       1.0  0.6578114966915293  0.8374272098214347  0.5454369671189809  1.0000
  H   H20       1.0  0.3421873345637181  0.45455662337602115  0.1625607621627054  1.0000
  H   H21       1.0  0.3003996975031811  0.05557871852386139  0.45281597553257313  1.0000
  H   H22       1.0  0.6996187770854263  0.54718098970622  0.9444157427505147  1.0000
  H   H23       1.0  0.6996037280020886  0.9444055788281603  0.5471799718488768  1.0000
  H   H24       1.0  0.3003938638442493  0.4528066176363907  0.05557709486041064  1.0000
  H   H25       1.0  0.992349980072753  0.8498822817890428  0.03334476551003015  1.0000
  H   H26       1.0  0.007654046108477468  0.9666375103357082  0.15010254661736872  1.0000
  H   H27       1.0  0.007639582819997821  0.15011094835251984  0.9666563186018281  1.0000
  H   H28       1.0  0.99232630898576  0.03336667368470359  0.8498942933705464  1.0000
  H   H29       1.0  0.898748464283635  0.7572986083744481  0.9495986947379651  1.0000
  H   H30       1.0  0.10125523146470533  0.05038496522188039  0.24268917933235906  1.0000
  H   H31       1.0  0.10124453832594331  0.2426978750962334  0.0504027414276251  1.0000
  H   H32       1.0  0.8987351067104471  0.9496167160200386  0.7573043567050208  1.0000
  H   H33       1.0  0.914045480337542  0.8602701385433418  0.9395326933570445  1.0000
  H   H34       1.0  0.08596757094601061  0.06044466284055259  0.1397131828752407  1.0000
  H   H35       1.0  0.08593692801463963  0.13972946700143038  0.060476324276471906  1.0000
  H   H36       1.0  0.9140203338868034  0.9395544291380913  0.8602779891033663  1.0000
  H   H37       1.0  0.3211344229213823  0.13081141793858103  0.2268245830831219  1.0000
  H   H38       1.0  0.6788864818854847  0.7731582006134657  0.869176342217763  1.0000
  H   H39       1.0  0.6788784220211923  0.8691852248673513  0.7731714622738011  1.0000
  H   H40       1.0  0.3211112490683092  0.22684863897877247  0.1308286834112025  1.0000
  H   H41       1.0  0.4227054694333107  0.10337903320699131  0.295518353141965  1.0000
  H   H42       1.0  0.5773059957490362  0.7044754747712005  0.8966142410326724  1.0000
  H   H43       1.0  0.5773033101043055  0.8966149882682046  0.7044792619320434  1.0000
  H   H44       1.0  0.4226947714957418  0.295524942593957  0.10338650167953028  1.0000
  H   H45       1.0  0.28989530950463654  0.02733889008238319  0.23644815273661382  1.0000
  H   H46       1.0  0.7101200360724533  0.7635377749440836  0.9726553983790396  1.0000
  H   H47       1.0  0.7101139610085666  0.9726596738137302  0.7635469908490506  1.0000
  H   H48       1.0  0.28987928763892507  0.23646325997356846  0.027348938523594792  1.0000
  H   H49       1.0  0.46566738675307556  0.7480853739305358  0.48365245844966853  1.0000
  H   H50       1.0  0.5343243826246038  0.5163631387054933  0.25191971590510326  1.0000
  H   H51       1.0  0.5343306958638152  0.251922787131484  0.5163477654519255  1.0000
  H   H52       1.0  0.4656528635106341  0.4836668581953062  0.748082337437225  1.0000
  H   H53       1.0  0.4974492249107528  0.7529288637078723  0.3847278040105878  1.0000
  H   H54       1.0  0.5025618111801934  0.6152848316746075  0.24706792734860275  1.0000
  H   H55       1.0  0.5025574464703695  0.24707484079697647  0.6152700403064486  1.0000
  H   H56       1.0  0.4974410203444464  0.38474540980416794  0.7529199729310037  1.0000
  H   H57       1.0  0.3776315467071285  0.6747684772628588  0.38100694913693184  1.0000
  H   H58       1.0  0.6223702105898  0.6190074276961468  0.3252341258726475  1.0000
  H   H59       1.0  0.6223712825033587  0.3252306969028139  0.6189870997407354  1.0000
  H   H60       1.0  0.3776179156836506  0.38102588268145604  0.6747661843530821  1.0000
  H   H61       1.0  0.8034775498922997  0.06646531771841777  0.4571665475345554  1.0000
  H   H62       1.0  0.19653188964107934  0.5428288821514613  0.9335239449730182  1.0000
  H   H63       1.0  0.19653257837315863  0.9335332256909438  0.5428334019345797  1.0000
  H   H64       1.0  0.8034749003669646  0.4571671337654095  0.06646117837750148  1.0000
  H   H65       1.0  0.8040972884874834  0.0568862880258152  0.3478112575235102  1.0000
  H   H66       1.0  0.19591434202622793  0.6521840876852493  0.9431024705317201  1.0000
  H   H67       1.0  0.19592266335293823  0.9431090775795353  0.6521904390736637  1.0000
  H   H68       1.0  0.8040882514922176  0.34781447814448535  0.05688426175500892  1.0000
  H   H69       1.0  0.7381819431537054  0.9656511844976663  0.367186557154355  1.0000
  H   H70       1.0  0.2618244681420947  0.6328073928458052  0.03433855929573326  1.0000
  H   H71       1.0  0.26184046947832224  0.034344218093956186  0.6328113000572771  1.0000
  H   H72       1.0  0.7381738641863507  0.36718790838462206  0.9656489044202345  1.0000
  Pb  Pb1       1.0  0.49999257243438683  0.8562562437026667  0.14370071802075302  1.0000
  Pb  Pb2       1.0  0.4999817346110619  0.14373303685646727  0.8562949096018073  1.0000
  Pb  Pb3       1.0  0.19111316789872757  0.8067977072580489  0.2208358867019768  1.0000
  Pb  Pb4       1.0  0.8089024703488832  0.7791722757339129  0.19320342311628738  1.0000
  Pb  Pb5       1.0  0.8088870984587757  0.19320657575941166  0.7791667522734967  1.0000
  Pb  Pb6       1.0  0.1910981427016836  0.22081066316206222  0.8068011653780829  1.0000
  C   C1        1.0  0.0842936850161422  0.9211819919581713  0.3473958043862737  1.0000
  C   C2        1.0  0.9157558372339594  0.6526194623662247  0.07882514213096667  1.0000
  C   C3        1.0  0.915715117260966  0.07882040900899058  0.6526065358924527  1.0000
  C   C4        1.0  0.0842329699678999  0.34736864242404397  0.9211663853851563  1.0000
  C   C5        1.0  0.9787162359289854  0.9088492619718095  0.45949769575729255  1.0000
  C   C6        1.0  0.021303352555030144  0.5405012223993992  0.09114985338266024  1.0000
  C   C7        1.0  0.02130010412108161  0.09115898507396741  0.5405087272878645  1.0000
  C   C8        1.0  0.978688815151621  0.4594843339105806  0.9088387929336506  1.0000
  C   C9        1.0  0.03865474827686198  0.962631610041562  0.42551317901195057  1.0000
  C   C10       1.0  0.9613710313264433  0.5744933925492501  0.03737242383113683  1.0000
  C   C11       1.0  0.9613664466021205  0.03737342651170649  0.5744950137559712  1.0000
  C   C12       1.0  0.03862712698441579  0.42550124635843634  0.9626177352168384  1.0000
  C   C13       1.0  0.06148178232574249  0.05309276336085129  0.4659132314569163  1.0000
  C   C14       1.0  0.9385192195125425  0.5340826544090688  0.9469067231840069  1.0000
  C   C15       1.0  0.9385300934934692  0.9469115821684255  0.5340919068563323  1.0000
  C   C16       1.0  0.061479098906225695  0.46590678784945533  0.05308810813799882  1.0000
  C   C17       1.0  0.02709902087567424  0.7575452746083183  0.47919456039931413  1.0000
  C   C18       1.0  0.9729074509013171  0.5208052429512192  0.24245030783750104  1.0000
  C   C19       1.0  0.9729023539176893  0.24245452663693356  0.5208013158588471  1.0000
  C   C20       1.0  0.027093257324878578  0.4791868266789122  0.7575398203035563  1.0000
  C   C21       1.0  0.2849503803018223  0.12072398318081667  0.47500771995484564  1.0000
  C   C22       1.0  0.7150731439718003  0.5249937303534297  0.8792704644600279  1.0000
  C   C23       1.0  0.7150668466336259  0.8792648908332126  0.5249955112964031  1.0000
  C   C24       1.0  0.2849336885991178  0.47499384890896573  0.12072053454536298  1.0000
  C   C25       1.0  0.23704074529170788  0.8715923617400136  0.08015926881596165  1.0000
  C   C26       1.0  0.7629994547552315  0.919831661586279  0.12838628758205317  1.0000
  C   C27       1.0  0.7629654879584821  0.12840422583704483  0.9198389661016151  1.0000
  C   C28       1.0  0.23694885746362362  0.08020821347980697  0.8716667227084898  1.0000
  C   C29       1.0  0.16325991120297087  0.8929533946471294  0.9437045666886731  1.0000
  C   C30       1.0  0.8367424721511795  0.056297308633595784  0.107041576410694  1.0000
  C   C31       1.0  0.8367244171465489  0.10705014846885055  0.05629602951949416  1.0000
  C   C32       1.0  0.16324008942316945  0.9437113768342229  0.8929624038558119  1.0000
  C   C33       1.0  0.2416422897218169  0.9238935760689342  0.024054126730824524  1.0000
  C   C34       1.0  0.7583801576362463  0.9759374501068834  0.07609027535519894  1.0000
  C   C35       1.0  0.7583520890648858  0.0761048770589099  0.9759434403855708  1.0000
  C   C36       1.0  0.24160554120857117  0.024070595889099898  0.9239161888679491  1.0000
  C   C37       1.0  0.3221511226695952  0.0031496598800799997  0.053930006876427704  1.0000
  C   C38       1.0  0.6778583321371484  0.9460737843868188  0.9968438765697486  1.0000
  C   C39       1.0  0.6778474287853413  0.9968487924362108  0.9460727436847164  1.0000
  C   C40       1.0  0.3221314839852312  0.05392590988688539  0.0031577454636533037  1.0000
  C   C41       1.0  0.9580443509288018  0.8187689940472822  0.9635346479217547  1.0000
  C   C42       1.0  0.0419649503634787  0.036447183877640996  0.18121681078104504  1.0000
  C   C43       1.0  0.0419465461801565  0.18122877073123075  0.03646641483864949  1.0000
  C   C44       1.0  0.9580241219237707  0.9635557740638203  0.8187782130514023  1.0000
  C   C45       1.0  0.3564531988538065  0.07804829731325919  0.23533862210384626  1.0000
  C   C46       1.0  0.6435692656263258  0.7646501366710226  0.9219419603564702  1.0000
  C   C47       1.0  0.6435594575595402  0.921947695872717  0.7646577628385103  1.0000
  C   C48       1.0  0.35643227750280465  0.23535286011981776  0.07806095763386618  1.0000
  C   C49       1.0  0.4801430149785021  0.8940129007623482  0.32146804674646756  1.0000
  C   C50       1.0  0.5198479429732288  0.6785232784225099  0.10599087930896894  1.0000
  C   C51       1.0  0.5198799094245246  0.10597862664989317  0.678529681011824  1.0000
  C   C52       1.0  0.4801224659211485  0.3214775049447524  0.894024877348528  1.0000
  C   C53       1.0  0.42913066548921114  0.9152629867558132  0.4648106982096252  1.0000
  C   C54       1.0  0.5708807189648653  0.5351950843335374  0.08474396888586706  1.0000
  C   C55       1.0  0.57087822530967  0.08474267962221659  0.5351857271951133  1.0000
  C   C56       1.0  0.42912857223390694  0.46481438910170414  0.9152662259053342  1.0000
  C   C57       1.0  0.4885537419547674  0.9479044492390328  0.4143463255542343  1.0000
  C   C58       1.0  0.5114547709286655  0.5856471044226268  0.05209340665970795  1.0000
  C   C59       1.0  0.5114638686929922  0.0520915893382181  0.5856476810468293  1.0000
  C   C60       1.0  0.4885389402089971  0.4143545456833805  0.9479099299252455  1.0000
  C   C61       1.0  0.5589136177454606  0.031924492312555196  0.44787834315113884  1.0000
  C   C62       1.0  0.4410980693288451  0.5521234860575105  0.9680723272855617  1.0000
  C   C63       1.0  0.4411050391837819  0.9680721753978997  0.552120129747955  1.0000
  C   C64       1.0  0.5589045231077208  0.44788600836552195  0.0319259225868436  1.0000
  C   C65       1.0  0.4298923830180997  0.7407132935764054  0.41720979772011896  1.0000
  C   C66       1.0  0.5701140886700174  0.5828014710561006  0.2592874079749734  1.0000
  C   C67       1.0  0.57011332757736  0.2592871787071119  0.5827867998408608  1.0000
  C   C68       1.0  0.4298800226356647  0.4172241280026229  0.7407114428760693  1.0000
  C   C69       1.0  0.756326751388528  0.03623025318679399  0.38950597195175624  1.0000
  C   C70       1.0  0.24368443567932735  0.6104917765954951  0.9637609859413844  1.0000
  C   C71       1.0  0.2436905112240524  0.9637644607449757  0.6104934253133152  1.0000
  C   C72       1.0  0.7563204026522359  0.3895087288775584  0.03622844998955095  1.0000
  S   S1        1.0  0.9513575926300177  0.7949824653704948  0.4033216415832683  1.0000
  S   S2        1.0  0.04866346537712471  0.5966768252140255  0.20501642168137832  1.0000
  S   S3        1.0  0.048646411290725715  0.20502056840660288  0.5966774370215263  1.0000
  S   S4        1.0  0.9513392162930145  0.40331073580575355  0.7949729274991242  1.0000
  S   S5        1.0  0.14219457500919927  0.11804829675642739  0.4229198204193949  1.0000
  S   S6        1.0  0.8578285133758429  0.5770845041980266  0.8819546449862868  1.0000
  S   S7        1.0  0.8578244506408055  0.881960605138623  0.5770883130212213  1.0000
  S   S8        1.0  0.14217410819384216  0.4229056376800245  0.11803560720873926  1.0000
  S   S9        1.0  0.06873138798606247  0.7896242452058713  0.907706411885094  1.0000
  S   S10       1.0  0.9312899095402045  0.09228903403479899  0.2103656017150755  1.0000
  S   S11       1.0  0.9312574429273256  0.21038063762249948  0.0922910324205972  1.0000
  S   S12       1.0  0.06870358138908735  0.9077203935786358  0.7896339656103777  1.0000
  S   S13       1.0  0.42984308017400963  0.03547710260740191  0.1506823001778272  1.0000
  S   S14       1.0  0.5701771219317209  0.849308913844851  0.9645022623141841  1.0000
  S   S15       1.0  0.5701603918921166  0.9645130251352753  0.8493115800273827  1.0000
  S   S16       1.0  0.4298189832432371  0.1506894887823975  0.03550668337908292  1.0000
  S   S17       1.0  0.3336780248134232  0.8113270100689504  0.41622233559181854  1.0000
  S   S18       1.0  0.6663337043390882  0.5837814457320929  0.18867579021785724  1.0000
  S   S19       1.0  0.6663295208855189  0.18867413119922102  0.5837723443544363  1.0000
  S   S20       1.0  0.3336715489040074  0.4162228540953946  0.8113297708461146  1.0000
  S   S21       1.0  0.6238843772614686  0.07021303454804691  0.37729199420046905  1.0000
  S   S22       1.0  0.3761350935231533  0.6227063077106788  0.9297854695623399  1.0000
  S   S23       1.0  0.37613252485821386  0.9297778373938782  0.6227001119812242  1.0000
  S   S24       1.0  0.6238758716991555  0.37730063281222914  0.07021694375524848  1.0000
  O   O1        1.0  0.01805059939029968  0.8866842175469996  0.2727818368576678  1.0000
  O   O2        1.0  0.9820012066993015  0.7272248187355711  0.1133073440130516  1.0000
  O   O3        1.0  0.9819546311133038  0.11331170278850776  0.7272189990015931  1.0000
  O   O4        1.0  0.017992054451653448  0.2727613254235878  0.8866934247776612  1.0000
  O   O5        1.0  0.2884462264084675  0.8110481961038117  0.06974891693533884  1.0000
  O   O6        1.0  0.7115671208528412  0.9302337952715546  0.1889246016194974  1.0000
  O   O7        1.0  0.7115460277660404  0.1889431556641838  0.9302441405078028  1.0000
  O   O8        1.0  0.28839209303979635  0.06982951611267649  0.8111119440539412  1.0000
  O   O9        1.0  0.17944681886339717  0.8945361961686514  0.13764384544460032  1.0000
  O   O10       1.0  0.8205870657506794  0.8623488368483551  0.10544485114669302  1.0000
  O   O11       1.0  0.8205749561148963  0.10547077654172202  0.8623656843135947  1.0000
  O   O12       1.0  0.17936128080319247  0.13767420936850527  0.8946116653405838  1.0000
  O   O13       1.0  0.5600780929223675  0.8584790462571091  0.30235371473432343  1.0000
  O   O14       1.0  0.43991960736656927  0.6976285883590733  0.1415324593044929  1.0000
  O   O15       1.0  0.4399398300834392  0.14151247704788258  0.697638735188896  1.0000
  O   O16       1.0  0.5600578500090307  0.30235669839790086  0.8584880573747214  1.0000
  O   O17       1.0  0.39443034093974927  0.8921555934662351  0.2649143466184825  1.0000
  O   O18       1.0  0.6055702537489934  0.735084064458462  0.10785305733346458  1.0000
  O   O19       1.0  0.6055818126422565  0.1078274682797584  0.73508155141743  1.0000
  O   O20       1.0  0.3944173559054748  0.264929640751177  0.8921850978827592  1.0000
  O   O21       1.0  0.18936566785247066  0.9199353056190629  0.3613656664428859  1.0000
  O   O22       1.0  0.8106778587544242  0.6386563293748819  0.0800773641155175  1.0000
  O   O23       1.0  0.8106397868574859  0.08006710425414808  0.638630995844764  1.0000
  O   O24       1.0  0.1893138044370417  0.36133309576309347  0.9199125895274136  1.0000
