data_image0
_chemical_formula_structural       Zn2H20C12N4O10
_chemical_formula_sum              "Zn2 H20 C12 N4 O10"
_cell_length_a       7.048696043991233
_cell_length_b       7.5697948729426985
_cell_length_c       9.384900232057706
_cell_angle_alpha    113.80592189023758
_cell_angle_beta     112.06389227673209
_cell_angle_gamma    89.99823388772565

_space_group_name_H-M_alt    "P 1"
_space_group_IT_number       1

loop_
  _space_group_symop_operation_xyz
  'x, y, z'

loop_
  _atom_site_type_symbol
  _atom_site_label
  _atom_site_symmetry_multiplicity
  _atom_site_fract_x
  _atom_site_fract_y
  _atom_site_fract_z
  _atom_site_occupancy
  Zn  Zn1       1.0  0.831397148261253  0.8064713980524728  0.6129742022314987  1.0000
  Zn  Zn2       1.0  0.2185002293160778  0.19347886589655866  0.3870330330940348  1.0000
  H   H1        1.0  0.885580126866273  0.5607426927206305  0.12167917375240488  1.0000
  H   H2        1.0  0.7640422917893944  0.4392065235714923  0.8783882216694963  1.0000
  H   H3        1.0  0.6871665657525199  0.6001438838472877  0.2005084358697076  1.0000
  H   H4        1.0  0.48675072104494177  0.3997882835965498  0.7995716856394991  1.0000
  H   H5        1.0  0.9979651151905812  0.11850705070815337  9.912463799824083e-05  1.0000
  H   H6        1.0  0.9979232147931612  0.8816399001142868  5.510499590132398e-05  1.0000
  H   H7        1.0  0.16253003176012024  0.6458868550741529  0.846356070892398  1.0000
  H   H8        1.0  0.31624904349313004  0.35415421269804875  0.15359924307428235  1.0000
  H   H9        1.0  0.31630794978702437  0.7995323889225572  0.15352925319685803  1.0000
  H   H10       1.0  0.16254607809644028  0.20043091079995173  0.8463522291436832  1.0000
  H   H11       1.0  0.2858359700405586  0.7070749889246528  0.733116142887809  1.0000
  H   H12       1.0  0.5529202337900331  0.2929469948300251  0.2667228848396519  1.0000
  H   H13       1.0  0.5529704493377778  0.9740008592246382  0.2666445411386605  1.0000
  H   H14       1.0  0.2859550906410178  0.02587289311508559  0.7331899328856366  1.0000
  H   H15       1.0  0.6017401020823596  0.9430238837826432  0.8859639081939292  1.0000
  H   H16       1.0  0.7156473816883563  0.05702982932302799  0.11394592441996562  1.0000
  H   H17       1.0  0.4667163776641488  0.6138116495955755  0.4440866707596172  1.0000
  H   H18       1.0  0.022789727109092394  0.3862059905322751  0.5560023999660544  1.0000
  H   H19       1.0  0.022900395307679795  0.17000468275486463  0.5561237733957752  1.0000
  H   H20       1.0  0.46675369398865746  0.8300364392013079  0.44397358459887937  1.0000
  C   C1        1.0  0.9420138841636286  0.4988790657767692  0.33588321520473124  1.0000
  C   C2        1.0  0.6062182376467007  0.5011060202719833  0.6642011669008809  1.0000
  C   C3        1.0  0.6061922724557435  0.1630536007973831  0.6640933277485318  1.0000
  C   C4        1.0  0.9420147093092054  0.8369461719944052  0.3359473087859897  1.0000
  C   C5        1.0  0.856198642873416  0.6182872753062725  0.2367161860828872  1.0000
  C   C6        1.0  0.6195829046512246  0.38169429258601884  0.7633617112579287  1.0000
  C   C7        1.0  0.08689758672446152  3.5918592651299995e-05  2.6189600184505464e-05  1.0000
  C   C8        1.0  0.2544522285576463  0.7642673278039139  0.8481052505928517  1.0000
  C   C9        1.0  0.4064088180665522  0.23575026676981983  0.15181431342068663  1.0000
  C   C10       1.0  0.40644461605405263  0.9161847738235167  0.15175243608234731  1.0000
  C   C11       1.0  0.2544808485708359  0.08379466857313392  0.8481395340598398  1.0000
  C   C12       1.0  0.568209287468555  6.3051098563999784e-06  0.9999255631247266  1.0000
  N   N1        1.0  0.12636431283441138  0.9212223237620304  0.8424873194579307  1.0000
  N   N2        1.0  0.284024465307155  0.07881230902071928  0.1575219106119476  1.0000
  N   N3        1.0  0.450494233579704  0.8389752302753944  0.9998932475056962  1.0000
  N   N4        1.0  0.45048821153493895  0.16102107243579405  0.9999538561456947  1.0000
  O   O1        1.0  0.9276464322519261  0.5465750852459549  0.47863925422763043  1.0000
  O   O2        1.0  0.44899100062623626  0.4534585144069607  0.5214573001847143  1.0000
  O   O3        1.0  0.4490630382313299  0.06791257322073108  0.5212740694012723  1.0000
  O   O4        1.0  0.9277350442669886  0.9320770151255783  0.47874938493514907  1.0000
  O   O5        1.0  0.02045739066848989  0.35430794088522055  0.2694349483951513  1.0000
  O   O6        1.0  0.7511211094104624  0.6456430007061797  0.7306267216653168  1.0000
  O   O7        1.0  0.7510290637431751  0.08494332476868038  0.7305387134708354  1.0000
  O   O8        1.0  0.020375898321745526  0.9150619298818299  0.2694764969116719  1.0000
  O   O9        1.0  0.5244612035397723  0.7059535873141201  0.41220375298114936  1.0000
  O   O10       1.0  0.1124178082897345  0.29405350314716117  0.587872753862854  1.0000
