data_image0
_chemical_formula_structural       Zn4H72C100N4O20
_chemical_formula_sum              "Zn4 H72 C100 N4 O20"
_cell_length_a       11.348454152000508
_cell_length_b       17.11327848683478
_cell_length_c       18.35605823648126
_cell_angle_alpha    116.0767026754649
_cell_angle_beta     89.99997161756426
_cell_angle_gamma    89.99999495636217

_space_group_name_H-M_alt    "P 1"
_space_group_IT_number       1

loop_
  _space_group_symop_operation_xyz
  'x, y, z'

loop_
  _atom_site_type_symbol
  _atom_site_label
  _atom_site_symmetry_multiplicity
  _atom_site_fract_x
  _atom_site_fract_y
  _atom_site_fract_z
  _atom_site_occupancy
  Zn  Zn1       1.0  0.5818146850386229  0.9690819622033118  0.4334545261411619  1.0000
  Zn  Zn2       1.0  0.5818140148821627  0.0309187440131495  0.06654481631318988  1.0000
  Zn  Zn3       1.0  0.4181862419601218  0.030918162352442394  0.5665448461458737  1.0000
  Zn  Zn4       1.0  0.418185149761932  0.9690826805521696  0.9334545420831261  1.0000
  H   H1        1.0  0.4111844737125381  0.7213407875053122  0.2844727030565863  1.0000
  H   H2        1.0  0.41118276908508034  0.27866061404599657  0.21552806509966155  1.0000
  H   H3        1.0  0.5888164532859861  0.2786593381690281  0.7155272144673219  1.0000
  H   H4        1.0  0.5888163955581405  0.7213408149936525  0.7844734742441445  1.0000
  H   H5        1.0  0.30490659649795765  0.5782768586120709  0.22460012757760234  1.0000
  H   H6        1.0  0.3049057055392126  0.4217239199860217  0.2754009634651595  1.0000
  H   H7        1.0  0.6950943305001331  0.42172326929944154  0.7754008804200508  1.0000
  H   H8        1.0  0.6950925779269426  0.5782775079351553  0.7246000306419519  1.0000
  H   H9        1.0  0.1550429826312509  0.5469737540146796  0.30689999138105856  1.0000
  H   H10       1.0  0.15504215353460893  0.4530277113858149  0.1931008811875472  1.0000
  H   H11       1.0  0.8449570631897743  0.45302637277836055  0.6931004713798996  1.0000
  H   H12       1.0  0.844957011108832  0.5469737165352555  0.8069001129193865  1.0000
  H   H13       1.0  0.2072975810291169  0.8021359701173907  0.5020241031228139  1.0000
  H   H14       1.0  0.20729389812512267  0.19786492983084258  0.9979775520200533  1.0000
  H   H15       1.0  0.7927059895006678  0.19786480835774967  0.4979771705472018  1.0000
  H   H16       1.0  0.7927035041633914  0.8021352003182757  0.0020245464520698376  1.0000
  H   H17       1.0  0.8431171426941405  0.7361073519756545  0.7008704830417257  1.0000
  H   H18       1.0  0.8431197788013736  0.2638920861137208  0.7991292910972658  1.0000
  H   H19       1.0  0.15688025959525484  0.26389277369912634  0.2991294344829  1.0000
  H   H20       1.0  0.1568820293748701  0.7361080373233476  0.20086953595271237  1.0000
  H   H21       1.0  0.6993495039782972  0.8515198989278757  0.7815287533612646  1.0000
  H   H22       1.0  0.6993531017159782  0.14848022332563457  0.7184702545815682  1.0000
  H   H23       1.0  0.30064701713425285  0.14848022450984635  0.2184700736897938  1.0000
  H   H24       1.0  0.30064870646026515  0.8515199001114341  0.28152857246841023  1.0000
  H   H25       1.0  0.5957380552210124  0.9341481908652653  0.7183915306662668  1.0000
  H   H26       1.0  0.5957407322779603  0.0658506538508661  0.7816058976929838  1.0000
  H   H27       1.0  0.40425934706956207  0.06585062920726159  0.2816056745650641  1.0000
  H   H28       1.0  0.4042610758985745  0.9341501179129923  0.21839210455614477  1.0000
  H   H29       1.0  0.7871051865731999  0.7945191896031146  0.49705854914962083  1.0000
  H   H30       1.0  0.7871063061755522  0.2054775631744548  0.0029396608200258087  1.0000
  H   H31       1.0  0.2128930968946037  0.2054770315692096  0.5029392291005691  1.0000
  H   H32       1.0  0.2128937396464323  0.7945212591349105  0.9970586348845172  1.0000
  H   H33       1.0  0.7318905917382637  0.6142835429467511  0.5928871980442025  1.0000
  H   H34       1.0  0.7318904810402246  0.3857165767885107  0.90711452281883  1.0000
  H   H35       1.0  0.26810857290510637  0.3857172355289364  0.4071140756267083  1.0000
  H   H36       1.0  0.26810956478058046  0.6142835511231083  0.092886485179008  1.0000
  H   H37       1.0  0.9985216456820892  0.7709074308555727  0.5025446496466373  1.0000
  H   H38       1.0  0.9985214836680641  0.2290919707330872  0.9974561516181735  1.0000
  H   H39       1.0  0.0014784001390211  0.2290913959281227  0.4974558270054033  1.0000
  H   H40       1.0  0.0014776809760448002  0.7709075043775114  0.0025435002331945645  1.0000
  H   H41       1.0  0.2691095787790517  0.5306755080562553  0.4113079759204226  1.0000
  H   H42       1.0  0.2691097125170785  0.4693246289009991  0.0886928640413984  1.0000
  H   H43       1.0  0.7308913482190391  0.46932461985525015  0.5886930320772379  1.0000
  H   H44       1.0  0.7308903333037264  0.530675499010627  0.9113081439564324  1.0000
  H   H45       1.0  0.8506064859072211  0.8197871344040308  0.14525053512029015  1.0000
  H   H46       1.0  0.8506055639821  0.1802122070376129  0.3547498021296747  1.0000
  H   H47       1.0  0.1493935599139533  0.18021234182504028  0.8547496619677728  1.0000
  H   H48       1.0  0.1493962441936389  0.8197872691912451  0.6452503949580262  1.0000
  H   H49       1.0  0.8299842497719183  0.9151639339011196  0.23911914796879322  1.0000
  H   H50       1.0  0.8299834161926612  0.08483541156250847  0.260880652450652  1.0000
  H   H51       1.0  0.17001491487219772  0.0848355412094861  0.760880503882575  1.0000
  H   H52       1.0  0.1700166296289538  0.9151640624293976  0.7391184541636662  1.0000
  H   H53       1.0  0.7771726891828266  0.9130352476217071  0.1460256730356591  1.0000
  H   H54       1.0  0.7771726617113686  0.0869647626888863  0.3539749598212936  1.0000
  H   H55       1.0  0.2228264754610692  0.08696422860747789  0.8539745240525818  1.0000
  H   H56       1.0  0.2228265029328114  0.9130353618670951  0.6460244124660973  1.0000
  H   H57       1.0  0.60420467271463  0.8053769555218864  0.07747555651288704  1.0000
  H   H58       1.0  0.6042045755689003  0.1946224473411036  0.422524881179207  1.0000
  H   H59       1.0  0.39579449192919475  0.19462187126192282  0.922524920139338  1.0000
  H   H60       1.0  0.39579723260675354  0.8053783288970919  0.5774753020174188  1.0000
  H   H61       1.0  0.5313991403573581  0.7630470099176847  0.1385906313337699  1.0000
  H   H62       1.0  0.5313990865599791  0.23695241109378876  0.3614098360364864  1.0000
  H   H63       1.0  0.46860002428646663  0.2369518168661244  0.8614098453184553  1.0000
  H   H64       1.0  0.46860184043854497  0.7630477145805514  0.6385900814874218  1.0000
  H   H65       1.0  0.669847974693333  0.7178646779717324  0.09162502205761303  1.0000
  H   H66       1.0  0.6698487582152168  0.2821353590919742  0.4083756545486138  1.0000
  H   H67       1.0  0.3301511899504064  0.28213544882141406  0.90837544070353  1.0000
  H   H68       1.0  0.33015216878315806  0.7178654171463281  0.5916245286481967  1.0000
  H   H69       1.0  0.5454318315861357  0.8394133533635612  0.2676294507345389  1.0000
  H   H70       1.0  0.5454310106283486  0.16058866640587868  0.23237207360722315  1.0000
  H   H71       1.0  0.4545682142344347  0.1605887251213574  0.7323718090451122  1.0000
  H   H72       1.0  0.45456903519207265  0.8394140626430017  0.7676294518453232  1.0000
  C   C1        1.0  0.3761479150494226  0.8561020623918125  0.43275397471639815  1.0000
  C   C2        1.0  0.376148110174924  0.14389935013011979  0.06724789819538297  1.0000
  C   C3        1.0  0.6238521307710769  0.1438993666477302  0.5672475646272304  1.0000
  C   C4        1.0  0.6238519356451419  0.8561020811465951  0.9327547316219976  1.0000
  C   C5        1.0  0.31353412130237507  0.7701123280680021  0.3962979209605919  1.0000
  C   C6        1.0  0.3135307507656507  0.2298877989344135  0.10370344612977078  1.0000
  C   C7        1.0  0.6864685680506498  0.2298871481607492  0.6037022761269313  1.0000
  C   C8        1.0  0.6864675327001565  0.770112331214591  0.8962986523421748  1.0000
  C   C9        1.0  0.343158455910924  0.7068756247614799  0.31854530378991086  1.0000
  C   C10       1.0  0.3431567766896677  0.2931251476572925  0.1814574073708002  1.0000
  C   C11       1.0  0.6568424710869394  0.2931245042686186  0.681456249444622  1.0000
  C   C12       1.0  0.6568423879528992  0.7068762847381153  0.8185457676836307  1.0000
  C   C13       1.0  0.28503425847550545  0.6270071419550051  0.2859030140562239  1.0000
  C   C14       1.0  0.2850325421956938  0.37299364159684245  0.214098085087393  1.0000
  C   C15       1.0  0.7149675497000912  0.3729929848378148  0.7140974487043721  1.0000
  C   C16       1.0  0.7149666224473067  0.627007788561393  0.7859039994932927  1.0000
  C   C17       1.0  0.20120520271918  0.60908364464634  0.331900631792827  1.0000
  C   C18       1.0  0.20120352095627683  0.3909184586926173  0.16809994239458348  1.0000
  C   C19       1.0  0.798794843101824  0.3909184316014133  0.668099537513072  1.0000
  C   C20       1.0  0.7987956436871642  0.6090829692284528  0.8319010517123501  1.0000
  C   C21       1.0  0.17356616001473674  0.6703755471804483  0.41126479292502427  1.0000
  C   C22       1.0  0.17356543149787737  0.32962526527590097  0.08873689689369262  1.0000
  C   C23       1.0  0.8264338858057699  0.3296258818590941  0.5887367464186041  1.0000
  C   C24       1.0  0.8264346143229276  0.6703748626357181  0.9112641111041453  1.0000
  C   C25       1.0  0.2281180655441233  0.7519553972800068  0.4416243784199877  1.0000
  C   C26       1.0  0.2281164913077021  0.24804475213272778  0.0583775687255539  1.0000
  C   C27       1.0  0.7718828614541168  0.24804408006754392  0.5583763639047703  1.0000
  C   C28       1.0  0.7718826733353766  0.7519553780161701  0.9416245297462139  1.0000
  C   C29       1.0  0.8242115262745245  0.7555007250311122  0.5925379655230428  1.0000
  C   C30       1.0  0.8242123156376382  0.24449871665257208  0.9074612710860634  1.0000
  C   C31       1.0  0.17578763836973368  0.2444980995155248  0.40746142065543  1.0000
  C   C32       1.0  0.17578861136184543  0.7555001045380934  0.09253647938142959  1.0000
  C   C33       1.0  0.7986044807669544  0.7730551983892653  0.6733615570915603  1.0000
  C   C34       1.0  0.7986062186135853  0.22694424967746576  0.8266376899557102  1.0000
  C   C35       1.0  0.20139468387716164  0.2269442767213334  0.32663809475980793  1.0000
  C   C36       1.0  0.2013964707403204  0.7730552220769483  0.1733603261843228  1.0000
  C   C37       1.0  0.7181309426989557  0.8378169675365755  0.7188524184161124  1.0000
  C   C38       1.0  0.7181327258761527  0.16218184890752238  0.7811460505253008  1.0000
  C   C39       1.0  0.2818673407684642  0.16218185477300298  0.2811458772887931  1.0000
  C   C40       1.0  0.28186820112325245  0.8378182722924805  0.21885168605111002  1.0000
  C   C41       1.0  0.6609222806690197  0.8851658973055123  0.6841190394486104  1.0000
  C   C42       1.0  0.6609258047255011  0.11483163338963458  0.8158794667038478  1.0000
  C   C43       1.0  0.33907424044353723  0.1148322766774967  0.31588008105750015  1.0000
  C   C44       1.0  0.3390751222739041  0.8851684878103682  0.18411826987256313  1.0000
  C   C45       1.0  0.6869505283073067  0.8700623153410519  0.6044020135506541  1.0000
  C   C46       1.0  0.6869531051017362  0.1299352088660655  0.8955964819919374  1.0000
  C   C47       1.0  0.3130468739829126  0.1299352069593027  0.3955962960455039  1.0000
  C   C48       1.0  0.313046059542657  0.87006491457133  0.10440234505857393  1.0000
  C   C49       1.0  0.7689819876165702  0.8059266469228631  0.5592926789534542  1.0000
  C   C50       1.0  0.7689845194722409  0.19407085683599232  0.9407057831501573  1.0000
  C   C51       1.0  0.23101629585086414  0.1940702259320091  0.44070591020650335  1.0000
  C   C52       1.0  0.23101728870415877  0.8059286160371145  0.05929277822691854  1.0000
  C   C53       1.0  0.6240468181122409  0.9212256322498719  0.5674875033429672  1.0000
  C   C54       1.0  0.6240520157277486  0.07877321212081508  0.9325131848973456  1.0000
  C   C55       1.0  0.3759479406451689  0.0787731945344845  0.4325129733101534  1.0000
  C   C56       1.0  0.3759497924477628  0.9212282146813352  0.0674872639721755  1.0000
  C   C57       1.0  0.8083767921455876  0.5720177268015618  0.5696229378771207  1.0000
  C   C58       1.0  0.8083775382017961  0.4279823727490212  0.9303782065703244  1.0000
  C   C59       1.0  0.1916223724982373  0.4279810999822401  0.4303775387751044  1.0000
  C   C60       1.0  0.19162426997357326  0.5720177551623777  0.06962280142715117  1.0000
  C   C61       1.0  0.9064650511689506  0.6023433085183711  0.5402840066094966  1.0000
  C   C62       1.0  0.90646489659607  0.3976561148989788  0.9597162869440367  1.0000
  C   C63       1.0  0.0935367570070795  0.3976568160372764  0.45971536567735427  1.0000
  C   C64       1.0  0.0935360304026034  0.6023433602114069  0.04028336490697633  1.0000
  C   C65       1.0  0.9108832664271843  0.6874624120826666  0.5449278358938512  1.0000
  C   C66       1.0  0.9108840083123653  0.312538311361152  0.955072987204275  1.0000
  C   C67       1.0  0.0891158982165621  0.3125377147104799  0.4550726268672917  1.0000
  C   C68       1.0  0.08911779986351581  0.6874624637584574  0.0449266507554782  1.0000
  C   C69       1.0  0.9994662720040212  0.7071538385522017  0.5026729978628879  1.0000
  C   C70       1.0  0.99946610144157  0.2928468628103289  0.9973277891257836  1.0000
  C   C71       1.0  0.0005337738165636  0.2928462904780034  0.49732855537182263  1.0000
  C   C72       1.0  0.0005348255569544001  0.7071532628640114  0.002672128398124585  1.0000
  C   C73       1.0  0.088180944429503  0.6481080920520482  0.4598548671753945  1.0000
  C   C74       1.0  0.088180251922843  0.351892739451408  0.04014576697566952  1.0000
  C   C75       1.0  0.9118191013913731  0.3518926853049535  0.540145861258459  1.0000
  C   C76       1.0  0.9118189127213369  0.6481073851045737  0.9598536053117214  1.0000
  C   C77       1.0  0.09374734558700479  0.5666548481356984  0.46301227028520486  1.0000
  C   C78       1.0  0.0937466445636872  0.43334533029765515  0.03698755068702301  1.0000
  C   C79       1.0  0.9062527002343901  0.4333446269747937  0.5369873815659858  1.0000
  C   C80       1.0  0.9062534012575583  0.5666547953767989  0.9630123668370628  1.0000
  C   C81       1.0  5.9302708948e-06  0.5422924936177721  0.5008836017556746  1.0000
  C   C82       1.0  7.498253992800001e-06  0.45770650519165207  0.9991167956301295  1.0000
  C   C83       1.0  0.9999932343733703  0.4577063309288647  0.49911578442279847  1.0000
  C   C84       1.0  0.999995191099032  0.5422929710370922  0.00088340145739346  1.0000
  C   C85       1.0  0.19189905587413145  0.5087344972750002  0.4323990250871929  1.0000
  C   C86       1.0  0.19189920357728601  0.49126435668228646  0.06760076976575388  1.0000
  C   C87       1.0  0.8081009899469719  0.4912643295087022  0.5676014515648475  1.0000
  C   C88       1.0  0.808099961066823  0.5087351184283122  0.9323988820856144  1.0000
  C   C89       1.0  0.7911296452110859  0.8743427254570977  0.17985741469897926  1.0000
  C   C90       1.0  0.791129639665705  0.1256559802464778  0.32014268112281735  1.0000
  C   C91       1.0  0.2088695194329588  0.1256561002081256  0.8201425167163734  1.0000
  C   C92       1.0  0.2088712873325349  0.8743434971010727  0.6798580612019407  1.0000
  C   C93       1.0  0.6176073636504427  0.7779180670481695  0.12081581179533879  1.0000
  C   C94       1.0  0.6176072975929897  0.22208198191925277  0.3791843408693437  1.0000
  C   C95       1.0  0.382392682170952  0.2220814080623228  0.8791838400558517  1.0000
  C   C96       1.0  0.38239362940486643  0.7779200965655519  0.6208169189101297  1.0000
  C   C97       1.0  0.6313510213595634  0.8684856002331572  0.2658070830214569  1.0000
  C   C98       1.0  0.6313510840621249  0.13151249026068965  0.2341906313114777  1.0000
  C   C99       1.0  0.3686472621082189  0.1315125703938804  0.7341904017736737  1.0000
  C   C100      1.0  0.368649842937586  0.8684863298113967  0.7658065739191358  1.0000
  N   N1        1.0  0.6787178564636703  0.8408753016940268  0.19225632466249462  1.0000
  N   N2        1.0  0.6787178563362132  0.15912473315874817  0.3077443483281996  1.0000
  N   N3        1.0  0.3212813081798486  0.1591248262177061  0.8077446833355211  1.0000
  N   N4        1.0  0.32128307066186323  0.8408773442074776  0.6922563662143943  1.0000
  O   O1        1.0  0.46117272672877613  0.8657517165252742  0.3922634486534874  1.0000
  O   O2        1.0  0.4611728906396522  0.1342503186546864  0.1077353838507591  1.0000
  O   O3        1.0  0.538829081447318  0.13424905747575622  0.6077356440693933  1.0000
  O   O4        1.0  0.5388289175362148  0.8657524059196362  0.8922639606539279  1.0000
  O   O5        1.0  0.3399861301730525  0.9120958978104242  0.5017773995205701  1.0000
  O   O6        1.0  0.3399842243477664  0.0879043162607118  0.9982228453866354  1.0000
  O   O7        1.0  0.6600139156484772  0.08790487619081938  0.49822169320266607  1.0000
  O   O8        1.0  0.6600140591184669  0.9120958116511274  0.0017781626115576776  1.0000
  O   O9        1.0  0.660921471856966  0.9137180566744545  0.4991215412388428  1.0000
  O   O10       1.0  0.6609252528235813  0.08628132757571902  0.0008766923851482062  1.0000
  O   O11       1.0  0.33907681161014835  0.08628206676304728  0.5008772858118604  1.0000
  O   O12       1.0  0.3390756741759731  0.913718143060329  0.9991207785183673  1.0000
  O   O13       1.0  0.5374120919082728  0.9675391427258475  0.607556703237563  1.0000
  O   O14       1.0  0.5374111597543347  0.0324610232506899  0.8924440064283629  1.0000
  O   O15       1.0  0.4625879539132783  0.032459681820682804  0.39244268294073237  1.0000
  O   O16       1.0  0.4625862425351955  0.9675404013148422  0.10755535196830825  1.0000
  O   O17       1.0  0.6791865818803586  0.923510572517749  0.32991969996574966  1.0000
  O   O18       1.0  0.6791840600167164  0.07649141391038229  0.1700817698530912  1.0000
  O   O19       1.0  0.32081522629477627  0.07649150596694912  0.6700815598135463  1.0000
  O   O20       1.0  0.32081422344914046  0.9235113151387183  0.8299197555998176  1.0000
