data_image0
_chemical_formula_structural       Zn2H24C44N5Cl5O8
_chemical_formula_sum              "Zn2 H24 C44 N5 Cl5 O8"
_cell_length_a       12.673043439995006
_cell_length_b       13.424587718069372
_cell_length_c       17.249206018771822
_cell_angle_alpha    90.74499946500818
_cell_angle_beta     99.22781595527245
_cell_angle_gamma    98.08800243357258

_space_group_name_H-M_alt    "P 1"
_space_group_IT_number       1

loop_
  _space_group_symop_operation_xyz
  'x, y, z'

loop_
  _atom_site_type_symbol
  _atom_site_label
  _atom_site_symmetry_multiplicity
  _atom_site_fract_x
  _atom_site_fract_y
  _atom_site_fract_z
  _atom_site_occupancy
  Zn  Zn1       1.0  0.6170378496317355  0.4834499412139337  0.5214377585932296  1.0000
  Zn  Zn2       1.0  0.3846943406990775  0.5027891300204815  0.48085896200536377  1.0000
  H   H1        1.0  0.3582723626615589  0.5541514055416599  0.23791245756152077  1.0000
  H   H2        1.0  0.3280850415318284  0.6233278954945407  0.8533430509218147  1.0000
  H   H3        1.0  0.2630846354349289  0.19570223170313739  0.5466999530109218  1.0000
  H   H4        1.0  0.3231097508546626  0.8629900024524916  0.5967361511590709  1.0000
  H   H5        1.0  0.24674704340417017  0.0139445731360937  0.5810264471603261  1.0000
  H   H6        1.0  0.7110851822781754  0.7591030991478435  0.39550395128203053  1.0000
  H   H7        1.0  0.5866249958713468  0.0392788602952479  0.36190355157366116  1.0000
  H   H8        1.0  0.7019297491444904  0.9215100695583301  0.3258808413150902  1.0000
  H   H9        1.0  0.4543756338043252  0.7536206952588314  0.5706116908167543  1.0000
  H   H10       1.0  0.6706932109519244  0.5701044395969745  0.7643358476177652  1.0000
  H   H11       1.0  0.11745267342822532  0.32853983396885417  0.6398474003405212  1.0000
  H   H12       1.0  0.9544647026804115  0.6551065560248545  0.4488520364846593  1.0000
  H   H13       1.0  0.25606207925727636  0.4132360010408717  0.5695141511159318  1.0000
  H   H14       1.0  0.3291373192346185  0.5751131669830015  0.7132304572918429  1.0000
  H   H15       1.0  0.6712561122313191  0.6181980857931819  0.9047926884853013  1.0000
  H   H16       1.0  0.6795865805350019  0.476884228658541  0.2759685204796937  1.0000
  H   H17       1.0  0.5930303594045867  0.5239221924801853  0.999970204095014  1.0000
  H   H18       1.0  0.37492808480984513  0.5914953852158077  0.0999288572478321  1.0000
  H   H19       1.0  0.8607629442961625  0.5350308293551649  0.3907979628804767  1.0000
  H   H20       1.0  0.7264331742096813  0.5077252890777686  0.40750095905056577  1.0000
  H   H21       1.0  0.422634288956182  0.7603754057055809  0.9565322695531648  1.0000
  H   H22       1.0  0.4358765718994063  0.7212843461446494  0.0504537798747648  1.0000
  H   H23       1.0  0.7260765353110942  0.5267483003364433  0.07726260982421004  1.0000
  H   H24       1.0  0.7684729215621787  0.4704317874225054  0.16188160514485622  1.0000
  C   C1        1.0  0.5843618067881097  0.6792248158358375  0.49125053623263426  1.0000
  C   C2        1.0  0.6136276154834874  0.5042797692218812  0.23741509772126784  1.0000
  C   C3        1.0  0.595871084957814  0.6071619402018766  0.8630630026101542  1.0000
  C   C4        1.0  0.5960986167041682  0.5809708930843414  0.7849255483563978  1.0000
  C   C5        1.0  0.40368843414491107  0.5850990373913092  0.7557363548957169  1.0000
  C   C6        1.0  0.40354376975597017  0.6125785326889783  0.8338177529621972  1.0000
  C   C7        1.0  0.4990012903622088  0.6202776040090399  0.8892673264162311  1.0000
  C   C8        1.0  0.5472170777464527  0.5746186296400779  0.026248629987023292  1.0000
  C   C9        1.0  0.49505690921711937  0.6343737608280833  0.9738919482912249  1.0000
  C   C10       1.0  0.49948372495590126  0.5671265986449185  0.7308946661765958  1.0000
  C   C11       1.0  0.30989422666863936  0.04721474259446269  0.5490644008162489  1.0000
  C   C12       1.0  0.5063949636759233  0.4916596439687595  0.3488590117479404  1.0000
  C   C13       1.0  0.4074922076971604  0.19133858640494586  0.4967433757428664  1.0000
  C   C14       1.0  0.6605744670806288  0.8128582843935844  0.4115548447113468  1.0000
  C   C15       1.0  0.6558819390362558  0.9039126373287445  0.3734795593441405  1.0000
  C   C16       1.0  0.5911701360219866  0.9712805821688946  0.3946183754001211  1.0000
  C   C17       1.0  0.5297116390710174  0.9523874139290314  0.4559731455710718  1.0000
  C   C18       1.0  0.5268376313374858  0.8548447438306822  0.489671462029186  1.0000
  C   C19       1.0  0.4650051573539074  0.0241059443107261  0.4829291824901815  1.0000
  C   C20       1.0  0.38390776568645896  0.9861297253842807  0.5286867086754299  1.0000
  C   C21       1.0  0.38185250617463135  0.887211138289544  0.558421050167702  1.0000
  C   C22       1.0  0.4542226910680612  0.8264446678875217  0.5438729439098394  1.0000
  C   C23       1.0  0.4258232870869207  0.30442893172654806  0.4960046098283468  1.0000
  C   C24       1.0  0.47773075704851203  0.1302297732020676  0.4718864942167471  1.0000
  C   C25       1.0  0.3195088330957034  0.14740176730479962  0.5313611103844877  1.0000
  C   C26       1.0  0.5938310596961288  0.7864887375605889  0.46673648125314315  1.0000
  C   C27       1.0  0.9052291223086683  0.35099417404581607  0.6183730191829824  1.0000
  C   C28       1.0  0.2112197566987533  0.6351954204503086  0.4234089330105348  1.0000
  C   C29       1.0  0.11285756063539762  0.6759560256059345  0.4195623282422431  1.0000
  C   C30       1.0  0.0293611923662027  0.6233439998712741  0.45121653911049714  1.0000
  C   C31       1.0  0.04319040951585151  0.5328223017385412  0.4899191099770235  1.0000
  C   C32       1.0  0.1500000772732903  0.5069035557480959  0.5030515418688635  1.0000
  C   C33       1.0  0.9588070856125696  0.4720233478571956  0.5222282459009405  1.0000
  C   C34       1.0  0.49941518669402296  0.5322589909771126  0.6480748146506626  1.0000
  C   C35       1.0  0.9870277974455135  0.4014105515398967  0.5795920984621574  1.0000
  C   C36       1.0  0.09662993793291723  0.38328698356741603  0.5960528779969606  1.0000
  C   C37       1.0  0.17409107238194113  0.43064402599549106  0.5571402900919011  1.0000
  C   C38       1.0  0.8454914862974973  0.4754553295093514  0.4969096617689388  1.0000
  C   C39       1.0  0.8012665001534957  0.37532077900951316  0.6004816340713219  1.0000
  C   C40       1.0  0.518216830091454  0.5141100201273403  0.2659269631891163  1.0000
  C   C41       1.0  0.4330229784487045  0.5480808957763583  0.2159337214191837  1.0000
  C   C42       1.0  0.4443170250407961  0.5710550367669284  0.1391902685553461  1.0000
  C   C43       1.0  0.5393844289233839  0.5613261543482081  0.10865416112840619  1.0000
  C   C44       1.0  0.6261134704816769  0.52762031128632  0.16021577344824317  1.0000
  N   N1        1.0  0.7712073362665492  0.4350606948778051  0.5406213028918927  1.0000
  N   N2        1.0  0.23005745118637586  0.5560026908572198  0.4665058012843559  1.0000
  N   N3        1.0  0.8088231242716902  0.5153218966054922  0.4284852072565215  1.0000
  N   N4        1.0  0.42848790800577063  0.7015533606093385  0.9925812904937813  1.0000
  N   N5        1.0  0.7243247709111316  0.5216306993362849  0.13557340538596924  1.0000
  Cl  Cl1       1.0  0.5841653332414509  0.1906072444321367  0.4298283076787968  1.0000
  Cl  Cl2       1.0  0.7049093439370822  0.3273049982835163  0.6539656271930026  1.0000
  Cl  Cl3       1.0  0.9358964502244405  0.2647596375786705  0.6883516444440827  1.0000
  Cl  Cl4       1.0  0.30587164497286073  0.6893203238850134  0.37127865701619805  1.0000
  Cl  Cl5       1.0  0.09741275364871885  0.788502773482499  0.37657332007650257  1.0000
  O   O1        1.0  0.668591974811747  0.6364460038772252  0.5037686933355303  1.0000
  O   O2        1.0  0.488963761636974  0.6356544127215713  0.4936107296768951  1.0000
  O   O3        1.0  0.5905393379846231  0.47468747021760993  0.396318593808587  1.0000
  O   O4        1.0  0.4137136263905391  0.49228884491206776  0.3679372815067268  1.0000
  O   O5        1.0  0.5214201406681198  0.3475839297821395  0.5185161833566951  1.0000
  O   O6        1.0  0.3431141320653879  0.348803776216613  0.4774311252586472  1.0000
  O   O7        1.0  0.5909941587823512  0.5236104467122259  0.6294356669126273  1.0000
  O   O8        1.0  0.4079744688917231  0.5133683844732388  0.603186826667624  1.0000
