data_image0
_chemical_formula_structural       H12Pb2C12O14
_chemical_formula_sum              "H12 Pb2 C12 O14"
_cell_length_a       6.364732407576058
_cell_length_b       6.61275945325518
_cell_length_c       11.894394284819272
_cell_angle_alpha    96.23955644319709
_cell_angle_beta     101.67802096236586
_cell_angle_gamma    103.4893452964534

_space_group_name_H-M_alt    "P 1"
_space_group_IT_number       1

loop_
  _space_group_symop_operation_xyz
  'x, y, z'

loop_
  _atom_site_type_symbol
  _atom_site_label
  _atom_site_symmetry_multiplicity
  _atom_site_fract_x
  _atom_site_fract_y
  _atom_site_fract_z
  _atom_site_occupancy
  H   H1        1.0  0.27540701851327043  0.8407760716482499  0.31796398499428596  1.0000
  H   H2        1.0  0.7245823434367934  0.15924587215452146  0.6820236541288909  1.0000
  H   H3        1.0  0.1051691671774222  0.9843710969388866  0.3758874531466176  1.0000
  H   H4        1.0  0.8948119793641425  0.015638956632884095  0.6241143663734974  1.0000
  H   H5        1.0  0.7041637950274547  0.8380617822242937  0.33421172978921027  1.0000
  H   H6        1.0  0.2958819837834454  0.1620229120730343  0.6658020186878846  1.0000
  H   H7        1.0  0.7564744288442854  0.654230269568508  0.4278107756715884  1.0000
  H   H8        1.0  0.2435157015447517  0.345765503466403  0.5721960529120835  1.0000
  H   H9        1.0  0.9227352443893864  0.3821224014501397  0.3473522691443876  1.0000
  H   H10       1.0  0.07727271220276322  0.6178870508724046  0.6526710308140056  1.0000
  H   H11       1.0  0.4599076668332814  0.7014254610779604  0.5884521894967777  1.0000
  H   H12       1.0  0.5400779639144915  0.29858144350902904  0.4115196255981887  1.0000
  Pb  Pb1       1.0  0.0725570292739306  0.2934527604761428  0.11216969122699541  1.0000
  Pb  Pb2       1.0  0.9274798992432665  0.706537583834951  0.8878361245735037  1.0000
  C   C1        1.0  0.5125791278401765  0.5216423942535826  0.2669512676427956  1.0000
  C   C2        1.0  0.4874399142595394  0.4783155889792781  0.7330333325118021  1.0000
  C   C3        1.0  0.7241284934215173  0.678297444220483  0.3369914920739561  1.0000
  C   C4        1.0  0.27581228972024974  0.3217119161008882  0.6630099332310594  1.0000
  C   C5        1.0  0.9288927857740102  0.6657534689172379  0.28894591460203156  1.0000
  C   C6        1.0  0.07106537871347031  0.33418830657405624  0.7110575478760953  1.0000
  C   C7        1.0  0.8955985026003219  0.7216245487823657  0.16437517914221195  1.0000
  C   C8        1.0  0.10439288233400393  0.2783688944920258  0.8356156393599862  1.0000
  C   C9        1.0  0.14155053630521064  0.8299767523171869  0.36406965376226463  1.0000
  C   C10       1.0  0.8584562020135492  0.17001475908327995  0.6359336867401738  1.0000
  C   C11       1.0  0.21505192623182273  0.7729895349558192  0.48248013323054556  1.0000
  C   C12       1.0  0.7849695452256287  0.22699637319670532  0.5175143629218298  1.0000
  O   O1        1.0  0.40428231020210603  0.5755422837032782  0.17773080457062926  1.0000
  O   O2        1.0  0.5957105757793644  0.4245598516087769  0.8222622852070105  1.0000
  O   O3        1.0  0.44570491596163464  0.3420191972934106  0.2970708165604706  1.0000
  O   O4        1.0  0.5542390294539885  0.6580706210996184  0.7029621111915747  1.0000
  O   O5        1.0  0.9612717242802591  0.45850335269033593  0.282019145689418  1.0000
  O   O6        1.0  0.038734818366307905  0.5414506684368376  0.7179772116689165  1.0000
  O   O7        1.0  0.9027312851263218  0.5806927519518369  0.0817875232826353  1.0000
  O   O8        1.0  0.09726994236699228  0.4192418116113715  0.9182177386758926  1.0000
  O   O9        1.0  0.867548840511205  0.8981119860441144  0.14955162370008426  1.0000
  O   O10       1.0  0.13250534077496212  0.1018822515322313  0.8504454886804071  1.0000
  O   O11       1.0  0.412930910208047  0.7377865888833031  0.5037408199447385  1.0000
  O   O12       1.0  0.5870705430156421  0.26214835475610704  0.49625692581898323  1.0000
  O   O13       1.0  0.09322737534090207  0.7592441365800936  0.5528947454883096  1.0000
  O   O14       1.0  0.9067887370147216  0.24073906906156847  0.44708885533125914  1.0000
