data_image0
_chemical_formula_structural       Mg3H54C88O20
_chemical_formula_sum              "Mg3 H54 C88 O20"
_cell_length_a       11.221472506958959
_cell_length_b       14.032571795253824
_cell_length_c       16.22223098423841
_cell_angle_alpha    80.43446387204231
_cell_angle_beta     75.61537200526048
_cell_angle_gamma    77.61080293561707

_space_group_name_H-M_alt    "P 1"
_space_group_IT_number       1

loop_
  _space_group_symop_operation_xyz
  'x, y, z'

loop_
  _atom_site_type_symbol
  _atom_site_label
  _atom_site_symmetry_multiplicity
  _atom_site_fract_x
  _atom_site_fract_y
  _atom_site_fract_z
  _atom_site_occupancy
  Mg  Mg1       1.0  0.3402434468761228  0.42368943637871576  0.790714459456261  1.0000
  Mg  Mg2       1.0  0.6741645382300803  0.3937738835365892  0.726173980793597  1.0000
  Mg  Mg3       1.0  0.0077903496229793975  0.44980619542677397  0.8613493956558501  1.0000
  H   H1        1.0  0.4966108609477616  0.35289922373330995  0.6224967861613353  1.0000
  H   H2        1.0  0.08838676558205805  0.72804836010674  0.6502049178153728  1.0000
  H   H3        1.0  0.0524373625730235  0.9700173042896622  0.44210675131603955  1.0000
  H   H4        1.0  0.47651350945437093  0.6230011975995282  0.2311339396705634  1.0000
  H   H5        1.0  0.8020862614931304  0.125586469611207  0.23658697102673903  1.0000
  H   H6        1.0  0.5859107180111208  0.6904323569762951  0.34406151467608476  1.0000
  H   H7        1.0  0.10743371579071948  0.9642853075680123  0.01502239224034702  1.0000
  H   H8        1.0  0.23507248198297506  0.8385519149721147  0.43936657395259004  1.0000
  H   H9        1.0  0.05940148684331349  0.14276867677222776  0.002444851534917812  1.0000
  H   H10       1.0  0.6230701741653207  0.1066570322855966  0.01887507230920701  1.0000
  H   H11       1.0  0.7266986146272814  0.0301008646436358  0.13896826868784734  1.0000
  H   H12       1.0  0.285495300746426  0.8277979122996013  0.014597145700321362  1.0000
  H   H13       1.0  0.9559573975026723  0.2182748336198941  0.883947422453673  1.0000
  H   H14       1.0  0.6028625097304358  0.7083050089094414  0.04136984909851555  1.0000
  H   H15       1.0  0.20457654469944228  0.6533879805334096  0.44674232431530925  1.0000
  H   H16       1.0  0.2375401237783735  0.631569089855553  0.09326882838770703  1.0000
  H   H17       1.0  0.921849698292263  0.3869791725692123  0.7069979111498483  1.0000
  H   H18       1.0  0.8541045399996533  0.49347503730182046  0.6997616382064393  1.0000
  H   H19       1.0  0.5447282805404184  0.2677424327405972  0.8297536622412454  1.0000
  H   H20       1.0  0.4991684971269236  0.27602899371647277  0.7407047909161124  1.0000
  H   H21       1.0  0.6450574431263902  0.5971914589894565  0.4764300524087376  1.0000
  H   H22       1.0  0.6689777764285124  0.6188048177774234  0.9135953159152593  1.0000
  H   H23       1.0  0.2650177612256641  0.558969665805371  0.5789637470803016  1.0000
  H   H24       1.0  0.30096719833775143  0.5471814029599784  0.9623747856176126  1.0000
  H   H25       1.0  0.6011215280089601  0.8726572109790565  0.13618664744267772  1.0000
  H   H26       1.0  0.18129798856649157  0.21948785449026076  0.3510644635264414  1.0000
  H   H27       1.0  0.870902499041307  0.7304966439126873  0.329985517928428  1.0000
  H   H28       1.0  0.07280536503962051  0.17821321134552187  0.23883488279849982  1.0000
  H   H29       1.0  0.5797022729984108  0.8974821283554419  0.5559477548666509  1.0000
  H   H30       1.0  0.4161061177352464  0.0038476070723803  0.14187825542031626  1.0000
  H   H31       1.0  0.6157937727352802  0.7237369373240694  0.5721293805359551  1.0000
  H   H32       1.0  0.0629970693804154  0.7449324431865989  0.5358858132259385  1.0000
  H   H33       1.0  0.9554369186092302  0.814558896028764  0.42008071708423245  1.0000
  H   H34       1.0  0.39177159989680627  0.024557828772401497  0.5620145912926802  1.0000
  H   H35       1.0  0.7237803730905696  0.6500902625300854  0.6892955138294355  1.0000
  H   H36       1.0  0.09594640631410561  0.08719805934605057  0.5744811927770572  1.0000
  H   H37       1.0  0.4666662063812339  0.17155642329492338  0.13498037947121594  1.0000
  H   H38       1.0  0.3738156251395352  0.2645324675598175  0.44924196944740663  1.0000
  H   H39       1.0  0.7593363880829144  0.46377146967272154  0.8733281115972819  1.0000
  H   H40       1.0  0.8248632436758212  0.35785724697205973  0.8634379760294593  1.0000
  H   H41       1.0  0.15523405561608433  0.5711900687842614  0.758409893498545  1.0000
  H   H42       1.0  0.1496696797808283  0.5687810666354663  0.8599838365730792  1.0000
  H   H43       1.0  0.026294294864371202  0.2769692523003329  0.1036884964467504  1.0000
  H   H44       1.0  0.036710375296074516  0.18331160783719008  0.6992200963669577  1.0000
  H   H45       1.0  0.4189958003885438  0.27015096183528436  0.0008799845703535256  1.0000
  H   H46       1.0  0.9528462261127615  0.8374654673004258  0.15571010962903398  1.0000
  H   H47       1.0  0.06682905163699361  0.7529703144127352  0.027472879663633924  1.0000
  H   H48       1.0  0.3211089989737844  0.3549020717322264  0.576844448665135  1.0000
  H   H49       1.0  0.6841529316497983  0.06847672116901998  0.37936700035886867  1.0000
  H   H50       1.0  0.5660169763353481  0.1694607003372042  0.49533368202443046  1.0000
  H   H51       1.0  0.9106828636777847  0.23064069407785578  0.5276046383980316  1.0000
  H   H52       1.0  0.028940566662193114  0.13223217832394596  0.4095097343743106  1.0000
  H   H53       1.0  0.7767770251802874  0.5839056734815102  0.06836612138855716  1.0000
  H   H54       1.0  0.6594412088935897  0.6707269182603496  0.19504263342061998  1.0000
  C   C1        1.0  0.11158757955497124  0.9358039959901701  0.22949052200277734  1.0000
  C   C2        1.0  0.35376439543281907  0.7323613471479857  0.30635203268019506  1.0000
  C   C3        1.0  0.257316395620208  0.8164408778117149  0.30652670764638407  1.0000
  C   C4        1.0  0.21610608481005777  0.8564931568514779  0.229005982859519  1.0000
  C   C5        1.0  0.2758859711524053  0.8142394189651795  0.151454663254853  1.0000
  C   C6        1.0  0.04723206564754901  0.9746673168986532  0.30817581070338923  1.0000
  C   C7        1.0  0.9550218667632108  0.0416709820823797  0.15553072143280397  1.0000
  C   C8        1.0  0.09761145158948643  0.93843163053927  0.38270482547896023  1.0000
  C   C9        1.0  0.3902239629258304  0.6812501316743108  0.38669600969153345  1.0000
  C   C10       1.0  0.9003609563825279  0.08124738307127188  0.0796387620713332  1.0000
  C   C11       1.0  0.37048676583395956  0.7293324126949441  0.15311252535320827  1.0000
  C   C12       1.0  0.9343833716741585  0.04421775538165209  0.3096877453545517  1.0000
  C   C13       1.0  0.40820446265284  0.6911473990650236  0.22967399358213217  1.0000
  C   C14       1.0  0.06879569590172002  0.9731172324121643  0.15196507417847027  1.0000
  C   C15       1.0  0.8888810034585575  0.07223534752304768  0.23458949598905587  1.0000
  C   C16       1.0  0.7104368960407539  0.2214452231958077  0.8779666736708479  1.0000
  C   C17       1.0  0.7813279303725551  0.16864606841841118  0.9442148957752393  1.0000
  C   C18       1.0  0.5145673772086353  0.6630299140523873  0.39582839882329074  1.0000
  C   C19       1.0  0.4161532090138281  0.67558063245378  0.07643706262209801  1.0000
  C   C20       1.0  0.8651776719508177  0.09373360839155956  0.3856803694918156  1.0000
  C   C21       1.0  0.13789204206015176  0.934352636185693  0.07430964973703881  1.0000
  C   C22       1.0  0.19836426961033043  0.8636563407529677  0.38172006035637224  1.0000
  C   C23       1.0  0.9645124803422007  0.1327956487276509  0.006011472082207144  1.0000
  C   C24       1.0  0.7186928527133674  0.1139950812697563  0.01619626896528813  1.0000
  C   C25       1.0  0.7769000508418102  0.07165578948760039  0.08313351870774008  1.0000
  C   C26       1.0  0.23651187112997732  0.8579890329465057  0.07416478762642957  1.0000
  C   C27       1.0  0.9054971093684117  0.1763753689518096  0.9393370377406072  1.0000
  C   C28       1.0  0.5373909133285295  0.6711787531382711  0.025193811974062952  1.0000
  C   C29       1.0  0.3003688537306459  0.6440577650506469  0.45449342419482985  1.0000
  C   C30       1.0  0.3320266206071381  0.6288891499370025  0.05373948245974703  1.0000
  C   C31       1.0  0.4580635420991682  0.574915575816867  0.5377558838300944  1.0000
  C   C32       1.0  0.4882717294991964  0.5776738631183845  0.9290763166983141  1.0000
  C   C33       1.0  0.49257108985142384  0.5110625281767867  0.61537640437426  1.0000
  C   C34       1.0  0.664145004725114  0.2726660026982159  0.5835626355970405  1.0000
  C   C35       1.0  0.5480146187351026  0.6113620729955469  0.47042111414118903  1.0000
  C   C36       1.0  0.5179331488060797  0.5274272532695363  0.8500570044485087  1.0000
  C   C37       1.0  0.5740855495274745  0.6214899008273918  0.9525706169660283  1.0000
  C   C38       1.0  0.33379571967333993  0.5912332944953248  0.5283297985845793  1.0000
  C   C39       1.0  0.7311822478479044  0.20683456750377618  0.5182582973250194  1.0000
  C   C40       1.0  0.3672965779683182  0.5812345074719472  0.9806988224933306  1.0000
  C   C41       1.0  0.5542326393768066  0.9134298983361047  0.3464359208772123  1.0000
  C   C42       1.0  0.30489528527367327  0.1117958313781244  0.2749284880571636  1.0000
  C   C43       1.0  0.40072054795818696  0.027346778542551006  0.2736247772376999  1.0000
  C   C44       1.0  0.4453343403808675  0.9888616104662588  0.3499287018725213  1.0000
  C   C45       1.0  0.3865009360161409  0.03037811100737289  0.4282012261846405  1.0000
  C   C46       1.0  0.6155536020153461  0.8744960555628509  0.2671334320556227  1.0000
  C   C47       1.0  0.719673371361246  0.8134047015237367  0.4141784807295893  1.0000
  C   C48       1.0  0.5591290226855392  0.90653694047068  0.1949156725444396  1.0000
  C   C49       1.0  0.2730113284536841  0.16643182736874  0.19518803377172847  1.0000
  C   C50       1.0  0.7779147312119151  0.774975604675923  0.4878703400967127  1.0000
  C   C51       1.0  0.2873283635818353  0.11222134619251989  0.4284223440799267  1.0000
  C   C52       1.0  0.7309241455893131  0.8077589672576622  0.2621399087302692  1.0000
  C   C53       1.0  0.24993116680075636  0.15147723676234653  0.35214819783908524  1.0000
  C   C54       1.0  0.6043061139234002  0.8801969184740982  0.4213789733915406  1.0000
  C   C55       1.0  0.7822123432442963  0.7819346913044213  0.3345708051847823  1.0000
  C   C56       1.0  0.9626870226712754  0.6446871481123038  0.6910836922843517  1.0000
  C   C57       1.0  0.8997746103599481  0.6935501468255794  0.6219984301130455  1.0000
  C   C58       1.0  0.14875754688529955  0.19834850914379124  0.1866921353125122  1.0000
  C   C59       1.0  0.2408824606856257  0.1680315528399134  0.5040971757158914  1.0000
  C   C60       1.0  0.7976548516885699  0.7606648172825815  0.18364566233519514  1.0000
  C   C61       1.0  0.5408428360796336  0.9212386059279183  0.4991534203812052  1.0000
  C   C62       1.0  0.4566187998008359  0.9799027429251057  0.19799183977117715  1.0000
  C   C63       1.0  0.7130958324183042  0.7296283859692919  0.5650711989588827  1.0000
  C   C64       1.0  0.9641327145146265  0.7408378464282632  0.5459535422873858  1.0000
  C   C65       1.0  0.9043987574209499  0.7793980706266196  0.47932581302949745  1.0000
  C   C66       1.0  0.4363745700079562  0.9927088719705279  0.5025214190663548  1.0000
  C   C67       1.0  0.7736004624154377  0.6878299706855985  0.630840514061866  1.0000
  C   C68       1.0  0.14492893659861042  0.1465119001212543  0.5744290209570411  1.0000
  C   C69       1.0  0.3702238328638146  0.19307570899824358  0.1275391282659726  1.0000
  C   C70       1.0  0.30084212867209453  0.24605042384813913  0.5044915066657012  1.0000
  C   C71       1.0  0.21993464040152588  0.27879703072295564  0.04421912627083204  1.0000
  C   C72       1.0  0.1787614169894667  0.2728142142840113  0.6468935007568606  1.0000
  C   C73       1.0  0.19627816919319227  0.33918193777052597  0.9627216371185555  1.0000
  C   C74       1.0  0.99436732972827  0.6124102521447058  0.9626737121307939  1.0000
  C   C75       1.0  0.12238934641629132  0.2532324449511449  0.11141664696680921  1.0000
  C   C76       1.0  0.16171041189080884  0.324381606784648  0.7240580476004937  1.0000
  C   C77       1.0  0.11200411640572132  0.19995416626535695  0.6448732460768201  1.0000
  C   C78       1.0  0.34405663998392544  0.24896954575708458  0.05316965351514114  1.0000
  C   C79       1.0  0.9277720877076168  0.6641259815473929  0.0395797161906444  1.0000
  C   C80       1.0  0.913590076694078  0.7823503051989036  0.13646880257388713  1.0000
  C   C81       1.0  0.9776337896102874  0.7351334169093418  0.06479224708022013  1.0000
  C   C82       1.0  0.2715134414462881  0.2967601869416683  0.5754803122629397  1.0000
  C   C83       1.0  0.7340384635444084  0.10461638304690271  0.4111565195836705  1.0000
  C   C84       1.0  0.667535346052581  0.1608676257249329  0.4763776180184253  1.0000
  C   C85       1.0  0.862118159821307  0.1940659856828262  0.49523225394843723  1.0000
  C   C86       1.0  0.927814710063373  0.13844351988491604  0.4296428323510213  1.0000
  C   C87       1.0  0.8134672154558306  0.6405919645449955  0.08762225604449718  1.0000
  C   C88       1.0  0.7486923136175817  0.6889646140044192  0.15830834891098539  1.0000
  O   O1        1.0  0.7595658470899025  0.28281926624215  0.818022918152586  1.0000
  O   O2        1.0  0.6003000998808474  0.2044959249531146  0.8868313235066979  1.0000
  O   O3        1.0  0.8512770068127153  0.4294402280572314  0.6841200861223558  1.0000
  O   O4        1.0  0.5122479518414096  0.3196136708363823  0.7772782357687336  1.0000
  O   O5        1.0  0.5415844265206788  0.2978932551474711  0.5865708730097624  1.0000
  O   O6        1.0  0.9266438929414705  0.5782353930687663  0.7450787251697762  1.0000
  O   O7        1.0  0.07007464634341427  0.6733958381293094  0.6943045813906465  1.0000
  O   O8        1.0  0.8336081607730605  0.416765517033781  0.8864281677049066  1.0000
  O   O9        1.0  0.16866334507480474  0.522701854119468  0.8074658076994794  1.0000
  O   O10       1.0  0.08630524426686749  0.3553082427584897  0.9487614869444131  1.0000
  O   O11       1.0  0.050623425527419434  0.3619103001524022  0.7615389418369676  1.0000
  O   O12       1.0  0.935754366067137  0.5588529193167914  0.9371884332543775  1.0000
  O   O13       1.0  0.2604943542384532  0.32879009896227973  0.7459998190791881  1.0000
  O   O14       1.0  0.29007087040650964  0.3704333324329099  0.913035132121678  1.0000
  O   O15       1.0  0.10640243575646482  0.6246266966986836  0.9272924651290994  1.0000
  O   O16       1.0  0.5980591540055258  0.5047060694732082  0.63244531070351  1.0000
  O   O17       1.0  0.6325759510389801  0.49174428892272454  0.8173618800195684  1.0000
  O   O18       1.0  0.7185764598905777  0.30175357686842824  0.6298887455423526  1.0000
  O   O19       1.0  0.4274984082050751  0.5214305520515906  0.8191172619085735  1.0000
  O   O20       1.0  0.41048953239235425  0.45854083696285386  0.6582426271513528  1.0000
