data_image0
_chemical_formula_structural       Zn2P4H48C52I4O4
_chemical_formula_sum              "Zn2 P4 H48 C52 I4 O4"
_cell_length_a       8.77279168971498
_cell_length_b       11.561374299214332
_cell_length_c       15.1824
_cell_angle_alpha    68.94476146534306
_cell_angle_beta     88.52883730979934
_cell_angle_gamma    73.70535678768287

_space_group_name_H-M_alt    "P 1"
_space_group_IT_number       1

loop_
  _space_group_symop_operation_xyz
  'x, y, z'

loop_
  _atom_site_type_symbol
  _atom_site_label
  _atom_site_symmetry_multiplicity
  _atom_site_fract_x
  _atom_site_fract_y
  _atom_site_fract_z
  _atom_site_occupancy
  Zn  Zn1       1.0  0.5092719609655063  0.9457231084246019  0.7570807179440706  1.0000
  Zn  Zn2       1.0  0.490723439619515  0.05427691114337561  0.2429173030969167  1.0000
  P   P1        1.0  0.4789607480260399  0.8165512283692351  0.9906912947274478  1.0000
  P   P2        1.0  0.5210393139372939  0.1834516973335454  0.009308496725616101  1.0000
  P   P3        1.0  0.49296846468322997  0.8134009782346966  0.60751933254992  1.0000
  P   P4        1.0  0.5070307033403765  0.1865980726216705  0.3924815322526315  1.0000
  H   H1        1.0  0.3388265781888435  0.8596588947244044  0.1619520481658938  1.0000
  H   H2        1.0  0.6611753173323576  0.1403420935551694  0.83805022210246  1.0000
  H   H3        1.0  0.06809377915131175  0.8759225938353483  0.21377877058934291  1.0000
  H   H4        1.0  0.931906383134887  0.12408323800224962  0.7862215416243075  1.0000
  H   H5        1.0  0.8613447555954962  0.8522560006505557  0.1194773136902115  1.0000
  H   H6        1.0  0.13865506004370332  0.1477507998986383  0.8805214213291919  1.0000
  H   H7        1.0  0.9244116793590678  0.8175645007064816  0.9664943221082822  1.0000
  H   H8        1.0  0.0755888295741372  0.1824403624195057  0.0335055913274331  1.0000
  H   H9        1.0  0.19575455170684827  0.8036140849046661  0.912786808085805  1.0000
  H   H10       1.0  0.8042470974902115  0.1963907782213212  0.08721374709148225  1.0000
  H   H11       1.0  0.581454338966232  0.893750762185924  0.09614873007178915  1.0000
  H   H12       1.0  0.41854492938023913  0.10625119480526021  0.903849362204383  1.0000
  H   H13       1.0  0.6705961129015492  0.92568434019487  0.987160180270017  1.0000
  H   H14       1.0  0.3294080631473761  0.0743166480847108  0.012839421537123  1.0000
  H   H15       1.0  0.7224534765627482  0.6409703128140194  0.9305727395277829  1.0000
  H   H16       1.0  0.2775446515198611  0.35903164417715777  0.0694240523494258  1.0000
  H   H17       1.0  0.9129795182992452  0.42475291420412736  0.01951023969123614  1.0000
  H   H18       1.0  0.08701746951950187  0.5752490427870498  0.9804839344722253  1.0000
  H   H19       1.0  0.9137119895326792  0.3241638387212546  0.194316912310164  1.0000
  H   H20       1.0  0.08629243284038786  0.6758332747119127  0.8056791353288872  1.0000
  H   H21       1.0  0.7195504522534362  0.43705070801039625  0.2809192222425523  1.0000
  H   H22       1.0  0.28045168959190653  0.562946405422764  0.7190775178855374  1.0000
  H   H23       1.0  0.5266516160454485  0.650176947893563  0.19320115751049366  1.0000
  H   H24       1.0  0.4733508724468933  0.3498191968280011  0.8067978184692278  1.0000
  H   H25       1.0  0.1523959422433592  0.8860901908255485  0.6136424353339294  1.0000
  H   H26       1.0  0.8476044663669737  0.1139117661656357  0.38635300539684897  1.0000
  H   H27       1.0  0.9353845113177215  0.8592626916785805  0.528300078847515  1.0000
  H   H28       1.0  0.06461545032275504  0.1407373278893971  0.4716972158727942  1.0000
  H   H29       1.0  0.9994633103263195  0.7444074004111485  0.41476558176454864  1.0000
  H   H30       1.0  0.0005398714600204111  0.2555868068872016  0.585234572631485  1.0000
  H   H31       1.0  0.28242731027103213  0.6502670380726842  0.3909124998110017  1.0000
  H   H32       1.0  0.7175742842815822  0.3497252318024593  0.60908952549039  1.0000
  H   H33       1.0  0.5000643349165799  0.6767961740457764  0.47581997031961976  1.0000
  H   H34       1.0  0.49993884686976026  0.3231980332525737  0.524180184076414  1.0000
  H   H35       1.0  0.7683594356504175  0.7004172377852029  0.5163464000795202  1.0000
  H   H36       1.0  0.2316394860490547  0.2995856879175776  0.48365933620591045  1.0000
  H   H37       1.0  0.0027217270062749243  0.507980740329316  0.5836127977296499  1.0000
  H   H38       1.0  0.9972771946931972  0.49202218537347164  0.4163903039262067  1.0000
  H   H39       1.0  0.02609935432326439  0.36713491674032644  0.7531740049074145  1.0000
  H   H40       1.0  0.9739032344919422  0.6328641341160406  0.2468287851198596  1.0000
  H   H41       1.0  0.8136489832882671  0.41780918943033646  0.8569690063726085  1.0000
  H   H42       1.0  0.18634780388475758  0.5821869552912277  0.14303466478797597  1.0000
  H   H43       1.0  0.58064148016161  0.6145884210046546  0.7913523972260066  1.0000
  H   H44       1.0  0.4193594210970063  0.38540578629369554  0.20864976697384924  1.0000
  H   H45       1.0  0.6678178985753789  0.9429661552010772  0.5544027423634005  1.0000
  H   H46       1.0  0.3321805761542294  0.0570348330785038  0.4455995786524127  1.0000
  H   H47       1.0  0.6071642229549211  0.9004222789991374  0.4613583362433146  1.0000
  H   H48       1.0  0.39283881283014205  0.09957870928044343  0.5386432584518204  1.0000
  C   C1        1.0  0.24966829422271541  0.8484199027007477  0.11924693065450509  1.0000
  C   C2        1.0  0.7503329080044877  0.1515830230020327  0.8807548198549142  1.0000
  C   C3        1.0  0.09666432360111807  0.8574279519015775  0.14886709175585378  1.0000
  C   C4        1.0  0.9033361853320868  0.1425769112244168  0.8511341389946523  1.0000
  C   C5        1.0  0.9800373148921224  0.8452706212778125  0.09470003457104079  1.0000
  C   C6        1.0  0.019961707130214307  0.15473521055977812  0.9052989772436462  1.0000
  C   C7        1.0  0.015224334050451234  0.8248685861967786  0.01034105953821306  1.0000
  C   C8        1.0  0.9847765215297528  0.1751353082176124  0.9896604310917496  1.0000
  C   C9        1.0  0.16770657827926538  0.8166461621063803  0.97959026776779  1.0000
  C   C10       1.0  0.8322965578286627  0.1833577323080107  0.020411189030532698  1.0000
  C   C11       1.0  0.28535849842423017  0.8275867909561614  0.03441478932989382  1.0000
  C   C12       1.0  0.7146446376836977  0.17241710345822983  0.9655873261258208  1.0000
  C   C13       1.0  0.5556242742156456  0.9309202264117147  0.018584545859916073  1.0000
  C   C14       1.0  0.44437876156941775  0.0690807618678591  0.9814150728630365  1.0000
  C   C15       1.0  0.6127296442066026  0.6590590645859322  0.05616548023169092  1.0000
  C   C16       1.0  0.3872679365832782  0.3409380488472351  0.9438365968188195  1.0000
  C   C17       1.0  0.721829915343335  0.5955464570149119  0.007181466440513901  1.0000
  C   C18       1.0  0.2781695993272706  0.4044516251298518  0.9928150476397519  1.0000
  C   C19       1.0  0.8286599308560342  0.4746483427649296  0.05736751100976532  1.0000
  C   C20       1.0  0.17133626334585023  0.5253526455146443  0.9426282572637631  1.0000
  C   C21       1.0  0.8282745818031  0.4178808740889934  0.1555784561481488  1.0000
  C   C22       1.0  0.17172527951451136  0.5821162393441739  0.8444156831820067  1.0000
  C   C23       1.0  0.7198149383124032  0.4813876693903936  0.20425618455705322  1.0000
  C   C24       1.0  0.28018378274134637  0.5186094440427738  0.7957412649758948  1.0000
  C   C25       1.0  0.6115607105761215  0.6016134977875538  0.15479092217178458  1.0000
  C   C26       1.0  0.3884425715330834  0.3983836156456135  0.8452051423830867  1.0000
  C   C27       1.0  0.18009608990166737  0.8352473623165366  0.564420531407194  1.0000
  C   C28       1.0  0.8199061522665332  0.1647526572514408  0.4355793641110496  1.0000
  C   C29       1.0  0.058700305464867625  0.8196714484440693  0.5162475598784866  1.0000
  C   C30       1.0  0.9413022833503321  0.1803276024123051  0.4837493022322477  1.0000
  C   C31       1.0  0.0952960926924149  0.7540325189033936  0.45358074311400287  1.0000
  C   C32       1.0  0.9047064961227846  0.24596653195297344  0.5464213882558724  1.0000
  C   C33       1.0  0.25406948056387085  0.7018548058047784  0.43967821291681014  1.0000
  C   C34       1.0  0.7459292404898717  0.2981423076283889  0.5603198952735227  1.0000
  C   C35       1.0  0.37651805423386264  0.7165152872119478  0.48767962046215985  1.0000
  C   C36       1.0  0.6234822540536128  0.2834837636444192  0.5123205687671798  1.0000
  C   C37       1.0  0.3394345125034449  0.7840780779971439  0.5496501605940481  1.0000
  C   C38       1.0  0.66056876960576  0.2159190354360163  0.45034919724778893  1.0000
  C   C39       1.0  0.6597403493820478  0.6697914204409656  0.6500658844242082  1.0000
  C   C40       1.0  0.3402569850836911  0.3302095678386152  0.3499331602204592  1.0000
  C   C41       1.0  0.7776367856962594  0.6393477208781776  0.5911442338002927  1.0000
  C   C42       1.0  0.2223579215947566  0.3606542361129996  0.4088605127130904  1.0000
  C   C43       1.0  0.9091382329229419  0.530371540332311  0.6287185652854674  1.0000
  C   C44       1.0  0.09086504918626304  0.4696255731008492  0.37128540315811875  1.0000
  C   C45       1.0  0.922392993694025  0.451492260595181  0.7242640626818755  1.0000
  C   C46       1.0  0.07760057333312186  0.5485096963960032  0.27573938343254417  1.0000
  C   C47       1.0  0.8035484430623612  0.48043348846095313  0.7826116444003973  1.0000
  C   C48       1.0  0.19645027799138154  0.5195636249722072  0.21738909841950968  1.0000
  C   C49       1.0  0.6724819721500309  0.5897554990492679  0.7460164453192277  1.0000
  C   C50       1.0  0.3275080737626652  0.410243551807099  0.2539891654116531  1.0000
  C   C51       1.0  0.5650927941635401  0.9352736163577903  0.5188918111606569  1.0000
  C   C52       1.0  0.4349090010348036  0.0647244657869805  0.481110597004502  1.0000
  I   I1        1.0  0.3284999989069419  0.1829324679140782  0.704503097668635  1.0000
  I   I2        1.0  0.6714984758226663  0.8170685203654955  0.29549658871761153  1.0000
  I   I3        1.0  0.8099674022139851  0.9096938177561071  0.7446088036005919  1.0000
  I   I4        1.0  0.1900287919878991  0.0903071705234666  0.2553902579599026  1.0000
  O   O1        1.0  0.46857074546407074  0.8400386099073813  0.8857600755584585  1.0000
  O   O2        1.0  0.531422921885948  0.159966253218613  0.1142399393721902  1.0000
  O   O3        1.0  0.42243330743097113  0.8581922653567275  0.686786132928944  1.0000
  O   O4        1.0  0.577562093154043  0.1418077542112499  0.3132125467694422  1.0000
