data_image0
_chemical_formula_structural       Na2Cu2H20C32S12N12
_chemical_formula_sum              "Na2 Cu2 H20 C32 S12 N12"
_cell_length_a       8.229416811736158
_cell_length_b       10.083534354104286
_cell_length_c       13.016054603122676
_cell_angle_alpha    90.00026656560937
_cell_angle_beta     103.72942223127669
_cell_angle_gamma    90.0003671410957

_space_group_name_H-M_alt    "P 1"
_space_group_IT_number       1

loop_
  _space_group_symop_operation_xyz
  'x, y, z'

loop_
  _atom_site_type_symbol
  _atom_site_label
  _atom_site_symmetry_multiplicity
  _atom_site_fract_x
  _atom_site_fract_y
  _atom_site_fract_z
  _atom_site_occupancy
  Na  Na1       1.0  0.9999969434462981  8.5239906795e-06  1.056135687271009e-06  1.0000
  Na  Na2       1.0  0.4999858936681249  0.499995659797946  0.9999930874708126  1.0000
  Cu  Cu1       1.0  4.093100201900782e-06  0.4999978223553042  0.5000012698662174  1.0000
  Cu  Cu2       1.0  0.49999190137315  0.9999993891355172  0.5000012225415346  1.0000
  H   H1        1.0  0.2264747489234793  0.6229206557507823  0.1956371032957733  1.0000
  H   H2        1.0  0.2735226235858406  0.12292134260616186  0.8043680359496432  1.0000
  H   H3        1.0  0.7735291299237304  0.3770706206417883  0.804366317086618  1.0000
  H   H4        1.0  0.7264662464902826  0.8770818343306175  0.19563327902601194  1.0000
  H   H5        1.0  0.9366554784609846  0.1829726075489049  0.20586711549336192  1.0000
  H   H6        1.0  0.5633531090630297  0.6829756858609102  0.7941382294796779  1.0000
  H   H7        1.0  0.0633520531050777  0.8170305694322052  0.794132975417426  1.0000
  H   H8        1.0  0.4366459063100834  0.31703641656441306  0.20586988734854117  1.0000
  H   H9        1.0  0.0578389117856588  0.08433552269752197  0.6123910888050048  1.0000
  H   H10       1.0  0.4421707860108767  0.5843252044824894  0.3876233211355781  1.0000
  H   H11       1.0  0.9421574029573775  0.9156636873915501  0.3876089653624532  1.0000
  H   H12       1.0  0.5578454807376826  0.41566607193328753  0.6123772267443852  1.0000
  H   H13       1.0  0.8371514328797218  0.0996623598858832  0.5619461842065192  1.0000
  H   H14       1.0  0.6628599047361164  0.5996528918593143  0.4380523243706661  1.0000
  H   H15       1.0  0.16284502121985864  0.9003348667883129  0.43805926816128243  1.0000
  H   H16       1.0  0.33715983548723477  0.40033838453440734  0.5619379534577931  1.0000
  H   H17       1.0  0.9270876156367294  0.9393742170415111  0.5956244753540145  1.0000
  H   H18       1.0  0.5729281489500836  0.4393714565620285  0.4043689896286793  1.0000
  H   H19       1.0  0.0729098303754654  0.06062300960549999  0.4043711272283303  1.0000
  H   H20       1.0  0.42709639513157077  0.5606218032544276  0.5956142782951588  1.0000
  C   C1        1.0  0.1648148975992214  0.527714797786146  0.19763164970164127  1.0000
  C   C2        1.0  0.33520271731661216  0.027694964007757488  0.8023729050508805  1.0000
  C   C3        1.0  0.8352001782496999  0.4722982963798898  0.802371036297117  1.0000
  C   C4        1.0  0.6647912552501865  0.972308212955916  0.19763296759803944  1.0000
  C   C5        1.0  0.9985053501771333  0.2779493792933819  0.20375092749998197  1.0000
  C   C6        1.0  0.5014914292277908  0.7779630608258897  0.7962438901963438  1.0000
  C   C7        1.0  0.001498130456049301  0.7220369384727687  0.796237069425949  1.0000
  C   C8        1.0  0.4985050050063862  0.22204309128782276  0.20376079102187816  1.0000
  C   C9        1.0  0.0662265603736714  0.31084788153278703  0.11740947705237659  1.0000
  C   C10       1.0  0.43377652004718925  0.8108424917351937  0.8826009967164833  1.0000
  C   C11       1.0  0.933778668835103  0.6891592623276921  0.8825979746842662  1.0000
  C   C12       1.0  0.5662150904191989  0.18916167695339675  0.11740992323416322  1.0000
  C   C13       1.0  0.15183254293958023  0.4356198200820671  0.11435826974437187  1.0000
  C   C14       1.0  0.3481753030989267  0.9356189666251492  0.8856448797811538  1.0000
  C   C15       1.0  0.8481773706265727  0.5643803817449751  0.8856375450318623  1.0000
  C   C16       1.0  0.6518211709493044  0.06438619377755118  0.11436134377893836  1.0000
  C   C17       1.0  0.014125729439406601  0.3685918967365041  0.2854012425378087  1.0000
  C   C18       1.0  0.48586418319379737  0.8685966697983927  0.7146083650621903  1.0000
  C   C19       1.0  0.9858720351097291  0.6314023548012739  0.7146066987921101  1.0000
  C   C20       1.0  0.5141297893681056  0.1314055154495151  0.2853975075842213  1.0000
  C   C21       1.0  0.9143055043675972  0.059143524993253  0.7240539364494437  1.0000
  C   C22       1.0  0.5856904043450939  0.5591435900083895  0.2759414902141656  1.0000
  C   C23       1.0  0.08568975871479269  0.9408517182527943  0.2759536539768348  1.0000
  C   C24       1.0  0.41432302249521064  0.440852644938282  0.7240455968449027  1.0000
  C   C25       1.0  0.9353287275498801  0.0449071779734211  0.6176096535905483  1.0000
  C   C26       1.0  0.5646746444935431  0.5449038105453281  0.382390609501293  1.0000
  C   C27       1.0  0.0646725901119538  0.9550870735518159  0.3823911023766512  1.0000
  C   C28       1.0  0.43534017244402184  0.45509143270597713  0.6176020512137014  1.0000
  C   C29       1.0  0.0957768693182501  0.49415124574881003  0.2817944834322219  1.0000
  C   C30       1.0  0.40421920671428785  0.994140744567488  0.7182133775228721  1.0000
  C   C31       1.0  0.9042269896880485  0.5058539146621115  0.7182081658131451  1.0000
  C   C32       1.0  0.5957696633667382  0.005863424085056599  0.2817879374552916  1.0000
  S   S1        1.0  0.1574681339786608  0.316324917456356  0.9555995785287122  1.0000
  S   S2        1.0  0.3425246163947833  0.8163239149554823  0.044394867109779995  1.0000
  S   S3        1.0  0.8425329448184228  0.6836792511979937  0.04439192339727778  1.0000
  S   S4        1.0  0.6574718377439694  0.18368124544483777  0.9556105852781228  1.0000
  S   S5        1.0  0.9350538922012603  0.32996330121404316  0.39481001454021214  1.0000
  S   S6        1.0  0.564940939242689  0.8299652470645424  0.6051862581444566  1.0000
  S   S7        1.0  0.06495604124987861  0.6700319420365446  0.6051865713956558  1.0000
  S   S8        1.0  0.43504677964990185  0.1700389215961522  0.3948187372416071  1.0000
  S   S9        1.0  0.10702150821797568  0.6055956471530095  0.3855596161183357  1.0000
  S   S10       1.0  0.3929743229742115  0.10559580230683709  0.6144406328452445  1.0000
  S   S11       1.0  0.892987234211077  0.39439662095367095  0.6144391078734941  1.0000
  S   S12       1.0  0.6069982277833219  0.8944024159952447  0.3855560877113006  1.0000
  N   N1        1.0  0.062384432057960695  0.23478003702119574  0.031209903077147792  1.0000
  N   N2        1.0  0.43760391993814807  0.7347761790301347  0.9687897723448768  1.0000
  N   N3        1.0  0.937605529497759  0.765227106763369  0.9687854179840725  1.0000
  N   N4        1.0  0.5623913431785256  0.2652260062262783  0.0312178180989946  1.0000
  N   N5        1.0  0.9016072240854526  0.0679442406412676  0.8110573302279461  1.0000
  N   N6        1.0  0.5983750732294979  0.5679527711907822  0.18893852458739246  1.0000
  N   N7        1.0  0.0983888915334319  0.9320490191294153  0.18893501220249215  1.0000
  N   N8        1.0  0.4016236035943522  0.4320414803102963  0.8110564822682916  1.0000
  N   N9        1.0  0.2112094344905131  0.4493182765915407  0.026171555023083194  1.0000
  N   N10       1.0  0.288784788717706  0.9493097161117131  0.9738297339158422  1.0000
  N   N11       1.0  0.7887867807688096  0.5506938257906028  0.973824643316071  1.0000
  N   N12       1.0  0.7112129758902058  0.05069643601525799  0.026178207444225214  1.0000
