data_image0
_chemical_formula_structural       Al2H18C28N2O14
_chemical_formula_sum              "Al2 H18 C28 N2 O14"
_cell_length_a       6.661242190259894
_cell_length_b       15.337524436533585
_cell_length_c       16.866740556639314
_cell_angle_alpha    87.35721243525603
_cell_angle_beta     83.42718724951709
_cell_angle_gamma    76.14296309300391

_space_group_name_H-M_alt    "P 1"
_space_group_IT_number       1

loop_
  _space_group_symop_operation_xyz
  'x, y, z'

loop_
  _atom_site_type_symbol
  _atom_site_label
  _atom_site_symmetry_multiplicity
  _atom_site_fract_x
  _atom_site_fract_y
  _atom_site_fract_z
  _atom_site_occupancy
  Al  Al1       1.0  0.5000019535679813  0.5000013378942396  0.500002538243791  1.0000
  Al  Al2       1.0  5.6861084160787085e-06  0.5000043959442024  0.4999999992500932  1.0000
  H   H1        1.0  0.21606372366218093  0.5976238444162973  0.4350466038190959  1.0000
  H   H2        1.0  0.7839695024061798  0.4023800373322857  0.5649457195476942  1.0000
  H   H3        1.0  0.8905353256914099  0.4574440285265594  0.7369435830804322  1.0000
  H   H4        1.0  0.8222419046538078  0.4615916511519558  0.8855594756738725  1.0000
  H   H5        1.0  0.3934737305786057  0.5442848577643532  0.8959762006826252  1.0000
  H   H6        1.0  0.6065106593261405  0.4556944707759314  0.1040337923455965  1.0000
  H   H7        1.0  0.1777391290948885  0.5383937362897199  0.11444212259711861  1.0000
  H   H8        1.0  0.10944976460474014  0.5425567455256796  0.26305597436096667  1.0000
  H   H9        1.0  0.1628744904226665  0.06555037081597698  0.46240329279319065  1.0000
  H   H10       1.0  0.8371451792863597  0.9344616358015685  0.5375786757759187  1.0000
  H   H11       1.0  0.3009717678704364  0.7732517564797232  0.4910880016334715  1.0000
  H   H12       1.0  0.2186150194397103  0.9367288058316843  0.47811510523919054  1.0000
  H   H13       1.0  0.6990291930169192  0.22675630249779027  0.508911060479754  1.0000
  H   H14       1.0  0.7813876383526337  0.06327923303169307  0.5218909895309451  1.0000
  H   H15       1.0  0.5037750510318658  0.5354096562465216  0.6848680980868807  1.0000
  H   H16       1.0  0.49622786446359873  0.4645863227606455  0.31513968425872463  1.0000
  H   H17       1.0  0.03823487397234968  0.2993103015968189  0.44780572703537297  1.0000
  H   H18       1.0  0.961777785183962  0.700697723341861  0.5521761619061891  1.0000
  C   C1        1.0  0.6641556425771143  0.6615123355601823  0.5174920159700207  1.0000
  C   C2        1.0  0.7839460846817233  0.5070555992833617  0.35511562876195757  1.0000
  C   C3        1.0  0.3358560053174386  0.3384923285349614  0.48250073826075385  1.0000
  C   C4        1.0  0.21605106268368246  0.4929484510883597  0.6448897202669811  1.0000
  C   C5        1.0  0.18179797903391667  0.4959896176227969  0.732234714013785  1.0000
  C   C6        1.0  0.0007441655785172868  0.4750841912556963  0.7725467801657971  1.0000
  C   C7        1.0  0.9614063199234764  0.47774723324855717  0.8545258428892737  1.0000
  C   C8        1.0  0.10550309625953251  0.5029301316786883  0.89882543867256  1.0000
  C   C9        1.0  0.285295001438854  0.5243530692753139  0.8607059821890886  1.0000
  C   C10       1.0  0.32639180024087017  0.5208790956168058  0.777383088868568  1.0000
  C   C11       1.0  0.7146921690447103  0.4756322817065453  0.13929828154536486  1.0000
  C   C12       1.0  0.8944809258761026  0.4970525563324911  0.10117909288507579  1.0000
  C   C13       1.0  0.03857292161464446  0.5222415153609317  0.1454739210903853  1.0000
  C   C14       1.0  0.9992427017913456  0.524913222651911  0.22745401935382148  1.0000
  C   C15       1.0  0.8181849881007748  0.5040125013656577  0.2677684475460893  1.0000
  C   C16       1.0  0.6735933387381153  0.47911898853782725  0.2226231029392736  1.0000
  C   C17       1.0  0.3852122978971622  0.24014312814742314  0.48208136761899567  1.0000
  C   C18       1.0  0.6147985301824976  0.7598628873724633  0.517906625846031  1.0000
  C   C19       1.0  0.23567746919892577  0.19220018048838475  0.4675447896362996  1.0000
  C   C20       1.0  0.28396291890543074  0.09836884740604998  0.47425605262004217  1.0000
  C   C21       1.0  0.7643339136122976  0.8078105227434872  0.5324417908886616  1.0000
  C   C22       1.0  0.7160491777626562  0.901640511563329  0.5257311431788239  1.0000
  C   C23       1.0  0.4184808889602182  0.8094626883456681  0.4995479526655728  1.0000
  C   C24       1.0  0.3726209469231423  0.9020153464927742  0.4928886095747629  1.0000
  C   C25       1.0  0.581523873584473  0.1905466934327507  0.5004490880458974  1.0000
  C   C26       1.0  0.6273895424489666  0.09799467453819227  0.5071087162172887  1.0000
  C   C27       1.0  0.47728642546597655  0.0496270644441879  0.49530338636920856  1.0000
  C   C28       1.0  0.5227341700159867  0.9503835835863653  0.504687488457499  1.0000
  N   N1        1.0  0.08262864041888221  0.5090102653373377  0.9830085489490655  1.0000
  N   N2        1.0  0.9173488837572707  0.4909704449484308  0.016997571128662507  1.0000
  O   O1        1.0  0.527021965233551  0.6215068156260058  0.5016061611463911  1.0000
  O   O2        1.0  0.922351078008937  0.5245920906877898  0.3939259765128823  1.0000
  O   O3        1.0  0.14898705864419534  0.3806944798251734  0.46878659349280133  1.0000
  O   O4        1.0  0.38944293865685614  0.5082582003477396  0.6107579392952616  1.0000
  O   O5        1.0  0.47298606264601506  0.3784965133900897  0.49839572104359314  1.0000
  O   O6        1.0  0.07764783212902426  0.4754199949381145  0.6060747930573456  1.0000
  O   O7        1.0  0.8510225536378188  0.6193142098951866  0.5312084604080951  1.0000
  O   O8        1.0  0.6105548047427548  0.49174182711885805  0.3892481450296899  1.0000
  O   O9        1.0  0.2348479945205212  0.544230097680483  0.46892783018235923  1.0000
  O   O10       1.0  0.7651622211759063  0.45578058985424247  0.5310724451449076  1.0000
  O   O11       1.0  0.502604437548648  0.5420867892589455  0.743644197687253  1.0000
  O   O12       1.0  0.4973837049541388  0.457908594442017  0.2563655196203456  1.0000
  O   O13       1.0  0.04435423181352857  0.23355855289605637  0.44782786517422585  1.0000
  O   O14       1.0  0.9556528064733956  0.7664488256278188  0.5521578841785981  1.0000
