data_image0
_chemical_formula_structural       Cd2H32C26N8O14
_chemical_formula_sum              "Cd2 H32 C26 N8 O14"
_cell_length_a       7.75432525465095
_cell_length_b       10.37277951232347
_cell_length_c       11.887060409276431
_cell_angle_alpha    100.6938419664654
_cell_angle_beta     102.53219542149047
_cell_angle_gamma    105.30338204414994

_space_group_name_H-M_alt    "P 1"
_space_group_IT_number       1

loop_
  _space_group_symop_operation_xyz
  'x, y, z'

loop_
  _atom_site_type_symbol
  _atom_site_label
  _atom_site_symmetry_multiplicity
  _atom_site_fract_x
  _atom_site_fract_y
  _atom_site_fract_z
  _atom_site_occupancy
  Cd  Cd1       1.0  0.8697841376670256  0.7753842696490096  0.10369475186549684  1.0000
  Cd  Cd2       1.0  0.13021413137890647  0.22461588422155637  0.8963059109794073  1.0000
  H   H1        1.0  0.9374530827503947  0.8190375366162286  0.3790317956036445  1.0000
  H   H2        1.0  0.06254872974814418  0.18096160880104145  0.6209692221478917  1.0000
  H   H3        1.0  0.7720449969665495  0.8276845988896395  0.5381173949486139  1.0000
  H   H4        1.0  0.22795551419858376  0.1723114423326777  0.4618837753611658  1.0000
  H   H5        1.0  0.2801585418766449  0.7943998771748608  0.26673969304286516  1.0000
  H   H6        1.0  0.7198472120013264  0.20560238896626254  0.733262401244545  1.0000
  H   H7        1.0  0.4584216705063541  0.7781378958229013  0.1186198019247371  1.0000
  H   H8        1.0  0.5415805913712645  0.2218622856760176  0.8813797653492728  1.0000
  H   H9        1.0  0.3048042378451399  0.8665207203979008  0.4901525640432779  1.0000
  H   H10       1.0  0.6951949346073932  0.13347840849046827  0.5098472246141627  1.0000
  H   H11       1.0  0.501235030963329  0.8598910122117827  0.5959379870360876  1.0000
  H   H12       1.0  0.49876416485917474  0.1401050211510793  0.404062148839202  1.0000
  H   H13       1.0  0.3916197930985845  0.5964975255988916  0.5030075848463083  1.0000
  H   H14       1.0  0.6083811674456214  0.4034995517050746  0.49699213498593753  1.0000
  H   H15       1.0  0.18819074238811595  0.6133497592718413  0.4148039728508408  1.0000
  H   H16       1.0  0.8118119828777848  0.3866483619732292  0.5851953309383617  1.0000
  H   H17       1.0  0.6039337231654756  0.9264903515215437  0.9773981102223673  1.0000
  H   H18       1.0  0.39606364718617476  0.07351392528673267  0.022600560267534323  1.0000
  H   H19       1.0  0.39800188910813716  0.47932207867469845  0.6808298003954647  1.0000
  H   H20       1.0  0.6019967825130622  0.5206791072275221  0.3191736108462705  1.0000
  H   H21       1.0  0.6469575602682411  0.5351241170037043  0.870849931105809  1.0000
  H   H22       1.0  0.3530371091605104  0.4648770404601733  0.1291554154816977  1.0000
  H   H23       1.0  0.3482818092710642  0.8852618897058234  0.7933271491048615  1.0000
  H   H24       1.0  0.6517155798021007  0.11474238872245476  0.20666984183529277  1.0000
  H   H25       1.0  0.12331630321162367  0.7184060459869027  0.6106095448966257  1.0000
  H   H26       1.0  0.8766829066839606  0.2815930861414698  0.3893868846613202  1.0000
  H   H27       1.0  0.11177892055461308  0.5426083364914973  0.5857023998633082  1.0000
  H   H28       1.0  0.8882224706471434  0.45738977527412317  0.41429754904115157  1.0000
  H   H29       1.0  0.07895994678464993  0.7064463056220233  0.9517187964178148  1.0000
  H   H30       1.0  0.9210388043710935  0.29355178961469613  0.04827992339253478  1.0000
  H   H31       1.0  0.0946747248348243  0.861634512498888  0.9644817940744727  1.0000
  H   H32       1.0  0.9053235535718683  0.13836564218168232  0.03551802899556119  1.0000
  C   C1        1.0  0.7910630418035325  0.812650700416796  0.3581302836472701  1.0000
  C   C2        1.0  0.20894050268596942  0.1873525836570806  0.6418708106182436  1.0000
  C   C3        1.0  0.6990688129827234  0.818346140965282  0.44608533175620824  1.0000
  C   C4        1.0  0.30093478760749554  0.18165095286758506  0.5539156171701407  1.0000
  C   C5        1.0  0.5109733484257645  0.8110828661283944  0.4154679655456234  1.0000
  C   C6        1.0  0.489029798136933  0.18891628876832559  0.5845324070906627  1.0000
  C   C7        1.0  0.42526669365124536  0.7995966088449437  0.2959204477385242  1.0000
  C   C8        1.0  0.574738208272386  0.2004035891828835  0.7040803486295885  1.0000
  C   C9        1.0  0.5254525417498427  0.7914857303394952  0.21261526335938188  1.0000
  C   C10       1.0  0.4745492801094641  0.20851341588777927  0.7873849146172843  1.0000
  C   C11       1.0  0.40401938376503915  0.8085513026423428  0.5065946909555875  1.0000
  C   C12       1.0  0.5959797980482548  0.19144782705602378  0.49340425792697556  1.0000
  C   C13       1.0  0.29610582104813676  0.6586278266963319  0.500780993353203  1.0000
  C   C14       1.0  0.7038955795143808  0.341370285879286  0.49921811577637937  1.0000
  C   C15       1.0  0.5524274779212703  0.828051487882632  0.90971741836006  1.0000
  C   C16       1.0  0.4475703230879232  0.17195382338729806  0.09028148120205508  1.0000
  C   C17       1.0  0.3517440005041976  0.6782292534118568  0.7204074995301184  1.0000
  C   C18       1.0  0.6482546991992849  0.3217719349203633  0.27959339238699943  1.0000
  C   C19       1.0  0.43850273494665265  0.5798154876658614  0.7445202618799271  1.0000
  C   C20       1.0  0.5614928378886928  0.4201846448158051  0.2554842105201089  1.0000
  C   C21       1.0  0.5772489396904207  0.6097657734657318  0.8501761012655392  1.0000
  C   C22       1.0  0.4227510239034303  0.3902385158214443  0.14982799719283688  1.0000
  C   C23       1.0  0.41187416070226857  0.8050786220714983  0.8062316114880302  1.0000
  C   C24       1.0  0.5881223576950418  0.1949235866234744  0.19376576108257373  1.0000
  C   C25       1.0  0.2071699485306978  0.6481856386660424  0.6040292442751606  1.0000
  C   C26       1.0  0.7928288119858137  0.3518124573806745  0.3959686357603188  1.0000
  N   N1        1.0  0.060125752673684495  0.0705348974232578  0.22065605656543139  1.0000
  N   N2        1.0  0.939876509203934  0.9294652840756683  0.7793435107085784  1.0000
  N   N3        1.0  0.9372033969500038  0.5257102529713861  0.14821812509011068  1.0000
  N   N4        1.0  0.0627957848632903  0.47428887672698034  0.8517808237924525  1.0000
  N   N5        1.0  0.7057922037962783  0.7977020733408368  0.2426504618748382  1.0000
  N   N6        1.0  0.2942100487205791  0.20229810734808498  0.7573499451740489  1.0000
  N   N7        1.0  0.633705609535518  0.732117082564983  0.9321780659494436  1.0000
  N   N8        1.0  0.3662864058380109  0.2678871547054911  0.06782486455123396  1.0000
  O   O1        1.0  0.11640626271720575  0.9812319831030151  0.26445101098838103  1.0000
  O   O2        1.0  0.8835942344387108  0.018767154454806697  0.7355489723286723  1.0000
  O   O3        1.0  0.9257404386032987  0.024484929061820503  0.12128192847286098  1.0000
  O   O4        1.0  0.07425915514601653  0.9755152334782053  0.8787189290316632  1.0000
  O   O5        1.0  0.9921322019728008  0.6409322695530406  0.22760639894121937  1.0000
  O   O6        1.0  0.007869629247267085  0.3590668774842242  0.7723929392605768  1.0000
  O   O7        1.0  0.8289904388270841  0.5140097800871289  0.04722736658192159  1.0000
  O   O8        1.0  0.1710078395796088  0.48599037459344147  0.9527724564881124  1.0000
  O   O9        1.0  0.12650929358481017  0.19645041934563778  0.2688434663609129  1.0000
  O   O10       1.0  0.8734929589320474  0.8035497613432838  0.7311569406879668  1.0000
  O   O11       1.0  0.9908244443865896  0.427207983685271  0.1716236474587447  1.0000
  O   O12       1.0  0.009176942166717945  0.5727932252258511  0.8283742746781186  1.0000
  O   O13       1.0  0.10618716535178405  0.7945152932076737  0.013606160990796869  1.0000
  O   O14       1.0  0.8938089457579466  0.20548278550014487  0.9863913297254497  1.0000
