data_image0
_chemical_formula_structural       Zn8H54C42N6O32
_chemical_formula_sum              "Zn8 H54 C42 N6 O32"
_cell_length_a       14.53871370641271
_cell_length_b       14.831370142827588
_cell_length_c       15.486124930641259
_cell_angle_alpha    73.95587042801684
_cell_angle_beta     68.27173003603139
_cell_angle_gamma    68.11064120844291

_space_group_name_H-M_alt    "P 1"
_space_group_IT_number       1

loop_
  _space_group_symop_operation_xyz
  'x, y, z'

loop_
  _atom_site_type_symbol
  _atom_site_label
  _atom_site_symmetry_multiplicity
  _atom_site_fract_x
  _atom_site_fract_y
  _atom_site_fract_z
  _atom_site_occupancy
  Zn  Zn1       1.0  0.01992618028315725  0.9592854646548331  0.0563743574049127  1.0000
  Zn  Zn2       1.0  0.04484906655468989  0.7590400173241535  0.9919759876638565  1.0000
  Zn  Zn3       1.0  0.9995164134516376  0.9613305459237724  0.8567558476857754  1.0000
  Zn  Zn4       1.0  0.8220126807895485  0.9177142724805523  0.04620191062214448  1.0000
  Zn  Zn5       1.0  0.3842742782801025  0.3410296877819405  0.46377291377258706  1.0000
  Zn  Zn6       1.0  0.4575874732440469  0.5325972220762766  0.42913503040670514  1.0000
  Zn  Zn7       1.0  0.6204934606512468  0.31851891668324583  0.4475446296422234  1.0000
  Zn  Zn8       1.0  0.42432851925349985  0.3985693770300003  0.6258885081007648  1.0000
  H   H1        1.0  0.3322849176635714  0.6733917132106272  0.062103934601189736  1.0000
  H   H2        1.0  0.3090079433284175  0.7645380519485485  0.12965014617348905  1.0000
  H   H3        1.0  0.22961687984116008  0.6736730308650465  0.27120377241551097  1.0000
  H   H4        1.0  0.18258640113416652  0.6203420119405723  0.21314311716547962  1.0000
  H   H5        1.0  0.41360411481341  0.5588864101160027  0.16523376210720633  1.0000
  H   H6        1.0  0.31001567255522394  0.41085125193802696  0.22942220199214353  1.0000
  H   H7        1.0  0.44579835222609193  0.3091213627621983  0.047119231885169255  1.0000
  H   H8        1.0  0.33557592061564634  0.378312487237416  0.00789219728336827  1.0000
  H   H9        1.0  0.3185970531582072  0.3208662760989327  0.12840031889423642  1.0000
  H   H10       1.0  0.9773811046877299  0.2678799597881323  0.8476387249558074  1.0000
  H   H11       1.0  0.062185925739711906  0.25081039186745363  0.912941863015284  1.0000
  H   H12       1.0  0.21632693143328652  0.19381409095653618  0.7798112000379688  1.0000
  H   H13       1.0  0.1378617554077763  0.19289429209550957  0.7159966112490537  1.0000
  H   H14       1.0  0.1218741274299404  0.3806664707807172  0.7745372989866722  1.0000
  H   H15       1.0  0.9921489631136637  0.3561017474688556  0.6966043684266552  1.0000
  H   H16       1.0  0.9367364248305564  0.5890461902801222  0.5609633937095139  1.0000
  H   H17       1.0  0.898155359094936  0.4789782634132537  0.6121368410523403  1.0000
  H   H18       1.0  0.9946094998182391  0.4862872521270205  0.5006691007237549  1.0000
  H   H19       1.0  0.7973408899366279  0.9986098398267916  0.3489421270932098  1.0000
  H   H20       1.0  0.7487367052133251  0.11153162017192393  0.2833601691569926  1.0000
  H   H21       1.0  0.6014170518843187  0.06026689894247283  0.2858716458880579  1.0000
  H   H22       1.0  0.6545713043248897  0.9407522499990719  0.3410805713155511  1.0000
  H   H23       1.0  0.6286188499801569  0.008713141301093694  0.48359062840336253  1.0000
  H   H24       1.0  0.45039465188555994  0.03427932059199892  0.42048356524760067  1.0000
  H   H25       1.0  0.2931502481173636  0.9859718347125653  0.6534421755377052  1.0000
  H   H26       1.0  0.3055603775500589  0.9981658498468208  0.5311049506954645  1.0000
  H   H27       1.0  0.2657855965156132  0.10411998447630573  0.584195787733016  1.0000
  H   H28       1.0  0.1920456642999468  0.6475619349530464  0.716018965611063  1.0000
  H   H29       1.0  0.10627797861459243  0.7479970702883281  0.6635338706038708  1.0000
  H   H30       1.0  0.2639096867620836  0.770101105336629  0.5556572456474881  1.0000
  H   H31       1.0  0.2413953130943795  0.8424628225868035  0.6395138786541352  1.0000
  H   H32       1.0  0.35314353323133935  0.6778351117443648  0.7218325592231523  1.0000
  H   H33       1.0  0.41894369896966316  0.8237435213189672  0.5682054299448538  1.0000
  H   H34       1.0  0.5849594428138616  0.8307955247925211  0.6159733353313327  1.0000
  H   H35       1.0  0.60308705349118  0.8169666377751671  0.5002186829898321  1.0000
  H   H36       1.0  0.6877892267723381  0.7298816117744451  0.565450401730395  1.0000
  H   H37       1.0  0.7427775841392189  0.6603831920633922  0.04300135352576723  1.0000
  H   H38       1.0  0.8668494593972653  0.5701395169669539  0.03261695029512172  1.0000
  H   H39       1.0  0.8336502124325591  0.5439676611921628  0.20617838222160145  1.0000
  H   H40       1.0  0.7143879345441492  0.6407405257940086  0.21835775811150152  1.0000
  H   H41       1.0  0.7637581282995426  0.44644746884947756  0.1507361019410852  1.0000
  H   H42       1.0  0.5695844155466645  0.6138129009100057  0.17136877257868827  1.0000
  H   H43       1.0  0.5173628776133229  0.5890462183445065  0.9959155451734533  1.0000
  H   H44       1.0  0.6058529509833546  0.6583265231840019  0.9341581978549841  1.0000
  H   H45       1.0  0.5142190216402228  0.6860207232301863  0.045354615879041715  1.0000
  H   H46       1.0  0.6560955332356572  0.20069410273699625  0.9029189522481573  1.0000
  H   H47       1.0  0.7816804677063801  0.21176770242330895  0.8383855352889639  1.0000
  H   H48       1.0  0.7708242756596847  0.1228119945847013  0.715705642410647  1.0000
  H   H49       1.0  0.6349223175317745  0.1673779338328032  0.7698044285745524  1.0000
  H   H50       1.0  0.7901695410752653  0.2793185305281939  0.6516213689126361  1.0000
  H   H51       1.0  0.5935343249825069  0.3960280308404834  0.7667694991931313  1.0000
  H   H52       1.0  0.6793149400091281  0.5532800514399698  0.7610112960183244  1.0000
  H   H53       1.0  0.7207062895396775  0.4841540511392139  0.8625182167833784  1.0000
  H   H54       1.0  0.5987665520372899  0.49080480082898975  0.8543777548839913  1.0000
  C   C1        1.0  0.18189605826420066  0.7730207412771578  0.08549972725148776  1.0000
  C   C2        1.0  0.27583804961184916  0.7146043710470664  0.11892297342561155  1.0000
  C   C3        1.0  0.24987292846924464  0.6401607593311526  0.20907745590526616  1.0000
  C   C4        1.0  0.3408440706055628  0.543398683678227  0.21136814058687753  1.0000
  C   C5        1.0  0.3708229457640257  0.45203858521095003  0.08660551862332971  1.0000
  C   C6        1.0  0.36625017502606744  0.35923914736067536  0.06767276613169322  1.0000
  C   C7        1.0  0.3546395036412377  0.5069515141662819  0.3094681616414548  1.0000
  C   C8        1.0  0.04827295265572219  0.11897178668830583  0.8946034204877975  1.0000
  C   C9        1.0  0.05345063982452563  0.2233492423010049  0.858417299009723  1.0000
  C   C10       1.0  0.1408549789754758  0.23100231789922537  0.7660306997369943  1.0000
  C   C11       1.0  0.13519130789584471  0.33819393689646665  0.7204829648897899  1.0000
  C   C12       1.0  0.04980985184757001  0.46994139225853365  0.6156316362048386  1.0000
  C   C13       1.0  0.9632920014990064  0.508451010845697  0.5706800775329838  1.0000
  C   C14       1.0  0.24196412441965265  0.34050710397873024  0.6513273965734072  1.0000
  C   C15       1.0  0.8192743516441612  0.9922844773977744  0.20675437473457958  1.0000
  C   C16       1.0  0.7534061462989501  0.0332734402270489  0.2975327267857678  1.0000
  C   C17       1.0  0.6460852497309587  0.018718566855461912  0.33595066403907475  1.0000
  C   C18       1.0  0.5835716996799576  0.047833774198238616  0.4336821915901438  1.0000
  C   C19       1.0  0.427041552918176  0.02868648122974091  0.5602445915370569  1.0000
  C   C20       1.0  0.3168446353818624  0.02770007214368771  0.5829125332103544  1.0000
  C   C21       1.0  0.5595688408780433  0.15839662958892128  0.4315601047801181  1.0000
  C   C22       1.0  0.11790610359796014  0.7753359042134067  0.7851404364035659  1.0000
  C   C23       1.0  0.1674991271959456  0.7279735654651491  0.6970884393399713  1.0000
  C   C24       1.0  0.2576181447817589  0.7669825983837485  0.6292751848876251  1.0000
  C   C25       1.0  0.3621159236204718  0.7022489575604782  0.646088890132468  1.0000
  C   C26       1.0  0.5373362906058573  0.7114746406659053  0.6109481254406718  1.0000
  C   C27       1.0  0.6078554342643944  0.7761851785336873  0.570192915624659  1.0000
  C   C28       1.0  0.39576282092721016  0.6100387309405166  0.6018128880787968  1.0000
  C   C29       1.0  0.8524869428276816  0.7077543684928717  0.06252118012486814  1.0000
  C   C30       1.0  0.8075730560676888  0.6272638319428129  0.0731350981412219  1.0000
  C   C31       1.0  0.7683538444887861  0.5823023667333019  0.17658126478696784  1.0000
  C   C32       1.0  0.7109294114116054  0.5094352914336753  0.18622817955559876  1.0000
  C   C33       1.0  0.6454780719089754  0.5521786120357605  0.049614076537203254  1.0000
  C   C34       1.0  0.5653353461658243  0.6264716485202085  0.004414277989582223  1.0000
  C   C35       1.0  0.6605614428248927  0.4737360057703129  0.2895388464307729  1.0000
  C   C36       1.0  0.7819108037039086  0.06649153569366462  0.8884223170298928  1.0000
  C   C37       1.0  0.7281974639047775  0.17005424932204968  0.8494909579601141  1.0000
  C   C38       1.0  0.709621396836269  0.17949277435465666  0.7558052303231193  1.0000
  C   C39       1.0  0.7102527120246053  0.2816202798389966  0.6942109571687922  1.0000
  C   C40       1.0  0.7347772805648347  0.398333294058432  0.7648559617423913  1.0000
  C   C41       1.0  0.68002072195533  0.4865534556685135  0.8144268873891249  1.0000
  C   C42       1.0  0.6427202305679958  0.30649167604970273  0.6303526516336291  1.0000
  N   N1        1.0  0.3313727944383444  0.46556330227852544  0.17830911379273573  1.0000
  N   N2        1.0  0.054202432257973526  0.3823708598737383  0.6747749653677105  1.0000
  N   N3        1.0  0.4879685633507406  0.021210232791524692  0.46855006075964684  1.0000
  N   N4        1.0  0.4383786145587649  0.7551478194636733  0.6052097020551911  1.0000
  N   N5        1.0  0.6279942024910594  0.5568758626342928  0.14203176340495832  1.0000
  N   N6        1.0  0.6712190525429237  0.3612188754750036  0.7483864501282226  1.0000
  O   O1        1.0  0.9718134119497108  0.9000275693856995  0.988925774572813  1.0000
  O   O2        1.0  0.1457366792755863  0.7219830787933079  0.059677350126271685  1.0000
  O   O3        1.0  0.14683420138902645  0.8657567955499349  0.08542244404669928  1.0000
  O   O4        1.0  0.4089026523552946  0.5111321199962191  0.022180673897523238  1.0000
  O   O5        1.0  0.3766654964257654  0.565158445534408  0.34019481906061333  1.0000
  O   O6        1.0  0.34368337484883693  0.423023194476933  0.3511372367601807  1.0000
  O   O7        1.0  0.0492167640153198  0.07392628782868373  0.8346421883458249  1.0000
  O   O8        1.0  0.04229954174537911  0.08488986961970821  0.9808890395709257  1.0000
  O   O9        1.0  0.11572534561722143  0.512399158058564  0.5975555511229941  1.0000
  O   O10       1.0  0.30061241479572937  0.35640297798657633  0.6858226521901047  1.0000
  O   O11       1.0  0.2667584241549932  0.31805551820653477  0.5701348720722166  1.0000
  O   O12       1.0  0.7769343344192167  0.9563578362225444  0.17120211735059607  1.0000
  O   O13       1.0  0.9118261045384203  0.9975509943639057  0.1739489085012236  1.0000
  O   O14       1.0  0.4607052192530717  0.036101693256753706  0.6195683816290939  1.0000
  O   O15       1.0  0.629952690971173  0.18448979508048782  0.43905743891719595  1.0000
  O   O16       1.0  0.4726061574806906  0.21404031550876115  0.42017243410785454  1.0000
  O   O17       1.0  0.09178865376867415  0.8694352935155366  0.7703559484032141  1.0000
  O   O18       1.0  0.10584742448939014  0.720316416879662  0.8651344411067683  1.0000
  O   O19       1.0  0.5649923947853139  0.6248541308713629  0.6492930724828766  1.0000
  O   O20       1.0  0.3837233757513447  0.5315954606173748  0.6568473277979834  1.0000
  O   O21       1.0  0.4254601724117962  0.6238252190285466  0.511824055602311  1.0000
  O   O22       1.0  0.7907673879407612  0.7958734115641236  0.05941577220331586  1.0000
  O   O23       1.0  0.9479090582427503  0.6815436283748042  0.05804467190371543  1.0000
  O   O24       1.0  0.7220507768141857  0.4910704682755096  0.00709803393386471  1.0000
  O   O25       1.0  0.6885649311586873  0.3820079041224178  0.3211012474349245  1.0000
  O   O26       1.0  0.5918101393394366  0.5410195053834103  0.33546880587243777  1.0000
  O   O27       1.0  0.7449756501618836  0.035897827048522415  0.9759043441103115  1.0000
  O   O28       1.0  0.8636660013711863  0.01787873622030391  0.8320727470214634  1.0000
  O   O29       1.0  0.831285434042755  0.3609219978766092  0.739978160973003  1.0000
  O   O30       1.0  0.6877216711748986  0.3008720316847259  0.5434253217495171  1.0000
  O   O31       1.0  0.5452623825170735  0.3291185496817519  0.6724796307564488  1.0000
  O   O32       1.0  0.47270788009563364  0.39605406357903655  0.4897510896203273  1.0000
