data_image0
_chemical_formula_structural       Mn2H32C30N12O10
_chemical_formula_sum              "Mn2 H32 C30 N12 O10"
_cell_length_a       10.279656552833378
_cell_length_b       10.240722084377968
_cell_length_c       10.879516565115784
_cell_angle_alpha    78.95225603733047
_cell_angle_beta     62.499400211866444
_cell_angle_gamma    64.57439849943115

_space_group_name_H-M_alt    "P 1"
_space_group_IT_number       1

loop_
  _space_group_symop_operation_xyz
  'x, y, z'

loop_
  _atom_site_type_symbol
  _atom_site_label
  _atom_site_symmetry_multiplicity
  _atom_site_fract_x
  _atom_site_fract_y
  _atom_site_fract_z
  _atom_site_occupancy
  Mn  Mn1       1.0  0.030562835397397112  0.5898399609609514  0.20396301052512922  1.0000
  Mn  Mn2       1.0  0.9694397735780524  0.41015884525381824  0.7960361902332668  1.0000
  H   H1        1.0  0.8726731712981889  0.12528299328299397  0.8287443162069084  1.0000
  H   H2        1.0  0.12732786283381609  0.8747169218613493  0.1712562670481077  1.0000
  H   H3        1.0  0.728783112120567  0.049237201458737404  0.9115184703802871  1.0000
  H   H4        1.0  0.2712174858764555  0.9507637945218124  0.08848211051488172  1.0000
  H   H5        1.0  0.8201753185821445  0.08040429788641033  0.6531962631954117  1.0000
  H   H6        1.0  0.17982326843645072  0.9195988878599124  0.3468056978365298  1.0000
  H   H7        1.0  0.014107211431522113  0.9520024648102567  0.6271239588317601  1.0000
  H   H8        1.0  0.9858921080648315  0.04800177556011678  0.3728756828008175  1.0000
  H   H9        1.0  0.9093305968535076  0.7576989574904047  0.7312496738095435  1.0000
  H   H10       1.0  0.09067344717318086  0.2423019560912395  0.2687458203331588  1.0000
  H   H11       1.0  0.7104658733864253  0.8872108468121525  0.7796423360591336  1.0000
  H   H12       1.0  0.2895378742974728  0.11278793130924922  0.22035547984278747  1.0000
  H   H13       1.0  0.2743796360226013  0.7376590760888818  0.9301412484502978  1.0000
  H   H14       1.0  0.7256196166360454  0.2623398181684422  0.06986024251145306  1.0000
  H   H15       1.0  0.7902953633225777  0.8288817735985535  0.06398961017985987  1.0000
  H   H16       1.0  0.2097052047701595  0.17111922050077777  0.9360119028983436  1.0000
  H   H17       1.0  0.7329912969787459  0.9384794058121458  0.3297272264028806  1.0000
  H   H18       1.0  0.26700513224007955  0.061523843645794316  0.6702737756098646  1.0000
  H   H19       1.0  0.03679657688301326  0.6325651663043956  0.5010508700554228  1.0000
  H   H20       1.0  0.963202625696283  0.3674369498930333  0.49894550023815776  1.0000
  H   H21       1.0  0.5479967073621878  0.6154781840276088  0.20245890450381418  1.0000
  H   H22       1.0  0.45200190253155625  0.38451966124932824  0.7975421093081965  1.0000
  H   H23       1.0  0.743205255138541  0.28387922871675647  0.45151261222529393  1.0000
  H   H24       1.0  0.25680050352379186  0.7161173596388721  0.5484838235398544  1.0000
  H   H25       1.0  0.5411752218461247  0.18453397616491432  0.502949460559144  1.0000
  H   H26       1.0  0.4588306836375508  0.8154647382448633  0.49704931436196664  1.0000
  H   H27       1.0  0.3448016192806308  0.3013675943742271  0.39910857851739945  1.0000
  H   H28       1.0  0.6551973071309547  0.6986291625416357  0.6008961663866048  1.0000
  H   H29       1.0  0.19921533366331798  0.4043069263279123  0.953748564584828  1.0000
  H   H30       1.0  0.8007861665079542  0.5956919098614506  0.0462510888470081  1.0000
  H   H31       1.0  0.29022776233993136  0.3816124254365221  0.04734071849880204  1.0000
  H   H32       1.0  0.7097774203952057  0.6183884600517543  0.9526533907874327  1.0000
  C   C1        1.0  0.8535471800472081  0.0259148599769858  0.8376671308079937  1.0000
  C   C2        1.0  0.14645385408479675  0.9740850551673644  0.1623334524470226  1.0000
  C   C3        1.0  0.886540734243866  0.9831274117180087  0.6962169909435761  1.0000
  C   C4        1.0  0.11345878485326467  0.016873616118346004  0.30378311044199796  1.0000
  C   C5        1.0  0.8348600106379107  0.8614085247613801  0.7031319586141722  1.0000
  C   C6        1.0  0.16514094351045827  0.13859461044184943  0.29686443615571534  1.0000
  C   C7        1.0  0.15425066254849884  0.7859694275701515  0.9374376818898542  1.0000
  C   C8        1.0  0.8457485602058554  0.21402946480596097  0.06256474125493144  1.0000
  C   C9        1.0  0.9086462026495778  0.8295472902928797  0.008330676360877658  1.0000
  C   C10       1.0  0.09135103903064132  0.17045379373022482  0.9916721947376461  1.0000
  C   C11       1.0  0.7880755283059743  0.883321177269977  0.39955874326437885  1.0000
  C   C12       1.0  0.21192250566058143  0.1166809651396079  0.600439944068711  1.0000
  C   C13       1.0  0.9455787250047646  0.7265460433545317  0.48187391142654007  1.0000
  C   C14       1.0  0.05442004143954899  0.2734571536790967  0.5181224565071858  1.0000
  C   C15       1.0  0.4363099012919848  0.46422481338126437  0.2929804184818822  1.0000
  C   C16       1.0  0.5636891148324567  0.5357719491782548  0.7070215298730106  1.0000
  C   C17       1.0  0.5493841885510379  0.5194363549154773  0.26623853198204744  1.0000
  C   C18       1.0  0.4506150342033238  0.4805625374606351  0.7337638911627381  1.0000
  C   C19       1.0  0.661261597295926  0.453918701446817  0.3217560230046105  1.0000
  C   C20       1.0  0.338738883784039  0.5460801703607957  0.6782412865515612  1.0000
  C   C21       1.0  0.6566390620211919  0.3336309725537703  0.4077936323257989  1.0000
  C   C22       1.0  0.3433619721108131  0.6663689425905801  0.5922069509292244  1.0000
  C   C23       1.0  0.5430620650970397  0.27844693700179596  0.43619400452231366  1.0000
  C   C24       1.0  0.45694430642590317  0.721550698453001  0.5638038405756166  1.0000
  C   C25       1.0  0.4341526384585066  0.34287145085593107  0.3783511926777125  1.0000
  C   C26       1.0  0.5658458817223817  0.6571263887773499  0.6216526176834025  1.0000
  C   C27       1.0  0.3187091361926234  0.5351810768446728  0.23064038348358204  1.0000
  C   C28       1.0  0.6812904259547209  0.4648113867009798  0.7693648235332592  1.0000
  C   C29       1.0  0.7864651982944435  0.5093665471754322  0.28566924470403887  1.0000
  C   C30       1.0  0.21353291565574037  0.4906323751752737  0.7143336311141869  1.0000
  N   N1        1.0  0.9516784863423169  0.9153958039839409  0.9007399932077435  1.0000
  N   N2        1.0  0.048320093647141994  0.08460203941178432  0.09926195278730182  1.0000
  N   N3        1.0  0.10870197570342535  0.8895421463804073  0.8541503123470594  1.0000
  N   N4        1.0  0.8912961681510438  0.11045677785151752  0.14585163128812456  1.0000
  N   N5        1.0  0.03449034030537486  0.7456353864262939  0.0348110746244217  1.0000
  N   N6        1.0  0.9655089123532719  0.2543635078310374  0.965190416337329  1.0000
  N   N7        1.0  0.8445736871513532  0.8389917238788841  0.5703607906892787  1.0000
  N   N8        1.0  0.15542615819284578  0.16101144129893905  0.42963605675404193  1.0000
  N   N9        1.0  0.7426723881032659  0.940611880017805  0.5196048520493906  1.0000
  N   N10       1.0  0.257324367362628  0.0593935067815963  0.4803928960211082  1.0000
  N   N11       1.0  0.9127997013188464  0.7513959636553337  0.37167882947999015  1.0000
  N   N12       1.0  0.08719614494364684  0.24860624058465672  0.6283198310169454  1.0000
  O   O1        1.0  0.2173404027326811  0.4768727848662521  0.2624802580554758  1.0000
  O   O2        1.0  0.7826585535831898  0.5231239739308294  0.7375235546654868  1.0000
  O   O3        1.0  0.32246780620763366  0.6434947267608921  0.15412850552963422  1.0000
  O   O4        1.0  0.6775298944827172  0.35649993595662727  0.8458734207088061  1.0000
  O   O5        1.0  0.8007189800196597  0.608075212379312  0.19264468275930838  1.0000
  O   O6        1.0  0.19928184748242475  0.3919225729484452  0.8073554257058223  1.0000
  O   O7        1.0  0.8818621127903868  0.4583607570116116  0.3426740398482907  1.0000
  O   O8        1.0  0.11813901105447412  0.5416391637763879  0.6573237468576282  1.0000
  O   O9        1.0  0.1867753614287507  0.40115779568284193  0.051672979940349334  1.0000
  O   O10       1.0  0.8132272176424066  0.598841008650716  0.9483271530010814  1.0000
