data_image0
_chemical_formula_structural       Zn4H36C44N20O24
_chemical_formula_sum              "Zn4 H36 C44 N20 O24"
_cell_length_a       10.269635721061878
_cell_length_b       11.243575398001594
_cell_length_c       13.887063625495504
_cell_angle_alpha    90.00006064495645
_cell_angle_beta     99.29604550523263
_cell_angle_gamma    89.99998411647154

_space_group_name_H-M_alt    "P 1"
_space_group_IT_number       1

loop_
  _space_group_symop_operation_xyz
  'x, y, z'

loop_
  _atom_site_type_symbol
  _atom_site_label
  _atom_site_symmetry_multiplicity
  _atom_site_fract_x
  _atom_site_fract_y
  _atom_site_fract_z
  _atom_site_occupancy
  Zn  Zn1       1.0  0.6036100426745037  0.5749204224692902  0.271825713383997  1.0000
  Zn  Zn2       1.0  0.39639166825639194  0.07492021610503488  0.2281739357194752  1.0000
  Zn  Zn3       1.0  0.39639072498036404  0.42508051032977784  0.7281739888976447  1.0000
  Zn  Zn4       1.0  0.6036090955773973  0.9250807166945093  0.7718264861949464  1.0000
  H   H1        1.0  0.7700113402586768  0.3357064644718903  0.28119800402831885  1.0000
  H   H2        1.0  0.22999132797773572  0.8357075875776871  0.2188019860242036  1.0000
  H   H3        1.0  0.22998646730987823  0.664292689533724  0.7188013362824037  1.0000
  H   H4        1.0  0.7700133864590769  0.16429245582439478  0.7811981988839634  1.0000
  H   H5        1.0  0.9272388504724632  0.23279798043874678  0.4077998699207939  1.0000
  H   H6        1.0  0.0727618521493838  0.7327998683054278  0.09220051152229301  1.0000
  H   H7        1.0  0.0727589609172199  0.7672002841695971  0.592198750756772  1.0000
  H   H8        1.0  0.9272408812542635  0.26720106449448616  0.9078008713383527  1.0000
  H   H9        1.0  0.9663402037680912  0.3157752520565467  0.5803805118009606  1.0000
  H   H10       1.0  0.0336606119823983  0.8157766880648224  0.9196207112490669  1.0000
  H   H11       1.0  0.033660571529090105  0.684223012551179  0.4196177512139982  1.0000
  H   H12       1.0  0.9663391613348368  0.1842242447352405  0.08038030964140573  1.0000
  H   H13       1.0  0.8448071810166697  0.5005216827810128  0.6140055850511814  1.0000
  H   H14       1.0  0.15519071399663895  0.0005244129746344999  0.8859942900947502  1.0000
  H   H15       1.0  0.1551935904594401  0.49947658182718147  0.3859933975965575  1.0000
  H   H16       1.0  0.8448090593205393  0.9994774092222298  0.11400673079609903  1.0000
  H   H17       1.0  0.682475898813152  0.6582392895937089  0.5551315300190893  1.0000
  H   H18       1.0  0.3175190145183038  0.15824205468963018  0.9448688360170295  1.0000
  H   H19       1.0  0.31752585171621217  0.3417598644121824  0.4448690125513011  1.0000
  H   H20       1.0  0.6824758291426393  0.8417588781102053  0.05513086195704632  1.0000
  H   H21       1.0  0.4587470585691377  0.7161310449382653  0.5539135269874365  1.0000
  H   H22       1.0  0.5412517988412021  0.21613108560852368  0.9460866509441033  1.0000
  H   H23       1.0  0.5412537167279509  0.2838689984630633  0.44608473602827553  1.0000
  H   H24       1.0  0.45874699160174254  0.7838680683975097  0.0539135296561142  1.0000
  H   H25       1.0  0.30533793758309713  0.8881421845168802  0.553129310600518  1.0000
  H   H26       1.0  0.694659917567705  0.3881412971638554  0.9468701723427627  1.0000
  H   H27       1.0  0.6946598623432862  0.11185696948967205  0.44687146897575764  1.0000
  H   H28       1.0  0.3053398710339081  0.611858746237523  0.0531279700162273  1.0000
  H   H29       1.0  0.2840456946487109  0.034038338356211305  0.41374152928477054  1.0000
  H   H30       1.0  0.7159560285316005  0.5340391628290674  0.0862566460195779  1.0000
  H   H31       1.0  0.7159540863107878  0.9659608156493033  0.5862580523393959  1.0000
  H   H32       1.0  0.28404474294430326  0.46596265936633335  0.9137423366296602  1.0000
  H   H33       1.0  0.5508796165654531  0.8444823743906085  0.2792166425688549  1.0000
  H   H34       1.0  0.4491230468608336  0.3444839235433505  0.2207840745298242  1.0000
  H   H35       1.0  0.44912311683820155  0.15551855840930526  0.7207847402917906  1.0000
  H   H36       1.0  0.5508767340985088  0.6555178986525688  0.779215507095465  1.0000
  C   C1        1.0  0.7891992822762007  0.3703013778138668  0.35538084972967005  1.0000
  C   C2        1.0  0.21080140484943405  0.8703024090370514  0.14461964786523404  1.0000
  C   C3        1.0  0.2107995119878723  0.6296968867948961  0.644618611237398  1.0000
  C   C4        1.0  0.7892013247331916  0.12969763436652929  0.8553824546278151  1.0000
  C   C5        1.0  0.877064441725885  0.3121081809130288  0.4276880892431549  1.0000
  C   C6        1.0  0.12293625195786718  0.8121109192453344  0.0723123591953865  1.0000
  C   C7        1.0  0.1229323867895005  0.6878883049012926  0.5723096911441559  1.0000
  C   C8        1.0  0.8770654947503121  0.1878900135546288  0.9276889030085371  1.0000
  C   C9        1.0  0.8984798170416255  0.35813452416878266  0.5219525503532125  1.0000
  C   C10       1.0  0.10151902436521712  0.8581360189127663  0.9780477475324362  1.0000
  C   C11       1.0  0.1015199715600872  0.6418637404389924  0.4780455920050244  1.0000
  C   C12       1.0  0.8984807451308825  0.14186580328456697  0.021953992991193196  1.0000
  C   C13       1.0  0.8317051383245514  0.4615002417459023  0.541318007768254  1.0000
  C   C14       1.0  0.1682907313468363  0.9615016939508294  0.9586820154625286  1.0000
  C   C15       1.0  0.1682936559395216  0.5384980228628606  0.458681453198814  1.0000
  C   C16       1.0  0.831707068579398  0.038500128246127495  0.04131876411487674  1.0000
  C   C17       1.0  0.7455520086096216  0.5144655617197174  0.465479919680469  1.0000
  C   C18       1.0  0.254447731922113  0.0144695862189721  0.034520156676549604  1.0000
  C   C19       1.0  0.25444777617100567  0.48553270288852696  0.534518942310541  1.0000
  C   C20       1.0  0.7455520452160515  0.9855340147710262  0.9654801445822727  1.0000
  C   C21       1.0  0.6722111594439539  0.6220212259772351  0.481012982762863  1.0000
  C   C22       1.0  0.3277875746289567  0.12202432184741946  0.018988503057258285  1.0000
  C   C23       1.0  0.32779059490653856  0.37797703863137844  0.5189868401743709  1.0000
  C   C24       1.0  0.6722092386018019  0.877977500349587  0.9810121558634181  1.0000
  C   C25       1.0  0.5180343213593873  0.7680646059127839  0.4169259352197088  1.0000
  C   C26       1.0  0.48196736398356427  0.2680650774060708  0.0830745966700093  1.0000
  C   C27       1.0  0.4819674215277632  0.23193543749084705  0.5830760466166113  1.0000
  C   C28       1.0  0.5180314341014451  0.7319358553926275  0.9169241446654084  1.0000
  C   C29       1.0  0.4477215756935351  0.7808790949262557  0.4947628887837682  1.0000
  C   C30       1.0  0.5522801196685094  0.2808794466324329  0.0052354950322453  1.0000
  C   C31       1.0  0.5522801786569076  0.2191200590791594  0.5052369341538423  1.0000
  C   C32       1.0  0.4477196689330539  0.7191214861657472  0.9947626473271144  1.0000
  C   C33       1.0  0.3616374981166929  0.8766031044560091  0.49387263330765313  1.0000
  C   C34       1.0  0.6383622130666639  0.3766016562817355  0.00612559005435293  1.0000
  C   C35       1.0  0.6383642562338494  0.12339427075580997  0.5061271896292042  1.0000
  C   C36       1.0  0.3616365850183882  0.6233983871201616  0.9938731512806882  1.0000
  C   C37       1.0  0.3490454206398966  0.9571130331999169  0.41699887754269577  1.0000
  C   C38       1.0  0.6509552719867598  0.4571116821259975  0.08299881485181969  1.0000
  C   C39       1.0  0.6509553508360567  0.0428878995986821  0.5830001051061657  1.0000
  C   C40       1.0  0.3490435299193777  0.5428883612754304  0.9169992068504412  1.0000
  C   C41       1.0  0.49873206664221936  0.8522957726218648  0.34139913718819065  1.0000
  C   C42       1.0  0.501269609208144  0.3522954483265153  0.1586014658531241  1.0000
  C   C43       1.0  0.5012686933704344  0.14770604957494976  0.6586020043593805  1.0000
  C   C44       1.0  0.4987321489632278  0.6477063738688358  0.8413976374528361  1.0000
  N   N1        1.0  0.7247944989900573  0.4687691862547823  0.3737622475461322  1.0000
  N   N2        1.0  0.27520519034294477  0.9687719556295772  0.1262382125707262  1.0000
  N   N3        1.0  0.27520429909510113  0.5312290783535117  0.6262364937881558  1.0000
  N   N4        1.0  0.7247955696697093  0.031229866567237294  0.8737629289768449  1.0000
  N   N5        1.0  0.6001575482411712  0.6709433473162177  0.40678093712158875  1.0000
  N   N6        1.0  0.3998421784772147  0.1709438532783949  0.0932185517814261  1.0000
  N   N7        1.0  0.3998432194137038  0.32905758548285746  0.5932187651600529  1.0000
  N   N8        1.0  0.6001566196077377  0.8290579689171054  0.906780189554361  1.0000
  N   N9        1.0  0.41726367553938803  0.9453115693994787  0.3422031404920105  1.0000
  N   N10       1.0  0.5827399746824895  0.4453121123936724  0.15779562353729662  1.0000
  N   N11       1.0  0.5827380788110048  0.054688474002745104  0.6577966824459766  1.0000
  N   N12       1.0  0.41726080443567787  0.5546879310071873  0.8422019198456354  1.0000
  N   N13       1.0  0.3330549636966609  0.5738558411227287  0.2590509516817363  1.0000
  N   N14       1.0  0.666944766321052  0.0738564709058878  0.24094989447491602  1.0000
  N   N15       1.0  0.6669458001372776  0.4261424234864107  0.7409494702315557  1.0000
  N   N16       1.0  0.333053029784196  0.926143572497942  0.7590516047345092  1.0000
  N   N17       1.0  0.8118841512675347  0.7241771570308516  0.2243157577439163  1.0000
  N   N18       1.0  0.1881165485048868  0.22417706652011293  0.275685336048916  1.0000
  N   N19       1.0  0.18811760308285844  0.2758228863713725  0.7756840651940706  1.0000
  N   N20       1.0  0.8118832286334765  0.7758229768826794  0.7243149652084071  1.0000
  O   O1        1.0  0.4110058597623194  0.6417452408147282  0.2178225294413494  1.0000
  O   O2        1.0  0.5889968265119451  0.14174594456631698  0.2821780164004153  1.0000
  O   O3        1.0  0.5889968812836486  0.35825302379384266  0.7821774141526134  1.0000
  O   O4        1.0  0.4110039373218939  0.8582540988364257  0.7178224055136228  1.0000
  O   O5        1.0  0.38688164100624084  0.4947146767744144  0.3176113009161625  1.0000
  O   O6        1.0  0.6131190359194322  0.9947156533212079  0.18238858214061793  1.0000
  O   O7        1.0  0.6131201057020378  0.505284477231946  0.6823899612870079  1.0000
  O   O8        1.0  0.3868817317354427  0.005285279477860198  0.8176111201410237  1.0000
  O   O9        1.0  0.21174620309485448  0.5884134911139823  0.23984299229654482  1.0000
  O   O10       1.0  0.7882535291033934  0.08841322522173561  0.26015714652412925  1.0000
  O   O11       1.0  0.7882535702224801  0.41158566289247034  0.7601580285931817  1.0000
  O   O12       1.0  0.2117462365718765  0.9115841499920591  0.739845313630397  1.0000
  O   O13       1.0  0.6883979118401768  0.6952006020170032  0.18882072406253061  1.0000
  O   O14       1.0  0.31160082162796243  0.19520052592699946  0.31117938430693937  1.0000
  O   O15       1.0  0.31159989572832103  0.3047994413854197  0.8111786162485615  1.0000
  O   O16       1.0  0.6883999383848476  0.8047986280794034  0.6888217572395092  1.0000
  O   O17       1.0  0.8737009953296778  0.7841082286991393  0.1715572336707113  1.0000
  O   O18       1.0  0.12629971297294423  0.2841091124344217  0.3284410322165315  1.0000
  O   O19       1.0  0.12629878945075032  0.21589359349631104  0.828441628321805  1.0000
  O   O20       1.0  0.8737000718075337  0.7158918203642344  0.6715578297756153  1.0000
  O   O21       1.0  0.8589555549161219  0.689392896749247  0.3081493721206884  1.0000
  O   O22       1.0  0.1410461431138899  0.18939537715277052  0.1918503736813619  1.0000
  O   O23       1.0  0.14104521273890214  0.3106053678594164  0.6918503301598236  1.0000
  O   O24       1.0  0.8589556112364108  0.8106064450430494  0.8081494492573853  1.0000
