data_image0
_chemical_formula_structural       Cd4H24C24I4N4O16
_chemical_formula_sum              "Cd4 H24 C24 I4 N4 O16"
_cell_length_a       8.446057893005213
_cell_length_b       10.63575027972159
_cell_length_c       10.817723577286216
_cell_angle_alpha    90.8601000341659
_cell_angle_beta     89.99998732486915
_cell_angle_gamma    89.99987422639136

_space_group_name_H-M_alt    "P 1"
_space_group_IT_number       1

loop_
  _space_group_symop_operation_xyz
  'x, y, z'

loop_
  _atom_site_type_symbol
  _atom_site_label
  _atom_site_symmetry_multiplicity
  _atom_site_fract_x
  _atom_site_fract_y
  _atom_site_fract_z
  _atom_site_occupancy
  Cd  Cd1       1.0  0.09353660382012663  0.33421173973594887  0.45206175406780597  1.0000
  Cd  Cd2       1.0  0.5935345782052011  0.16578856844431303  0.547937046951496  1.0000
  Cd  Cd3       1.0  0.9064644953909564  0.6657882763607504  0.5479377088899325  1.0000
  Cd  Cd4       1.0  0.4064653370214373  0.8342114484313969  0.4520633404264273  1.0000
  H   H1        1.0  0.4373213714911231  0.6336783748846033  0.8414696668518784  1.0000
  H   H2        1.0  0.9373224589326696  0.8663203546044616  0.15853043889286056  1.0000
  H   H3        1.0  0.5626785437369506  0.36632070088234775  0.1585297829929004  1.0000
  H   H4        1.0  0.06267627231110141  0.1336787211635269  0.841469010952039  1.0000
  H   H5        1.0  0.3583357057875034  0.5043535875724743  0.02486604628283829  1.0000
  H   H6        1.0  0.858335018494401  0.9956462201939544  0.9751331636119854  1.0000
  H   H7        1.0  0.6416642094405701  0.49564548819447657  0.9751334035619406  1.0000
  H   H8        1.0  0.1416625287650604  0.004352855575078299  0.02486628623302069  1.0000
  H   H9        1.0  0.1207599794568424  0.3633273140534143  0.0045794887197701  1.0000
  H   H10       1.0  0.6207602728686651  0.13667482930771513  0.9954221064582496  1.0000
  H   H11       1.0  0.8792375677986044  0.6366745834859489  0.9954209248845415  1.0000
  H   H12       1.0  0.37923845837353554  0.8633251883470052  0.004579205339858604  1.0000
  H   H13       1.0  0.9701407378487164  0.36099106574913986  0.8004188040506431  1.0000
  H   H14       1.0  0.4701410047229615  0.13900952366175554  0.19958270964308159  1.0000
  H   H15       1.0  0.029855625422555904  0.6390108310132946  0.19958068513371066  1.0000
  H   H16       1.0  0.5298577265191113  0.860990494770931  0.800419526575098  1.0000
  H   H17       1.0  0.08994242456014942  0.9110342844550844  0.4122138523829548  1.0000
  H   H18       1.0  0.5899417825760267  0.5889650543612106  0.5877853969213618  1.0000
  H   H19       1.0  0.9100574906653307  0.08896667197344503  0.5877856236879778  1.0000
  H   H20       1.0  0.4100581326508817  0.4110349609585597  0.41221314161642647  1.0000
  H   H21       1.0  0.1941200530480103  0.028801741437270306  0.3775605907555004  1.0000
  H   H22       1.0  0.6941219025534054  0.4711983893063163  0.6224372661599131  1.0000
  H   H23       1.0  0.8058774942089926  0.971199214215368  0.6224379608955884  1.0000
  H   H24       1.0  0.3058780126748032  0.5288006856826685  0.37756125926479456  1.0000
  C   C1        1.0  0.288178419295626  0.6569576403280167  0.6265123472474767  1.0000
  C   C2        1.0  0.7881818767340291  0.8430432294272738  0.373485040649136  1.0000
  C   C3        1.0  0.7118203119469797  0.3430423749927911  0.37348619129042493  1.0000
  C   C4        1.0  0.21181922247589574  0.1569577262222452  0.6265135110016045  1.0000
  C   C5        1.0  0.2467094745844491  0.5692982940815413  0.7293608404181737  1.0000
  C   C6        1.0  0.7467103527870406  0.9306988887409634  0.2706383519816882  1.0000
  C   C7        1.0  0.7532892566580216  0.43070172201723983  0.2706386225397921  1.0000
  C   C8        1.0  0.253290746427787  0.06929830714135223  0.7293619960568875  1.0000
  C   C9        1.0  0.3346297619660276  0.5718893745455844  0.8384273359120511  1.0000
  C   C10       1.0  0.8346283107494515  0.9281095353035909  0.1615727899289112  1.0000
  C   C11       1.0  0.6653701532620461  0.42810970122136643  0.16157211393272058  1.0000
  C   C12       1.0  0.1653704204940496  0.07188954202034381  0.8384285087561165  1.0000
  C   C13       1.0  0.2916855526634663  0.4991517454931866  0.9387818670036407  1.0000
  C   C14       1.0  0.7916864885801118  0.0008482154522866002  0.06121781965915568  1.0000
  C   C15       1.0  0.7083143625657725  0.5008463907209518  0.061218494148128896  1.0000
  C   C16       1.0  0.2083134266466615  0.9991518006454571  0.9387816432986964  1.0000
  C   C17       1.0  0.1591350656704265  0.4216096383518889  0.9279702086939846  1.0000
  C   C18       1.0  0.6591357853645547  0.07839055694890361  0.0720313527481196  1.0000
  C   C19       1.0  0.8408636655707512  0.5783913180776781  0.07202926737706147  1.0000
  C   C20       1.0  0.340864129863384  0.9216085195960205  0.9279690215167234  1.0000
  C   C21       1.0  0.07520007103885722  0.41792455447529164  0.8184188569065681  1.0000
  C   C22       1.0  0.5752007490347565  0.08207578668512383  0.18158087212086113  1.0000
  C   C23       1.0  0.9247986602036207  0.5820754616234894  0.18158060605140486  1.0000
  C   C24       1.0  0.424799166193047  0.9179232906377737  0.8184204265640599  1.0000
  I   I1        1.0  0.3642363745768976  0.7086507980247634  0.22102376459049816  1.0000
  I   I2        1.0  0.8642351212897594  0.7913499412655085  0.778977306102874  1.0000
  I   I3        1.0  0.6357647246340504  0.2913492188499093  0.7789766227873043  1.0000
  I   I4        1.0  0.13576360995141812  0.20865101516405823  0.22102216996817245  1.0000
  N   N1        1.0  0.11873035296942189  0.4900348897269852  0.7212974811806203  1.0000
  N   N2        1.0  0.6187300171730926  0.009963495876199603  0.27870406194233505  1.0000
  N   N3        1.0  0.8812707462416681  0.5099651263697211  0.27870198177711086  1.0000
  N   N4        1.0  0.38126989805471123  0.9900355814466909  0.7212972367425862  1.0000
  O   O1        1.0  0.18337055296995433  0.9615657090370533  0.43863003197412803  1.0000
  O   O2        1.0  0.6833700574711372  0.5384344060215299  0.561369212160052  1.0000
  O   O3        1.0  0.8166305462399776  0.03843524661245821  0.5613685196766127  1.0000
  O   O4        1.0  0.316629857754485  0.46156654962902627  0.4386293394908023  1.0000
  O   O5        1.0  0.43372320056642627  0.6880669314782467  0.6185488259143666  1.0000
  O   O6        1.0  0.9337255572236459  0.8119327431040447  0.3814494448073161  1.0000
  O   O7        1.0  0.5662778986460922  0.3119321435097008  0.38144969951022745  1.0000
  O   O8        1.0  0.0662767259704538  0.18806821332240287  0.6185500312633818  1.0000
  O   O9        1.0  0.18346442352580541  0.7046786666941217  0.5580070654791881  1.0000
  O   O10       1.0  0.6834668083920334  0.7953186303165936  0.441995836977398  1.0000
  O   O11       1.0  0.816536675686443  0.2953204098497651  0.4419933087855483  1.0000
  O   O12       1.0  0.3165366587885572  0.2046804477811507  0.5580063861272393  1.0000
  O   O13       1.0  0.0322912388858683  0.48017100501441956  0.6196126576792053  1.0000
  O   O14       1.0  0.532293214644504  0.0198284719530761  0.380387991052025  1.0000
  O   O15       1.0  0.9677086763410473  0.5198290103053511  0.3803858808585827  1.0000
  O   O16       1.0  0.4677090685506188  0.9801715456985248  0.6196133207457349  1.0000
