data_image0
_chemical_formula_structural       Gd4H44C68O24
_chemical_formula_sum              "Gd4 H44 C68 O24"
_cell_length_a       6.739914670749388
_cell_length_b       12.889334458
_cell_length_c       17.125
_cell_angle_alpha    90.0
_cell_angle_beta     93.65599975295196
_cell_angle_gamma    90.0

_space_group_name_H-M_alt    "P 1"
_space_group_IT_number       1

loop_
  _space_group_symop_operation_xyz
  'x, y, z'

loop_
  _atom_site_type_symbol
  _atom_site_label
  _atom_site_symmetry_multiplicity
  _atom_site_fract_x
  _atom_site_fract_y
  _atom_site_fract_z
  _atom_site_occupancy
  Gd  Gd1       1.0  0.6159735276998788  0.6276383025330574  0.5476572995511971  1.0000
  Gd  Gd2       1.0  0.884025399034087  0.1276388633843624  0.4523429946815014  1.0000
  Gd  Gd3       1.0  0.3840267479387477  0.3723613515995866  0.4523425321838771  1.0000
  Gd  Gd4       1.0  0.11597190315659837  0.8723615665835354  0.5476573463721408  1.0000
  H   H1        1.0  0.1117451469143802  0.7874014002096743  0.790753605489371  1.0000
  H   H2        1.0  0.3882520174569918  0.2874004093904787  0.2092450678719189  1.0000
  H   H3        1.0  0.888252155276305  0.21260058142871696  0.2092449837394526  1.0000
  H   H4        1.0  0.6117467714576604  0.7126000205774192  0.790755310493239  1.0000
  H   H5        1.0  0.0443549228738433  0.75721830570874  0.9293309620839664  1.0000
  H   H6        1.0  0.4556437282215028  0.2572149873837972  0.0706683325304454  1.0000
  H   H7        1.0  0.9556423793168489  0.24278522760015164  0.0706682110864634  1.0000
  H   H8        1.0  0.5443595208650578  0.7427854425841007  0.9293321577692737  1.0000
  H   H9        1.0  0.7554163421459206  0.4685284581355376  0.8633302522206421  1.0000
  H   H10       1.0  0.7445840713120118  0.9685271214489859  0.1366694953819731  1.0000
  H   H11       1.0  0.24458244676873153  0.5314735235028536  0.1366701261445229  1.0000
  H   H12       1.0  0.2554162043266075  0.0314733085189047  0.8633303363531013  1.0000
  H   H13       1.0  0.822689114992954  0.5011437961399849  0.7243762253882835  1.0000
  H   H14       1.0  0.6773112984649783  0.0011428053207894  0.2756241061559379  1.0000
  H   H15       1.0  0.17731264736963936  0.4988566338279129  0.27562422759991984  1.0000
  H   H16       1.0  0.3226860037257068  0.998856072976608  0.7243762348977043  1.0000
  H   H17       1.0  0.7661668431615636  0.5153345986671454  0.9934073510863329  1.0000
  H   H18       1.0  0.7338335702963689  0.0153320561774493  0.006591812574669099  1.0000
  H   H19       1.0  0.2338304590291216  0.4846673829712459  0.0065912381424909  1.0000
  H   H20       1.0  0.2661667053422576  0.984666822119948  0.9934080191603982  1.0000
  H   H21       1.0  0.9217837276600489  0.7325545031644012  0.0411095734378151  1.0000
  H   H22       1.0  0.578222632693759  0.23255506401570616  0.9588914912940895  1.0000
  H   H23       1.0  0.0782224948744457  0.267444375132996  0.9588915754265486  1.0000
  H   H24       1.0  0.4217761562208934  0.7674453659521916  0.041109471012681795  1.0000
  H   H25       1.0  0.9299205679392128  0.7699311420878345  0.1771245823023193  1.0000
  H   H26       1.0  0.570084305690628  0.2699324787743791  0.8228758611764562  1.0000
  H   H27       1.0  0.0700826811473476  0.23006773620956272  0.8228753240557936  1.0000
  H   H28       1.0  0.42991596994799847  0.7300687270287582  0.1771251384418306  1.0000
  H   H29       1.0  0.8460321680211178  0.7273160635676916  0.3129842433328847  1.0000
  H   H30       1.0  0.6539697321607887  0.2273174002542433  0.6870155415812462  1.0000
  H   H31       1.0  0.1539695943414756  0.2726828147297056  0.6870156257137126  1.0000
  H   H32       1.0  0.3460275700299035  0.7726830297136544  0.3129847994723959  1.0000
  H   H33       1.0  0.5629450571942768  0.4463015541061993  0.230256399290262  1.0000
  H   H34       1.0  0.9370583297115969  0.9463025449253948  0.7697428389937784  1.0000
  H   H35       1.0  0.4370567051683167  0.5536965483559514  0.769743469756328  1.0000
  H   H36       1.0  0.0629389724790883  0.05369788504249581  0.2302575020598638  1.0000
  H   H37       1.0  0.6386074133951067  0.488039162960483  0.0947111695361613  1.0000
  H   H38       1.0  0.8614019204066421  0.9880409296149255  0.9052882179939629  1.0000
  H   H39       1.0  0.3613988091393949  0.5119581636664209  0.9052882275033836  1.0000
  H   H40       1.0  0.1385968685080101  0.011959500352972403  0.0947115764295958  1.0000
  H   H41       1.0  0.5490114801622424  0.8693854625709465  0.45210467193633247  1.0000
  H   H42       1.0  0.9509844731237891  0.369386799257498  0.54789671555654  1.0000
  H   H43       1.0  0.4509858220284427  0.1306141915616976  0.5478962530589158  1.0000
  H   H44       1.0  0.04901431579087048  0.630612854875146  0.4521048306918374  1.0000
  C   C1        1.0  0.9966135184385647  0.6728780316982892  0.6654336682110369  1.0000
  C   C2        1.0  0.5033868950193747  0.1728785925495941  0.3345660793915783  1.0000
  C   C3        1.0  0.003385270476094599  0.3271223982696015  0.3345667101541281  1.0000
  C   C4        1.0  0.49661189389528454  0.8271210615830571  0.6654337150319805  1.0000
  C   C5        1.0  0.9711295828958766  0.6468068640134916  0.7490294399269075  1.0000
  C   C6        1.0  0.5288678571141219  0.14680664902954282  0.2509690651694569  1.0000
  C   C7        1.0  0.028869206018775594  0.3531935659544062  0.2509697705550451  1.0000
  C   C8        1.0  0.4711309318005305  0.8531922292678545  0.7490307292541017  1.0000
  C   C9        1.0  0.034423606764796895  0.7176646730785023  0.8076779255150085  1.0000
  C   C10       1.0  0.46557504433054925  0.2176636822592997  0.1923213690994032  1.0000
  C   C11       1.0  0.9655766688738294  0.2823357568893954  0.1923207383368535  1.0000
  C   C12       1.0  0.5344237445841101  0.7823359718733442  0.8076790092657616  1.0000
  C   C13       1.0  0.9952591129033337  0.7003860462629918  0.8850697504097055  1.0000
  C   C14       1.0  0.5047398138306319  0.20038350377330266  0.11492820805656828  1.0000
  C   C15       1.0  0.0047396760113259  0.2996174870458931  0.1149294600722399  1.0000
  C   C16       1.0  0.4952604618079873  0.7996169261945951  0.8850716236785059  1.0000
  C   C17       1.0  0.8903157281444718  0.6111975777857523  0.9063659692084514  1.0000
  C   C18       1.0  0.6096846853134605  0.11119581113130293  0.0936326105109444  1.0000
  C   C19       1.0  0.10968454749414747  0.3888044038526388  0.0936326946434107  1.0000
  C   C20       1.0  0.3903155903251587  0.8888046188365877  0.90636722122413  1.0000
  C   C21       1.0  0.8339183411264344  0.5386461203736418  0.847386798417183  1.0000
  C   C22       1.0  0.6660820723315054  0.0386451295544461  0.15261294918542484  1.0000
  C   C23       1.0  0.16608342123615924  0.4613543095942562  0.1526130706294069  1.0000
  C   C24       1.0  0.333916716583154  0.961354524578198  0.8473862612965205  1.0000
  C   C25       1.0  0.8717301918152528  0.5563553357519666  0.7697319466655657  1.0000
  C   C26       1.0  0.6282702216426796  0.0563551207680177  0.2302672169954434  1.0000
  C   C27       1.0  0.1282700838233666  0.44364587005117784  0.230268469011115  1.0000
  C   C28       1.0  0.3717285672719726  0.9436437575293795  0.7697319934865091  1.0000
  C   C29       1.0  0.8330917225999881  0.5915340334168846  0.9853613816796383  1.0000
  C   C30       1.0  0.6669116643058854  0.0915322667624423  0.014637856604402094  1.0000
  C   C31       1.0  0.1669100397626053  0.4084671723862598  0.014638487366951803  1.0000
  C   C32       1.0  0.333090098056708  0.9084673873702016  0.9853620124421879  1.0000
  C   C33       1.0  0.8524340014291312  0.6565606647554675  0.04759337388801299  1.0000
  C   C34       1.0  0.6475693854767357  0.15656122560676525  0.9524058643960345  1.0000
  C   C35       1.0  0.1475677609334554  0.3434389893771837  0.9524064951585842  1.0000
  C   C36       1.0  0.3524308901618838  0.8434392043611256  0.0475945512806462  1.0000
  C   C37       1.0  0.7928565118426434  0.6321265094446318  0.1256608171147562  1.0000
  C   C38       1.0  0.7071498485111647  0.1321278461311834  0.874339663675535  1.0000
  C   C39       1.0  0.2071482239678843  0.3678723688527654  0.8743397104964784  1.0000
  C   C40       1.0  0.2928489404034876  0.8678718080014607  0.12566071468962284  1.0000
  C   C41       1.0  0.8477047324855889  0.6991757432756032  0.1885649049234104  1.0000
  C   C42       1.0  0.6523001411442522  0.1991770799621548  0.8114349546137518  1.0000
  C   C43       1.0  0.15229851660097177  0.300823135021794  0.8114355853763016  1.0000
  C   C44       1.0  0.3477001344943743  0.8008241258409896  0.1885648771213155  1.0000
  C   C45       1.0  0.8021024482022481  0.6754018237610993  0.2646554851901328  1.0000
  C   C46       1.0  0.6979009387036255  0.1754031604476509  0.735345504918726  1.0000
  C   C47       1.0  0.19789782743637824  0.3245970545362979  0.7353449304865478  1.0000
  C   C48       1.0  0.30209933693499375  0.8245980453554936  0.2646554946995536  1.0000
  C   C49       1.0  0.6996731136739811  0.5836763740218274  0.27981508973871166  1.0000
  C   C50       1.0  0.8003287865079187  0.08367771070837192  0.7201846951754192  1.0000
  C   C51       1.0  0.3003271619646384  0.4163225042755698  0.7201847419963626  1.0000
  C   C52       1.0  0.1996700024067337  0.9163227192595187  0.2798156831897458  1.0000
  C   C53       1.0  0.6418261707867359  0.5172966860101624  0.217417934376769  1.0000
  C   C54       1.0  0.8581772161191381  0.017298022696714103  0.7825813039072712  1.0000
  C   C55       1.0  0.3581770782998247  0.48270219228723493  0.7825813880397376  1.0000
  C   C56       1.0  0.14182305951948138  0.9827024072711837  0.21741911176940928  1.0000
  C   C57       1.0  0.6853723158217517  0.5414298172446408  0.14173823403076816  1.0000
  C   C58       1.0  0.814635531256023  0.0414311539311925  0.8582611161878331  1.0000
  C   C59       1.0  0.3146324199887758  0.45856906105275647  0.8582611256972541  1.0000
  C   C60       1.0  0.1853647443825963  0.9585692760367054  0.1417387155472412  1.0000
  C   C61       1.0  0.6488777025689456  0.5538346470301505  0.36021388101471524  1.0000
  C   C62       1.0  0.8511227108889867  0.0538352078814555  0.6397858665878999  1.0000
  C   C63       1.0  0.3511210863457066  0.44616578293774023  0.6397859134088435  1.0000
  C   C64       1.0  0.14887459130169833  0.9461652220864423  0.3602144744657423  1.0000
  C   C65       1.0  0.7049881518610873  0.8697074341990076  0.47622818644919107  1.0000
  C   C66       1.0  0.7950107748728781  0.3697079950503053  0.5237721077835075  1.0000
  C   C67       1.0  0.295009150329598  0.1302922199336436  0.5237721546044509  1.0000
  C   C68       1.0  0.2049909874897082  0.6302924349175925  0.476228929146302  1.0000
  O   O1        1.0  0.9186616073263705  0.6118391935361132  0.6125272776415684  1.0000
  O   O2        1.0  0.5813373194076019  0.1118397543874181  0.387472432649524  1.0000
  O   O3        1.0  0.08133866831225588  0.3881612364317775  0.387472554093506  1.0000
  O   O4        1.0  0.4186614695070574  0.8881591239099793  0.6125267778324286  1.0000
  O   O5        1.0  0.0870268742154323  0.7557923205223107  0.6501922422726807  1.0000
  O   O6        1.0  0.41297326360388087  0.2557928813736083  0.3498070896532468  1.0000
  O   O7        1.0  0.9129734014231942  0.2442081094455872  0.34980758946239376  1.0000
  O   O8        1.0  0.5870270120347383  0.7442067727590356  0.6501933260234336  1.0000
  O   O9        1.0  0.6892541521032953  0.6178744159328602  0.4160709828746576  1.0000
  O   O10       1.0  0.8107462613546375  0.117874976784158  0.5839281807863514  1.0000
  O   O11       1.0  0.3107446368113571  0.38212523819979083  0.5839282276072948  1.0000
  O   O12       1.0  0.18924955411208086  0.8821239015132394  0.4160715390141689  1.0000
  O   O13       1.0  0.5658902573757131  0.4658976008084609  0.3674176126799508  1.0000
  O   O14       1.0  0.9341071826342853  0.9658985916276563  0.6325814763580127  1.0000
  O   O15       1.0  0.4341085315389391  0.5341020533241903  0.6325815978019945  1.0000
  O   O16       1.0  0.06589160628037398  0.034102614175488107  0.3674189020071452  1.0000
  O   O17       1.0  0.7801896236317062  0.7886978209096329  0.5090205872044109  1.0000
  O   O18       1.0  0.7198107898262336  0.2886976059256838  0.4909803282814096  1.0000
  O   O19       1.0  0.2198091652829532  0.211302609058265  0.490979791160747  1.0000
  O   O20       1.0  0.2801909725363601  0.7113020482069672  0.5090201247067867  1.0000
  O   O21       1.0  0.8093859089235308  0.9506580840095041  0.47056265388493296  1.0000
  O   O22       1.0  0.6906085576385264  0.4506570931903085  0.5294375284132116  1.0000
  O   O23       1.0  0.1906069330952462  0.0493431217936333  0.529437575234155  1.0000
  O   O24       1.0  0.30939320472406706  0.5493425609423355  0.4705623406333856  1.0000
