data_image0
_chemical_formula_structural       Zn2H36C44N8O8
_chemical_formula_sum              "Zn2 H36 C44 N8 O8"
_cell_length_a       8.10791264184498
_cell_length_b       11.370556912848384
_cell_length_c       11.72996894964445
_cell_angle_alpha    99.61596809268453
_cell_angle_beta     107.09730013299036
_cell_angle_gamma    95.25589383385805

_space_group_name_H-M_alt    "P 1"
_space_group_IT_number       1

loop_
  _space_group_symop_operation_xyz
  'x, y, z'

loop_
  _atom_site_type_symbol
  _atom_site_label
  _atom_site_symmetry_multiplicity
  _atom_site_fract_x
  _atom_site_fract_y
  _atom_site_fract_z
  _atom_site_occupancy
  Zn  Zn1       1.0  0.2730324083009279  0.33982622362183423  0.24612357903600218  1.0000
  Zn  Zn2       1.0  0.7269672932201698  0.6601924747177392  0.7538943518816837  1.0000
  H   H1        1.0  0.6247723263971423  0.9908583965116904  0.40867787716196363  1.0000
  H   H2        1.0  0.3752121206033649  0.009151127338341798  0.5913037897876167  1.0000
  H   H3        1.0  0.5550411317210192  0.7804096934199689  0.29657165626770177  1.0000
  H   H4        1.0  0.44495398830585486  0.21959525007811462  0.7034146882864294  1.0000
  H   H5        1.0  0.036511276754033935  0.7127649621070375  0.14690383012635527  1.0000
  H   H6        1.0  0.9634896719755871  0.2872309084769853  0.8530845515767711  1.0000
  H   H7        1.0  0.31515844262985837  0.8344073094860034  0.16980913231491  1.0000
  H   H8        1.0  0.684834263024271  0.16559209854030857  0.8301808294800425  1.0000
  H   H9        1.0  0.3891368415601377  0.0456866862837586  0.28783207346153733  1.0000
  H   H10       1.0  0.6108549336295893  0.954308089372617  0.7121619658716087  1.0000
  H   H11       1.0  0.18521185170119736  0.1362772411611104  0.3808450427700408  1.0000
  H   H12       1.0  0.8147840006262753  0.8637183990517627  0.6191516684023954  1.0000
  H   H13       1.0  0.9778847584452135  0.1790261489210252  0.5200304163894529  1.0000
  H   H14       1.0  0.02211960948079663  0.8209681470552683  0.4799489708503801  1.0000
  H   H15       1.0  0.965620046425876  0.2136490943161604  0.3771089821493093  1.0000
  H   H16       1.0  0.03436614613585225  0.7863505125607589  0.6228711999397661  1.0000
  H   H17       1.0  0.766615574880653  0.25431285259572434  0.6137765815289387  1.0000
  H   H18       1.0  0.23339407787852912  0.7456695418506528  0.38620932979132067  1.0000
  H   H19       1.0  0.4566146732011374  0.3483962464109567  0.5283958712853051  1.0000
  H   H20       1.0  0.543404651450622  0.6516001537455055  0.4716124467589894  1.0000
  H   H21       1.0  0.613638905475561  0.20444425873395028  0.22850440981231665  1.0000
  H   H22       1.0  0.38635209307321355  0.7955714601698033  0.7714848134378445  1.0000
  H   H23       1.0  0.1402188907890292  0.9660993227527398  0.940923878752365  1.0000
  H   H24       1.0  0.8597879108970118  0.03392341966548431  0.05907829538110581  1.0000
  H   H25       1.0  0.8981165606855298  0.5830511324738481  0.42387116494811045  1.0000
  H   H26       1.0  0.10187969966026601  0.41690708717403874  0.5761750031981949  1.0000
  H   H27       1.0  0.3860265094845303  0.685261028050448  0.02040992992780844  1.0000
  H   H28       1.0  0.6139543309066653  0.3147311346637593  0.9795771996584153  1.0000
  H   H29       1.0  0.1401098165462713  0.5311086719678357  0.07339364820981595  1.0000
  H   H30       1.0  0.8598836455428579  0.46889936415249167  0.9266142581845431  1.0000
  H   H31       1.0  0.6468735364329418  0.47924151556807  0.26656420510087037  1.0000
  H   H32       1.0  0.35312600655673515  0.5207711988162559  0.7334389458178878  1.0000
  H   H33       1.0  0.8285893617963039  0.6032429795423582  0.17969229656618785  1.0000
  H   H34       1.0  0.17140374246020676  0.39675819124313694  0.8202997749624148  1.0000
  H   H35       1.0  0.7236450668963103  0.676552454005737  0.060381175320856115  1.0000
  H   H36       1.0  0.27634778159181655  0.323441502988203  0.9396095142355779  1.0000
  C   C1        1.0  0.715300478572267  0.9550526053536358  0.3641315398162348  1.0000
  C   C2        1.0  0.2847011160911492  0.04494574538951918  0.6358668078490626  1.0000
  C   C3        1.0  0.6755793060520006  0.8339044986148282  0.3000991657488756  1.0000
  C   C4        1.0  0.3244268891742053  0.16609108990398613  0.6999021407402213  1.0000
  C   C5        1.0  0.781765648049813  0.7853527525018789  0.23777414634309227  1.0000
  C   C6        1.0  0.21823428141540546  0.2146437522674915  0.7622252366686412  1.0000
  C   C7        1.0  0.9441398678590146  0.8548779710379861  0.24953490559915542  1.0000
  C   C8        1.0  0.05585551382073821  0.14511615238515674  0.750449493797099  1.0000
  C   C9        1.0  0.06653963853349863  0.8054792202930797  0.1976434639369559  1.0000
  C   C10       1.0  0.933458006248024  0.19451939324262207  0.8023430647133342  1.0000
  C   C11       1.0  0.2238411628951411  0.872973536765663  0.21173775066239395  1.0000
  C   C12       1.0  0.776155021993162  0.12702409167838616  0.7882517183713775  1.0000
  C   C13       1.0  0.26601180282162323  0.9923822294527656  0.27892016470389097  1.0000
  C   C14       1.0  0.7339833087682803  0.007616217653719596  0.7210726541065854  1.0000
  C   C15       1.0  0.14963756952505483  0.04370874757398009  0.3295414756953222  1.0000
  C   C16       1.0  0.850360634704188  0.9562861161961539  0.6704504409607354  1.0000
  C   C17       1.0  0.985576415621061  0.9778298832173744  0.3160150668826632  1.0000
  C   C18       1.0  0.014419950557098101  0.022168688098624004  0.6839729065073004  1.0000
  C   C19       1.0  0.8621456987754782  0.0288246377763457  0.3674480817308918  1.0000
  C   C20       1.0  0.13785066740268093  0.971173933539653  0.6325398916590717  1.0000
  C   C21       1.0  0.8954586214194434  0.16190331943483469  0.4241621220248392  1.0000
  C   C22       1.0  0.1045308570790341  0.8380936059827778  0.5758173626064436  1.0000
  C   C23       1.0  0.6882080746798137  0.2585664346971797  0.5226213589536216  1.0000
  C   C24       1.0  0.31179767991756785  0.7414275345446342  0.47737188661034236  1.0000
  C   C25       1.0  0.5362138422410183  0.3044820001376182  0.4796643667114183  1.0000
  C   C26       1.0  0.4637982886185411  0.6955172007885224  0.5203387809671441  1.0000
  C   C27       1.0  0.6144777174064869  0.2332236149653752  0.3216972761471127  1.0000
  C   C28       1.0  0.38551859242375736  0.7667866373077034  0.6782945474377585  1.0000
  C   C29       1.0  0.1791845200111624  0.1407385768551492  0.06570905929921621  1.0000
  C   C30       1.0  0.8208328034302779  0.8592785398519138  0.9343035389336622  1.0000
  C   C31       1.0  0.07818046090689988  0.021128887391213883  0.9967702699938602  1.0000
  C   C32       1.0  0.9218383824655446  0.9788890094329546  0.0032478895576560935  1.0000
  C   C33       1.0  0.9837483453833328  0.5157327677207278  0.4456357022828144  1.0000
  C   C34       1.0  0.016255334504158697  0.48422996743632035  0.5544127673503284  1.0000
  C   C35       1.0  0.05737913480733433  0.4635334271145198  0.3492843134282071  1.0000
  C   C36       1.0  0.9426244875948553  0.536454043275171  0.6507525073765096  1.0000
  C   C37       1.0  0.40039602982632516  0.620142665628201  0.07911438650712203  1.0000
  C   C38       1.0  0.5995944367411495  0.3798521702957487  0.9208768467146343  1.0000
  C   C39       1.0  0.28129143165863  0.5434926162973852  0.10494614369607551  1.0000
  C   C40       1.0  0.7187017446432192  0.45650830851865726  0.8950561298750658  1.0000
  C   C41       1.0  0.5400932595138811  0.5141595219815258  0.2087026552462491  1.0000
  C   C42       1.0  0.4599035389754177  0.48585218558891796  0.7913040306254404  1.0000
  C   C43       1.0  0.7314390125389281  0.6635452170622074  0.15262598250924952  1.0000
  C   C44       1.0  0.26855203392078403  0.3364523244928749  0.8473658648023561  1.0000
  N   N1        1.0  0.7360685110464046  0.21401044079308212  0.42193651689444084  1.0000
  N   N2        1.0  0.2639286223176356  0.7859917585285459  0.5780514251117667  1.0000
  N   N3        1.0  0.4915039936603519  0.2879957260095268  0.35431363890101863  1.0000
  N   N4        1.0  0.5084973633652935  0.7120133628187517  0.6456900546029872  1.0000
  N   N5        1.0  0.5632842543703802  0.60037430407359  0.14583849191381412  1.0000
  N   N6        1.0  0.43670887990501933  0.39962676422463517  0.8541578304658447  1.0000
  N   N7        1.0  0.3702327245745138  0.4778717642331998  0.1857674871800158  1.0000
  N   N8        1.0  0.6297666731479694  0.5221398842944467  0.8142422604038162  1.0000
  O   O1        1.0  0.33201775338304873  0.1687280095277188  0.06368389683853341  1.0000
  O   O2        1.0  0.667993942970746  0.831287564993012  0.9363162173853613  1.0000
  O   O3        1.0  0.1027877423600714  0.21025585346770734  0.12774979903635145  1.0000
  O   O4        1.0  0.8972317877159454  0.7897594209399443  0.8722646013452294  1.0000
  O   O5        1.0  0.1707383339861295  0.3914625261776621  0.3788031865048113  1.0000
  O   O6        1.0  0.8292848012841033  0.6085325248321283  0.6212243973897743  1.0000
  O   O7        1.0  0.0064984036393625315  0.4910734739932323  0.24648619725815032  1.0000
  O   O8        1.0  0.9934975555795942  0.5089202394698803  0.7535528177282345  1.0000
