data_image0
_chemical_formula_structural       Cd2H44C44N12Cl4O16
_chemical_formula_sum              "Cd2 H44 C44 N12 Cl4 O16"
_cell_length_a       8.487587295344035
_cell_length_b       9.557654644459188
_cell_length_c       17.699
_cell_angle_alpha    85.78712692948113
_cell_angle_beta     80.47676220081613
_cell_angle_gamma    63.639336793970315

_space_group_name_H-M_alt    "P 1"
_space_group_IT_number       1

loop_
  _space_group_symop_operation_xyz
  'x, y, z'

loop_
  _atom_site_type_symbol
  _atom_site_label
  _atom_site_symmetry_multiplicity
  _atom_site_fract_x
  _atom_site_fract_y
  _atom_site_fract_z
  _atom_site_occupancy
  Cd  Cd1       1.0  0.3915554340363983  0.2172290117145721  0.2500229129267666  1.0000
  Cd  Cd2       1.0  0.6084443509321531  0.7827710716594396  0.7499772138272291  1.0000
  H   H1        1.0  0.6740964390192872  0.0266306413509696  0.1333262505842612  1.0000
  H   H2        1.0  0.2998324164480977  0.0265734238895021  0.3666394774266948  1.0000
  H   H3        1.0  0.3259045406044335  0.9733694420230421  0.8666743463886276  1.0000
  H   H4        1.0  0.7001655900140661  0.9734278271878055  0.6333601791082657  1.0000
  H   H5        1.0  0.6065600989626745  0.6918606993127554  0.07700962185689521  1.0000
  H   H6        1.0  0.7021437853087207  0.6919576186862599  0.4230545093169766  1.0000
  H   H7        1.0  0.39343910215465167  0.3081405517645592  0.9229899398932916  1.0000
  H   H8        1.0  0.2978559996598307  0.3080424646877589  0.5769444874296781  1.0000
  H   H9        1.0  0.3069447479685649  0.7054714489219336  0.09108039881932233  1.0000
  H   H10       1.0  0.9880935592231451  0.7056302565700818  0.4089703698634112  1.0000
  H   H11       1.0  0.693053869297529  0.2945309698586769  0.9089191629307365  1.0000
  H   H12       1.0  0.011905614941483095  0.2943686591006411  0.5910287216681454  1.0000
  H   H13       1.0  0.04396930317602719  0.9414175767557184  0.15668915549640866  1.0000
  H   H14       1.0  0.01510467408783706  0.9415238377555823  0.3433086580414511  1.0000
  H   H15       1.0  0.9560287302388416  0.058586009728181  0.843310406253515  1.0000
  H   H16       1.0  0.9848986948462154  0.058476245618429304  0.6566923143655643  1.0000
  H   H17       1.0  0.1044765764146831  0.1436613687086137  0.20949150445029827  1.0000
  H   H18       1.0  0.7523606185043334  0.1436999029173549  0.2904577245815574  1.0000
  H   H19       1.0  0.8955244032090375  0.856338714665398  0.7905090925225977  1.0000
  H   H20       1.0  0.24764097192332463  0.8563013481599526  0.7095433426101039  1.0000
  H   H21       1.0  0.7930299355852668  0.782306325747939  0.0206739661193325  1.0000
  H   H22       1.0  0.42511943083329856  0.7823822264621256  0.47935159775206415  1.0000
  H   H23       1.0  0.2069686547281222  0.2176937576260727  0.9793262554194371  1.0000
  H   H24       1.0  0.5748785486761534  0.2176166892085902  0.5206481535679401  1.0000
  H   H25       1.0  0.9081285835145395  0.879834072668686  0.04648026840671801  1.0000
  H   H26       1.0  0.21254882338170952  0.8798726068774272  0.4534886597190991  1.0000
  H   H27       1.0  0.09187061760278681  0.1201671784086287  0.9535192933434758  1.0000
  H   H28       1.0  0.7874497669316797  0.1201274764965916  0.5465109968159964  1.0000
  H   H29       1.0  0.8117630904215644  0.7526291464997144  0.22655741136606622  1.0000
  H   H30       1.0  0.43657857182452636  0.7522601522584225  0.2734528470541875  1.0000
  H   H31       1.0  0.1882361106957617  0.2473721045775932  0.7734427153877944  1.0000
  H   H32       1.0  0.5634182399824751  0.24774109881888512  0.7265469042655468  1.0000
  H   H33       1.0  0.4556898900654218  0.5188187479929027  0.21144530002337802  1.0000
  H   H34       1.0  0.02598634150735531  0.51914453721227  0.28866677538125163  1.0000
  H   H35       1.0  0.5443069486942846  0.4811848384909965  0.7885537915076526  1.0000
  H   H36       1.0  0.9740116649548087  0.4808567138650374  0.711334011161064  1.0000
  H   H37       1.0  0.317572780401875  0.3281409738052261  0.0787938001035613  1.0000
  H   H38       1.0  0.35397564864005204  0.3284457443652755  0.4213248610807128  1.0000
  H   H39       1.0  0.6824263937627463  0.6718579418654969  0.9212064214353362  1.0000
  H   H40       1.0  0.6460235524772742  0.671555506712032  0.5786747006694739  1.0000
  H   H41       1.0  0.11503000434110082  0.5546018477718704  0.007907117340160105  1.0000
  H   H42       1.0  0.33022244057380584  0.5548949412989757  0.4921570759451015  1.0000
  H   H43       1.0  0.8849697806274577  0.4453982356021413  0.9920930094138355  1.0000
  H   H44       1.0  0.6697773443947527  0.4451051420750431  0.5078419208015461  1.0000
  C   C1        1.0  0.5154892920673078  0.9175357089617151  0.13144737281196936  1.0000
  C   C2        1.0  0.5675406780467968  0.9175065163793334  0.3685233254695889  1.0000
  C   C3        1.0  0.48451049290125076  0.0824643744123037  0.8685527539420264  1.0000
  C   C4        1.0  0.4324602746242193  0.0824912315880937  0.631477931292018  1.0000
  C   C5        1.0  0.4929987293379625  0.7928016429654505  0.10436174937329673  1.0000
  C   C6        1.0  0.7147102006592904  0.7928705374598692  0.39565860637092237  1.0000
  C   C7        1.0  0.5070004717793637  0.2071996081118641  0.89563781237689  1.0000
  C   C8        1.0  0.2852883627013938  0.2071272105075579  0.6043411449492169  1.0000
  C   C9        1.0  0.32428411924821887  0.8002002110440145  0.11326750255279452  1.0000
  C   C10       1.0  0.8760043220413253  0.800284285681272  0.38674890389946637  1.0000
  C   C11       1.0  0.6757150818691073  0.199801040033293  0.8867320591973993  1.0000
  C   C12       1.0  0.1239936305154288  0.1997122945828593  0.6132509422055747  1.0000
  C   C13       1.0  0.179086784959388  0.9291158225404885  0.14994688389180766  1.0000
  C   C14       1.0  0.8923077935633971  0.9291613629690048  0.35003144857243024  1.0000
  C   C15       1.0  0.8209130269618756  0.0708865962401148  0.8500531480771513  1.0000
  C   C16       1.0  0.10769196445245652  0.0708363849984224  0.6499699029739503  1.0000
  C   C17       1.0  0.21181081072951713  0.0428243506491981  0.1788528348705611  1.0000
  C   C18       1.0  0.7458696715352814  0.0428430339019172  0.3211023513764886  1.0000
  C   C19       1.0  0.7881895850429785  0.9571769004281164  0.8211477621022069  1.0000
  C   C20       1.0  0.2541277241229453  0.9571570494720943  0.6788979649470548  1.0000
  C   C21       1.0  0.8293021667988114  0.8174074868024945  0.0706767465102232  1.0000
  C   C22       1.0  0.35383417170697856  0.817457698044187  0.42932136783952046  1.0000
  C   C23       1.0  0.17069642351458467  0.1825925965715172  0.9293234750285463  1.0000
  C   C24       1.0  0.6461638347551855  0.1825435530331205  0.5706788536991212  1.0000
  C   C25       1.0  0.9467527730806682  0.673718093214795  0.11172923939285082  1.0000
  C   C26       1.0  0.38011669885070626  0.6736853975225259  0.388306008159553  1.0000
  C   C27       1.0  0.0532470118878905  0.3262819901592238  0.8882708873611449  1.0000
  C   C28       1.0  0.6198807237602253  0.3263170212580775  0.6116936483752795  1.0000
  C   C29       1.0  0.9219208741253268  0.6611068976263326  0.19150068861963382  1.0000
  C   C30       1.0  0.4178514503028837  0.6608301519453619  0.3085504825677035  1.0000
  C   C31       1.0  0.07807832699199932  0.3388943534509821  0.8084988731305528  1.0000
  C   C32       1.0  0.5821477508144425  0.3391710991319457  0.6914490791824903  1.0000
  C   C33       1.0  0.0410505762521538  0.5309651976698646  0.226462494259728  1.0000
  C   C34       1.0  0.428754944731125  0.530701296725141  0.2736369699271535  1.0000
  C   C35       1.0  0.9589480140612424  0.4690348857041471  0.7735377272790346  1.0000
  C   C36       1.0  0.5712418670758767  0.4692999543521665  0.7263627813925879  1.0000
  C   C37       1.0  0.20299201747695864  0.4244449676725708  0.1093001855838693  1.0000
  C   C38       1.0  0.37263803648387755  0.4245664088152736  0.39079344175983266  1.0000
  C   C39       1.0  0.7970053781812679  0.575555115701448  0.8906995657359998  1.0000
  C   C40       1.0  0.6273611646334487  0.5754348422620339  0.609204989983013  1.0000
  C   C41       1.0  0.0901605714557405  0.5509013960292961  0.0702191752575203  1.0000
  C   C42       1.0  0.3590918393489275  0.5510613713807402  0.42984518097061647  1.0000
  C   C43       1.0  0.9098392135128108  0.4490986873447227  0.9297809514964753  1.0000
  C   C44       1.0  0.6409079456196309  0.4489387119932715  0.5701538157760311  1.0000
  N   N1        1.0  0.3756461840631644  0.0372660829639102  0.17167822743375177  1.0000
  N   N2        1.0  0.5876234790685615  0.037220542535394  0.3282651897861868  1.0000
  N   N3        1.0  0.6243547955605564  0.9627340004101085  0.82832180453547  1.0000
  N   N4        1.0  0.4123715272793333  0.9627795408386178  0.6717364461142452  1.0000
  N   N5        1.0  0.6734969812195003  0.9254725882593817  0.11852149266335489  1.0000
  N   N6        1.0  0.40159853154433023  0.9254457310835846  0.38145117948199203  1.0000
  N   N7        1.0  0.326502803749058  0.0745274951146371  0.8814791990943149  1.0000
  N   N8        1.0  0.5984018642281583  0.0745555199937229  0.6185494174907689  1.0000
  N   N9        1.0  0.1802799916479572  0.4147285085529759  0.1862466556259434  1.0000
  N   N10       1.0  0.40536477360212336  0.4146596140585572  0.313857415699438  1.0000
  N   N11       1.0  0.8197191825166641  0.5852704071177399  0.813753565912954  1.0000
  N   N12       1.0  0.5946326220561033  0.5853404693154545  0.6861412056130902  1.0000
  Cl  Cl1       1.0  0.7332159539279814  0.2893697212937667  0.10222647998066492  1.0000
  Cl  Cl2       1.0  0.9776156871318735  0.2893323547883213  0.3977560390676799  1.0000
  Cl  Cl3       1.0  0.266789777363698  0.7106280266736604  0.8977755276491877  1.0000
  Cl  Cl4       1.0  0.022385292491847522  0.7106677285856975  0.602243992901542  1.0000
  O   O1        1.0  0.6657991914168235  0.2105964569976777  0.1671385593022947  1.0000
  O   O2        1.0  0.1238371480093932  0.2106863701514143  0.3328398763803264  1.0000
  O   O3        1.0  0.3342077075773133  0.7893989555631578  0.8328628833241537  1.0000
  O   O4        1.0  0.8761614423039958  0.7893137132226045  0.6671603451584431  1.0000
  O   O5        1.0  0.5821140709569192  0.4158039632878854  0.0735475758185942  1.0000
  O   O6        1.0  0.0022739940202071898  0.4157128824308529  0.426510170214172  1.0000
  O   O7        1.0  0.41788929797714053  0.5841961200861334  0.9264562216067915  1.0000
  O   O8        1.0  0.9977299587650776  0.584286033239863  0.5734902371893114  1.0000
  O   O9        1.0  0.8418606698750183  0.3491829871852374  0.13096081751646693  1.0000
  O   O10       1.0  0.8091775903371001  0.3492086766577316  0.3690012271357617  1.0000
  O   O11       1.0  0.15814800762551331  0.6508112576723022  0.8690405303253356  1.0000
  O   O12       1.0  0.19082400009055783  0.650792574419583  0.6309998400558996  1.0000
  O   O13       1.0  0.8375595495683541  0.1720377264859536  0.0433201780990302  1.0000
  O   O14       1.0  0.9905849773781839  0.1719046083102995  0.45661230510269496  1.0000
  O   O15       1.0  0.16244320856176125  0.8279611891847694  0.9566797590855528  1.0000
  O   O16       1.0  0.009414807590374594  0.8280954750637193  0.5433872566476268  1.0000
