data_image0
_chemical_formula_structural       Cd3H28C26S2N10O20
_chemical_formula_sum              "Cd3 H28 C26 S2 N10 O20"
_cell_length_a       7.754803121821074
_cell_length_b       10.13702526065429
_cell_length_c       11.711280229460526
_cell_angle_alpha    93.71700214793232
_cell_angle_beta     89.10716332447659
_cell_angle_gamma    100.58164776141037

_space_group_name_H-M_alt    "P 1"
_space_group_IT_number       1

loop_
  _space_group_symop_operation_xyz
  'x, y, z'

loop_
  _atom_site_type_symbol
  _atom_site_label
  _atom_site_symmetry_multiplicity
  _atom_site_fract_x
  _atom_site_fract_y
  _atom_site_fract_z
  _atom_site_occupancy
  Cd  Cd1       1.0  0.736022934193521  0.9732099402891945  0.34296136313182046  1.0000
  Cd  Cd2       1.0  0.263979210792769  0.0267909195646041  0.6570379996148218  1.0000
  Cd  Cd3       1.0  0.499996860398582  0.500000925388747  0.9999999282513911  1.0000
  H   H1        1.0  0.42072106826915956  0.07562020647888798  0.4146620732679622  1.0000
  H   H2        1.0  0.5792829466994363  0.9243827010830047  0.5853348655883863  1.0000
  H   H3        1.0  0.35235764012525556  0.9256657835405947  0.39450874960993326  1.0000
  H   H4        1.0  0.6476465694382584  0.07433809958940428  0.6054899620434354  1.0000
  H   H5        1.0  0.10850599840269128  0.0639123146526828  0.3796180943674727  1.0000
  H   H6        1.0  0.8914979002974308  0.9360804186579443  0.6203841539458849  1.0000
  H   H7        1.0  0.10676563886600832  0.9872810319013394  0.25296052285379733  1.0000
  H   H8        1.0  0.8932360006619787  0.012707702564974003  0.7470406037558133  1.0000
  H   H9        1.0  0.3722654337956116  0.433387807968856  0.7620332409971766  1.0000
  H   H10       1.0  0.6277258284246872  0.566611059246469  0.2379685309716066  1.0000
  H   H11       1.0  0.2327865189084051  0.4954119894279215  0.8344750770400466  1.0000
  H   H12       1.0  0.7672080954296447  0.5045898931965168  0.16552604593091044  1.0000
  H   H13       1.0  0.8920730649929282  0.18629767452160448  0.1308595404795838  1.0000
  H   H14       1.0  0.10792524497919949  0.8137032238533097  0.8691389628978853  1.0000
  H   H15       1.0  0.47737520715895704  0.6914294565481426  0.8001093998351365  1.0000
  H   H16       1.0  0.5226161102761891  0.3085694405068793  0.19989066596799884  1.0000
  H   H17       1.0  0.5739966006601022  0.8497472612666782  0.7524147492964631  1.0000
  H   H18       1.0  0.4259988844212259  0.1502526474345984  0.24758368325873192  1.0000
  H   H19       1.0  0.7088115718767084  0.4672861817001888  0.36320428895717777  1.0000
  H   H20       1.0  0.2911972606219707  0.5327156442259806  0.6367951508980809  1.0000
  H   H21       1.0  0.85341377754375  0.2979841652901243  0.6653296444122034  1.0000
  H   H22       1.0  0.1465973802262255  0.7020166394940617  0.33466973300259173  1.0000
  H   H23       1.0  0.8087075418381318  0.7159971873523716  0.6776763942566005  1.0000
  H   H24       1.0  0.1912954186765887  0.28400166873856847  0.3223219842399345  1.0000
  H   H25       1.0  0.5445731386549326  0.7328201157339223  0.1834157292213092  1.0000
  H   H26       1.0  0.45542483868518246  0.2671797324736218  0.8165852667732666  1.0000
  H   H27       1.0  0.947237531319601  0.24947476448832617  0.928405138704967  1.0000
  H   H28       1.0  0.052755406288092464  0.7505251748669863  0.07159243657650899  1.0000
  C   C1        1.0  0.750057369415302  0.6052001735659118  0.5134590641629444  1.0000
  C   C2        1.0  0.24994888800232223  0.3948016680944376  0.4865403715014125  1.0000
  C   C3        1.0  0.7417546001404388  0.48052594280632394  0.45348970064419797  1.0000
  C   C4        1.0  0.2582558249233671  0.5194769105002806  0.5465081017722255  1.0000
  C   C5        1.0  0.7786750873419948  0.3702790000903207  0.5073432652081634  1.0000
  C   C6        1.0  0.22133615325024897  0.6297218494534249  0.49265355295815283  1.0000
  C   C7        1.0  0.8225781646439146  0.38354976032604077  0.6233431820166828  1.0000
  C   C8        1.0  0.17743226041989152  0.6164530929805636  0.3766546203997407  1.0000
  C   C9        1.0  0.8303279764688938  0.5079029749624198  0.683242479840075  1.0000
  C   C10       1.0  0.1696754560579237  0.4920978770242924  0.3167568850020146  1.0000
  C   C11       1.0  0.7964332905806871  0.6193226397677305  0.6295857821021542  1.0000
  C   C12       1.0  0.203571429486658  0.380678204351895  0.3704135848353828  1.0000
  C   C13       1.0  0.7162473448053887  0.7221347342610115  0.4513626842010367  1.0000
  C   C14       1.0  0.2837588021825539  0.2778670477199228  0.548640163794623  1.0000
  C   C15       1.0  0.7709025645146567  0.23872539818387384  0.4402979745061018  1.0000
  C   C16       1.0  0.22911354882251092  0.7612743995638525  0.5596996384934769  1.0000
  C   C17       1.0  0.5971406664984898  0.7972089323415332  0.11585820206429527  1.0000
  C   C18       1.0  0.4028545135582321  0.20278994111222906  0.8841418700251822  1.0000
  C   C19       1.0  0.6144410101153353  0.8251696992865614  0.9190233281892687  1.0000
  C   C20       1.0  0.3855500851174725  0.17482820728050544  0.0809758178996773  1.0000
  C   C21       1.0  0.716647346919494  0.9540052519088676  0.9458567079921848  1.0000
  C   C22       1.0  0.28334699000137686  0.04599561038790511  0.0541452014302308  1.0000
  C   C23       1.0  0.8717318494845969  0.153322370552111  0.9510219822262725  1.0000
  C   C24       1.0  0.12826316358462725  0.8466755422534008  0.0489754639833677  1.0000
  C   C25       1.0  0.7444752786914252  0.9955907823061311  0.06167436866945049  1.0000
  C   C26       1.0  0.25552222663658597  0.004407070005640903  0.9383256409795705  1.0000
  S   S1        1.0  0.8807576828277703  0.5206876212327457  0.8318937645063045  1.0000
  S   S2        1.0  0.11923334630587588  0.47931530532061817  0.16810656572685187  1.0000
  N   N1        1.0  0.6833908965104172  0.9199960639982053  0.1499331112136062  1.0000
  N   N2        1.0  0.31660842358506613  0.08000380618195631  0.8500661807107691  1.0000
  N   N3        1.0  0.5658045394960993  0.7456299254063552  0.008375618735527694  1.0000
  N   N4        1.0  0.4341874445460547  0.2543719431125453  0.9916272062101823  1.0000
  N   N5        1.0  0.7982213425767739  0.05421813157560251  0.8778265726633447  1.0000
  N   N6        1.0  0.2017728549640266  0.9457817849927674  0.12217185779640967  1.0000
  N   N7        1.0  0.8412384557886698  0.12280341806767577  0.06288187210351738  1.0000
  N   N8        1.0  0.1587600487783831  0.8771984558753445  0.9371184040709651  1.0000
  N   N9        1.0  0.5616848800784453  0.78149001075991  0.813502119563786  1.0000
  N   N10       1.0  0.43830962382991606  0.21851181218511329  0.18650241573847373  1.0000
  O   O1        1.0  0.7378737062168383  0.8389649747493383  0.5053213098611593  1.0000
  O   O2        1.0  0.26212989329746955  0.1610368378856251  0.4946806808607747  1.0000
  O   O3        1.0  0.43792186256767  0.9996054091052213  0.3612610798402898  1.0000
  O   O4        1.0  0.5620801045468085  0.00039953992632749835  0.6387351350050636  1.0000
  O   O5        1.0  0.6711695698337439  0.7063933715637772  0.3470377080544722  1.0000
  O   O6        1.0  0.3288327145326236  0.2936084340184237  0.6529651336548383  1.0000
  O   O7        1.0  0.03371131927193719  0.024212257037937893  0.3145275803995133  1.0000
  O   O8        1.0  0.9662902207106754  0.9757713679229668  0.6854774805628452  1.0000
  O   O9        1.0  0.7499467261374875  0.23044165270474073  0.333170256183358  1.0000
  O   O10       1.0  0.2500673393455628  0.7695601865126348  0.6668266328052255  1.0000
  O   O11       1.0  0.3633450335686206  0.5046467020510407  0.8230719660781884  1.0000
  O   O12       1.0  0.6366468110934562  0.49535422073946456  0.17692737990485338  1.0000
  O   O13       1.0  0.784034525955377  0.13646119888372243  0.4973973365175723  1.0000
  O   O14       1.0  0.21597850179690425  0.863541653608557  0.502599617006929  1.0000
  O   O15       1.0  0.7214839534046149  0.44622668722406184  0.886389148557889  1.0000
  O   O16       1.0  0.278501174794684  0.5537723834450858  0.1136032290225657  1.0000
  O   O17       1.0  0.9183372043612438  0.663242925941219  0.8675859887773284  1.0000
  O   O18       1.0  0.08165019523747934  0.3367559648753656  0.1324157769051055  1.0000
  O   O19       1.0  0.026300669417487692  0.4478337571098762  0.8444108800476043  1.0000
  O   O20       1.0  0.9736937516686125  0.5521680210755874  0.1555962145031344  1.0000
