data_image0
_chemical_formula_structural       AlH18C27N3O6
_chemical_formula_sum              "Al1 H18 C27 N3 O6"
_cell_length_a       4.005652247663629
_cell_length_b       15.992567593561498
_cell_length_c       16.05513673633198
_cell_angle_alpha    119.7989403412009
_cell_angle_beta     89.25517298438847
_cell_angle_gamma    91.39482887908694

_space_group_name_H-M_alt    "P 1"
_space_group_IT_number       1

loop_
  _space_group_symop_operation_xyz
  'x, y, z'

loop_
  _atom_site_type_symbol
  _atom_site_label
  _atom_site_symmetry_multiplicity
  _atom_site_fract_x
  _atom_site_fract_y
  _atom_site_fract_z
  _atom_site_occupancy
  Al  Al1       1.0  0.007714379285737012  0.5019198782988996  0.500831359425092  1.0000
  H   H1        1.0  0.5170428223653118  0.9254836210959784  0.07966665253561454  1.0000
  H   H2        1.0  0.4938141100819493  0.6545782609751143  0.0751929311782363  1.0000
  H   H3        1.0  0.4991587540923633  0.9202160306833209  0.3447114389214222  1.0000
  H   H4        1.0  0.8082654178157328  0.23737979355073696  0.2624511654041441  1.0000
  H   H5        1.0  0.81666927607845  0.0591182221813682  0.1708769158090035  1.0000
  H   H6        1.0  0.18290185814020535  0.04958296806910311  0.3852596701885034  1.0000
  H   H7        1.0  0.2161658278130432  0.8353204755270555  0.9474730603104291  1.0000
  H   H8        1.0  0.8126895512039881  0.5272340997715403  0.7675981170240292  1.0000
  H   H9        1.0  0.8208183627997129  0.6148360234131901  0.9453303422648318  1.0000
  H   H10       1.0  0.8008854822714753  0.613379158772908  0.16228111899233985  1.0000
  H   H11       1.0  0.20532224029116722  0.734168079659739  0.47199919587959027  1.0000
  H   H12       1.0  0.1913961208748205  0.8275131377323819  0.3867590604915139  1.0000
  H   H13       1.0  0.03753784299313879  0.3014467989892395  0.5120445401527363  1.0000
  H   H14       1.0  0.9755943464670694  0.19569641457866996  0.5074066275468637  1.0000
  H   H15       1.0  0.07049902916642033  0.7095360260135382  0.6963240561757544  1.0000
  H   H16       1.0  0.01884845088047632  0.8107559973451617  0.800498247052218  1.0000
  H   H17       1.0  0.9051227905166428  0.4748232758079142  0.27953932215049804  1.0000
  H   H18       1.0  0.014020780057663319  0.49030361959675883  0.18394716481838466  1.0000
  C   C1        1.0  0.5086028610417371  0.5765856717911648  0.6500517342998152  1.0000
  C   C2        1.0  0.5133888704147651  0.5726749722380334  0.42362455255221226  1.0000
  C   C3        1.0  0.49603064839566  0.35175706659851613  0.42882155317325743  1.0000
  C   C4        1.0  0.5137002962664922  0.7839455027540156  0.06514299963369312  1.0000
  C   C5        1.0  0.5117094121537703  0.8849145894746332  0.11774248137637504  1.0000
  C   C6        1.0  0.501160691565822  0.935113100705415  0.21832503870686543  1.0000
  C   C7        1.0  0.4943348798854572  0.882149868448231  0.26649521277119004  1.0000
  C   C8        1.0  0.49761301675787445  0.7811286538805506  0.21599230821138368  1.0000
  C   C9        1.0  0.5053796214781342  0.7331130554450385  0.11541445271020492  1.0000
  C   C10       1.0  0.6667352697212934  0.19562511731797375  0.28823301493058306  1.0000
  C   C11       1.0  0.6692179162531816  0.0954054549050767  0.2363957754983872  1.0000
  C   C12       1.0  0.5005346889671786  0.04165910032471489  0.27210433269063833  1.0000
  C   C13       1.0  0.32863994430820037  0.09060130022255924  0.3592599046281464  1.0000
  C   C14       1.0  0.3164879692472127  0.19158462905040352  0.4114403940986193  1.0000
  C   C15       1.0  0.4930846951431534  0.24407476804673683  0.3749843826618431  1.0000
  C   C16       1.0  0.35616078051161537  0.7689912174745859  0.9082797920598935  1.0000
  C   C17       1.0  0.344498774161039  0.7197974289943052  0.8076117998465976  1.0000
  C   C18       1.0  0.5104431844149814  0.6311464210432691  0.7573284783173833  1.0000
  C   C19       1.0  0.6771174550062041  0.5941820888500616  0.8075977208262515  1.0000
  C   C20       1.0  0.6795126853230115  0.6430763613673278  0.9074783805156201  1.0000
  C   C21       1.0  0.5178691207415013  0.7316491143084534  0.9590323089181042  1.0000
  C   C22       1.0  0.6634426479610908  0.6393987127738754  0.22952715919819155  1.0000
  C   C23       1.0  0.6806028136518164  0.5861916830237632  0.2776539702445503  1.0000
  C   C24       1.0  0.5123257629734113  0.6221744172620023  0.3675049384540757  1.0000
  C   C25       1.0  0.33827545756196287  0.7091232871039498  0.4043645559686056  1.0000
  C   C26       1.0  0.33406815733800954  0.7616592697493945  0.35732467209062707  1.0000
  C   C27       1.0  0.49781551252456774  0.7265370720716506  0.2679177945752472  1.0000
  N   N1        1.0  0.1456947873391954  0.23863315676644703  0.49823090967584693  1.0000
  N   N2        1.0  0.18341214217845453  0.758858901619242  0.7589275794818635  1.0000
  N   N3        1.0  0.8429688477031902  0.4999787491016363  0.23487808549027991  1.0000
  O   O1        1.0  0.2625914513496639  0.39367574917412185  0.4114877303098936  1.0000
  O   O2        1.0  0.2681694995002246  0.5171162681068752  0.6080491560880432  1.0000
  O   O3        1.0  0.2841871126727682  0.5920289119722356  0.4869495919724828  1.0000
  O   O4        1.0  0.7317322738465464  0.3956768894169259  0.4891235286217679  1.0000
  O   O5        1.0  0.7441163042680472  0.5112292680705651  0.40762370981709506  1.0000
  O   O6        1.0  0.7483562353999175  0.5933205083966584  0.6064595470822596  1.0000
