data_image0
_chemical_formula_structural       Dy2H32C36N6O16
_chemical_formula_sum              "Dy2 H32 C36 N6 O16"
_cell_length_a       10.079442766316149
_cell_length_b       11.509205524215654
_cell_length_c       11.188967373047378
_cell_angle_alpha    120.92630407708901
_cell_angle_beta     110.59929641785693
_cell_angle_gamma    90.01469068120032

_space_group_name_H-M_alt    "P 1"
_space_group_IT_number       1

loop_
  _space_group_symop_operation_xyz
  'x, y, z'

loop_
  _atom_site_type_symbol
  _atom_site_label
  _atom_site_symmetry_multiplicity
  _atom_site_fract_x
  _atom_site_fract_y
  _atom_site_fract_z
  _atom_site_occupancy
  Dy  Dy1       1.0  0.2499339391342019  0.9847451211414225  0.9999706810841714  1.0000
  Dy  Dy2       1.0  0.7500698720646924  0.015251276450264596  2.827115481101973e-05  1.0000
  H   H1        1.0  0.38562772832705144  0.23205195501896012  0.39827064531493045  1.0000
  H   H2        1.0  0.1143257086009514  0.8337516325025408  0.6018149823983521  1.0000
  H   H3        1.0  0.6143581435062444  0.767931817254315  0.6017045610749178  1.0000
  H   H4        1.0  0.88567758704027  0.16624266434732962  0.3981818401800011  1.0000
  H   H5        1.0  0.5539946252501693  0.45566184819555394  0.6319971279708341  1.0000
  H   H6        1.0  0.9459227071986831  0.823918284223453  0.36815730631486354  1.0000
  H   H7        1.0  0.44598834388280306  0.5443187369896664  0.3679719566437711  1.0000
  H   H8        1.0  0.05408827683709921  0.17606847547936164  0.63183095057353  1.0000
  H   H9        1.0  0.22007523338414353  0.6642977637222955  0.6430747857193069  1.0000
  H   H10       1.0  0.2799147099897752  0.021165948196774302  0.3567209066100148  1.0000
  H   H11       1.0  0.7799188083154504  0.33569338108864605  0.3569130284862113  1.0000
  H   H12       1.0  0.7200932540167672  0.9788473653102803  0.6432996177257737  1.0000
  H   H13       1.0  0.03663040473448829  0.4473300385600965  0.4060389992362872  1.0000
  H   H14       1.0  0.4633850403712713  0.04118279409630791  0.5938623509848853  1.0000
  H   H15       1.0  0.9633597068820025  0.5526623596232342  0.5939553622603951  1.0000
  H   H16       1.0  0.5366145006910584  0.9588264284722996  0.4061534183799224  1.0000
  H   H17       1.0  0.15056881728070687  0.6760101537287753  0.15988138855346526  1.0000
  H   H18       1.0  0.3491339695696213  0.5164568836306672  0.8400431404075306  1.0000
  H   H19       1.0  0.8494682132415718  0.32403523417711  0.8401665003143393  1.0000
  H   H20       1.0  0.650846015486337  0.4835417673879193  0.15994763200329504  1.0000
  H   H21       1.0  0.15445448665361278  0.45293826590297215  0.15408601129006874  1.0000
  H   H22       1.0  0.34545512207180457  0.29908897811846213  0.8457276162431313  1.0000
  H   H23       1.0  0.845573522194215  0.5471049213521014  0.8459498527046209  1.0000
  H   H24       1.0  0.6545264096571729  0.700915975125568  0.15426954514957456  1.0000
  H   H25       1.0  0.47671504649013485  0.27920179884876734  0.20549193624132298  1.0000
  H   H26       1.0  0.0233281896917603  0.07357511803207471  0.7942814571224587  1.0000
  H   H27       1.0  0.5232851728128338  0.7207799595387456  0.79449482926033  1.0000
  H   H28       1.0  0.9766771436368273  0.9264231728283292  0.2057117920551406  1.0000
  H   H29       1.0  0.33886323843939437  0.26769699542916925  0.07516869534264707  1.0000
  H   H30       1.0  0.16118241684098683  0.19234082214155282  0.9245307641674573  1.0000
  H   H31       1.0  0.6611350751926466  0.7322985862968141  0.9248352515500144  1.0000
  H   H32       1.0  0.8388205274082595  0.8076650023205048  0.07547451432083813  1.0000
  C   C1        1.0  0.09041455358817528  0.19308165178529177  0.2446999090716488  1.0000
  C   C2        1.0  0.4096449242824249  0.9484170133732873  0.7553903992321337  1.0000
  C   C3        1.0  0.909571816724629  0.8069170961612147  0.75529919171089  1.0000
  C   C4        1.0  0.5903578519981565  0.051579481710632494  0.24461185091706028  1.0000
  C   C5        1.0  0.1972485476701706  0.3234634303574424  0.3864651529083715  1.0000
  C   C6        1.0  0.3027569712768781  0.9369353572725247  0.6135283219907066  1.0000
  C   C7        1.0  0.8027504230786066  0.6765348515597369  0.6135233957469381  1.0000
  C   C8        1.0  0.6972494914811022  0.0630588890585315  0.38646858344289825  1.0000
  C   C9        1.0  0.34460871346992417  0.32516075959517826  0.45041788767790786  1.0000
  C   C10       1.0  0.1553315900916772  0.8747437780085222  0.5496226620126664  1.0000
  C   C11       1.0  0.6553726730378101  0.6748220113354719  0.5495553876059773  1.0000
  C   C12       1.0  0.8446706706312312  0.12525061633358092  0.45037745847590566  1.0000
  C   C13       1.0  0.4379017247936616  0.4497617912413219  0.5793536911096241  1.0000
  C   C14       1.0  0.062047723402784485  0.8705497382663907  0.420751777608494  1.0000
  C   C15       1.0  0.5620866003470938  0.550219010360216  0.4206279267492762  1.0000
  C   C16       1.0  0.9379563862280873  0.1294435536954595  0.579246577484632  1.0000
  C   C17       1.0  0.25198545921098503  0.5667068958396372  0.5838382786158505  1.0000
  C   C18       1.0  0.2480671260011889  0.9828354386959007  0.41607941677613514  1.0000
  C   C19       1.0  0.7480073361138578  0.43327916208804845  0.41615101365577084  1.0000
  C   C20       1.0  0.751934518913309  0.017173720865265796  0.5839351985423633  1.0000
  C   C21       1.0  0.15085062163316829  0.44679210390224017  0.4550289170732996  1.0000
  C   C22       1.0  0.34916540832460913  0.9917439180503752  0.5449446960469332  1.0000
  C   C23       1.0  0.8491355561676526  0.553192905709409  0.5449550633268886  1.0000
  C   C24       1.0  0.650837277177459  0.008265166014730601  0.45506752832370984  1.0000
  C   C25       1.0  0.2497619644243301  0.7417214799433794  0.9999057481506171  1.0000
  C   C26       1.0  0.7502386531777957  0.2582791791583007  9.705061515332067e-05  1.0000
  C   C27       1.0  0.24983238358628063  0.6108204914081413  0.9999328007079314  1.0000
  C   C28       1.0  0.7501882735010382  0.38918408806043914  7.566147300507843e-05  1.0000
  C   C29       1.0  0.1947544939471371  0.5939837098136778  0.09004194987371511  1.0000
  C   C30       1.0  0.3049877615601702  0.5040669567438344  0.909817552391651  1.0000
  C   C31       1.0  0.8052822570876189  0.4060562297626618  0.9099932356017035  1.0000
  C   C32       1.0  0.6949974018199255  0.49593984875764363  0.09017365885573278  1.0000
  C   C33       1.0  0.1971466012010481  0.4715558966366162  0.08673758505775458  1.0000
  C   C34       1.0  0.30273701369387856  0.3849482848550779  0.9131406438883687  1.0000
  C   C35       1.0  0.8028771189493256  0.5284697972498834  0.9132951417004733  1.0000
  C   C36       1.0  0.6972509316382229  0.615056875297725  0.08686938068784399  1.0000
  N   N1        1.0  0.39369862103295356  0.5686317572846775  0.644797424313694  1.0000
  N   N2        1.0  0.10630023118608274  0.9239395118085482  0.3552533551169361  1.0000
  N   N3        1.0  0.6062903800985991  0.4313561314686113  0.35517998038874776  1.0000
  N   N4        1.0  0.8936965149622009  0.07605400067934202  0.6447490391382543  1.0000
  N   N5        1.0  0.24993024665802469  0.3686209929263527  0.9998886393784048  1.0000
  N   N6        1.0  0.7500676191342706  0.6313986833968245  0.0001328306832916548  1.0000
  O   O1        1.0  0.1416069352930904  0.09921981318786523  0.1623130045027423  1.0000
  O   O2        1.0  0.35843968916019264  0.9368002216702678  0.8377396639371142  1.0000
  O   O3        1.0  0.8583622264712005  0.9007692955816609  0.8376587427039439  1.0000
  O   O4        1.0  0.6415624149325652  0.06318488728604883  0.16225924213706822  1.0000
  O   O5        1.0  0.9565537463010471  0.18701137132467244  0.21888741260541167  1.0000
  O   O6        1.0  0.5434946943782536  0.9683451248763931  0.7812503027870575  1.0000
  O   O7        1.0  0.043435368215647016  0.8129769573520563  0.7811081313441546  1.0000
  O   O8        1.0  0.4565132037766516  0.03164631426368911  0.21875903291289228  1.0000
  O   O9        1.0  0.1810188204533461  0.8274526730906118  0.06631669641593863  1.0000
  O   O10       1.0  0.3184388944333705  0.7611726511339398  0.9334564252834026  1.0000
  O   O11       1.0  0.8189888205778999  0.17255933708955243  0.933692333022428  1.0000
  O   O12       1.0  0.6815553284396856  0.238832188019515  0.06654469537976127  1.0000
  O   O13       1.0  0.38110375715440636  0.214500137137783  0.12019330261659893  1.0000
  O   O14       1.0  0.1190439278353992  0.09409300927852374  0.8794575501852862  1.0000
  O   O15       1.0  0.6189021957151652  0.7854920304476352  0.8798023801187396  1.0000
  O   O16       1.0  0.8809674507669738  0.9059040091943944  0.12052981157955857  1.0000
