data_image0
_chemical_formula_structural       Zn2H17C30N3O10
_chemical_formula_sum              "Zn2 H17 C30 N3 O10"
_cell_length_a       9.741283539363673
_cell_length_b       11.043997415441655
_cell_length_c       16.0862788925898
_cell_angle_alpha    85.75346334799866
_cell_angle_beta     90.51790182901192
_cell_angle_gamma    90.53048156499048

_space_group_name_H-M_alt    "P 1"
_space_group_IT_number       1

loop_
  _space_group_symop_operation_xyz
  'x, y, z'

loop_
  _atom_site_type_symbol
  _atom_site_label
  _atom_site_symmetry_multiplicity
  _atom_site_fract_x
  _atom_site_fract_y
  _atom_site_fract_z
  _atom_site_occupancy
  Zn  Zn1       1.0  0.6382259141464955  0.48898872265953497  0.50244436075144  1.0000
  Zn  Zn2       1.0  0.3537487159147332  0.4865165692034453  0.49977459546638414  1.0000
  H   H1        1.0  0.3757728503580609  0.7162746500048199  0.02469427229829791  1.0000
  H   H2        1.0  0.2589973831150801  0.5138560963290291  0.9500529382028944  1.0000
  H   H3        1.0  0.38714423290237926  0.3546394066959095  0.07458823005949002  1.0000
  H   H4        1.0  0.6212671306107823  0.3444493687449396  0.9704515753086298  1.0000
  H   H5        1.0  0.7378027677291144  0.5475410910381556  0.045157329795770806  1.0000
  H   H6        1.0  0.27628637804230033  0.8740194355232305  0.48810387294853547  1.0000
  H   H7        1.0  0.2764111978754115  0.09998614505902742  0.480256625289698  1.0000
  H   H8        1.0  0.8263001148704773  0.10410682316414473  0.4718215671765976  1.0000
  H   H9        1.0  0.8001158162659436  0.10272449571578333  0.5815832913145513  1.0000
  H   H10       1.0  0.8277527685663132  0.8750917592065194  0.4831157223358958  1.0000
  H   H11       1.0  0.7970658276543929  0.8744521893048118  0.5922849539025137  1.0000
  H   H12       1.0  0.12632619072169862  0.37614465531338237  0.6122778678772535  1.0000
  H   H13       1.0  0.8669185537595325  0.37861502158089183  0.6134927575278368  1.0000
  H   H14       1.0  0.8618220292710743  0.5849947178575263  0.3124685065790446  1.0000
  H   H15       1.0  0.8664250047875869  0.7159290502491019  0.3709952699198454  1.0000
  H   H16       1.0  0.1243398491575576  0.5835310194742365  0.3114323012286491  1.0000
  H   H17       1.0  0.1277900983622544  0.7140175152785915  0.37038415679620584  1.0000
  C   C1        1.0  0.49361039921678446  0.7222706429304894  0.5083653152534  1.0000
  C   C2        1.0  0.4979944876113436  0.5265151285810604  0.3365848953942745  1.0000
  C   C3        1.0  0.4935117274754361  0.2537708309690744  0.4943845867523893  1.0000
  C   C4        1.0  0.49850654627469737  0.4681186377953068  0.665264562351446  1.0000
  C   C5        1.0  0.5586713230279869  0.6255917009487677  0.9593775224318223  1.0000
  C   C6        1.0  0.4285566895470295  0.6322326640951346  0.013602757973394811  1.0000
  C   C7        1.0  0.4995960403865567  0.544834370410115  0.24645638196795266  1.0000
  C   C8        1.0  0.49663156851968887  0.4806911702723086  0.7542605012888759  1.0000
  C   C9        1.0  0.6311422617397254  0.537734998660021  0.02500695112257741  1.0000
  C   C10       1.0  0.5006785276735002  0.5438204760077099  0.08291154810076763  1.0000
  C   C11       1.0  0.5662738035679312  0.42621823823112237  0.9842598523884548  1.0000
  C   C12       1.0  0.4940381523889243  0.5129832475952939  0.9145719745121212  1.0000
  C   C13       1.0  0.43596358246469435  0.43172694548561463  0.0396485677839067  1.0000
  C   C14       1.0  0.3647533852651037  0.5203008276329868  0.9726294971018137  1.0000
  C   C15       1.0  0.5011542748005269  0.5508832650204241  0.1704807124488212  1.0000
  C   C16       1.0  0.4953309162678323  0.497578419571056  0.8282316528083131  1.0000
  C   C17       1.0  0.6145806045754084  0.924973527624523  0.5148552388765567  1.0000
  C   C18       1.0  0.4945125817525167  0.857201458190687  0.5064692787818715  1.0000
  C   C19       1.0  0.37237112390514676  0.924164716156511  0.49414391676892694  1.0000
  C   C20       1.0  0.3724228712232787  0.050743152645480905  0.4898142455352784  1.0000
  C   C21       1.0  0.49466488772669953  0.11870916806958585  0.49776434608424586  1.0000
  C   C22       1.0  0.6146781835245746  0.051814102570332914  0.5104574595545586  1.0000
  C   C23       1.0  0.7685145190074251  0.060737451726133415  0.5245113123603886  1.0000
  C   C24       1.0  0.7680660735810604  0.9171316864869612  0.5308303839591488  1.0000
  C   C25       1.0  0.06709538500734172  0.5454832450157243  0.4431171502082095  1.0000
  C   C26       1.0  0.06794819885121228  0.42529832483253216  0.5626834403948494  1.0000
  C   C27       1.0  0.9246861832496049  0.4266264493402191  0.5633559344459655  1.0000
  C   C28       1.0  0.9239710453154473  0.546727147158059  0.4437168710935211  1.0000
  C   C29       1.0  0.9134112374504467  0.6273553899252279  0.3639497442485721  1.0000
  C   C30       1.0  0.07695709235208878  0.6261911378605803  0.363402100292035  1.0000
  N   N1        1.0  0.1424654673830474  0.4855921051490101  0.5014025781378353  1.0000
  N   N2        1.0  0.8493859696033751  0.4882518573879935  0.5027866152861266  1.0000
  N   N3        1.0  0.6231658479085882  0.7277496250213461  0.9107902260878193  1.0000
  O   O1        1.0  0.6103982799054393  0.6708737712075531  0.5081445205386076  1.0000
  O   O2        1.0  0.377301434983238  0.668304206533314  0.5091299713334083  1.0000
  O   O3        1.0  0.6144422441983367  0.5155467653254676  0.372811164592335  1.0000
  O   O4        1.0  0.3805653355343209  0.5210771165683639  0.3707494647040833  1.0000
  O   O5        1.0  0.6100182790784883  0.307103294485252  0.4976757151136511  1.0000
  O   O6        1.0  0.3772997648577103  0.30618260078303905  0.4891373256974276  1.0000
  O   O7        1.0  0.6163357918184076  0.4688361690369832  0.6316803999791603  1.0000
  O   O8        1.0  0.3824269091042042  0.45957236085516234  0.629054804108016  1.0000
  O   O9        1.0  0.7475749241063384  0.7197891675191742  0.896368466970067  1.0000
  O   O10       1.0  0.5472725882533852  0.8121734550512869  0.8848627594101047  1.0000
