data_image0
_chemical_formula_structural       Al2H20C24N2O10
_chemical_formula_sum              "Al2 H20 C24 N2 O10"
_cell_length_a       6.6535568486887735
_cell_length_b       11.09640362103132
_cell_length_c       15.496304880676286
_cell_angle_alpha    65.62450794064341
_cell_angle_beta     73.9330329874129
_cell_angle_gamma    72.5358940807895

_space_group_name_H-M_alt    "P 1"
_space_group_IT_number       1

loop_
  _space_group_symop_operation_xyz
  'x, y, z'

loop_
  _atom_site_type_symbol
  _atom_site_label
  _atom_site_symmetry_multiplicity
  _atom_site_fract_x
  _atom_site_fract_y
  _atom_site_fract_z
  _atom_site_occupancy
  Al  Al1       1.0  0.5023592119815207  0.5017449881761493  0.5003856541072836  1.0000
  Al  Al2       1.0  0.0026643305638956076  0.5022320910918837  0.4998534586831767  1.0000
  H   H1        1.0  0.2804357241734792  0.6063371621949258  0.37946701588141013  1.0000
  H   H2        1.0  0.7262718665336082  0.3968990816877352  0.6206800193121395  1.0000
  H   H3        1.0  0.7547291553587955  0.15226568457037354  0.45260567241384564  1.0000
  H   H4        1.0  0.2507019352148562  0.8553893245999477  0.5400624972729844  1.0000
  H   H5        1.0  0.6928542592508153  0.5848175606111354  0.9290306909885119  1.0000
  H   H6        1.0  0.28104993724089417  0.373292833999905  0.0857176359494645  1.0000
  H   H7        1.0  0.5991808566881575  0.6337938830582955  0.2060893927812445  1.0000
  H   H8        1.0  0.6600367122392327  0.6334733111480233  0.04245381465194955  1.0000
  H   H9        1.0  0.41873960794664095  0.401790682918218  0.7858408753299245  1.0000
  H   H10       1.0  0.3605616496968055  0.4108873368411776  0.9465348959117891  1.0000
  H   H11       1.0  0.0023707926448894223  0.8208011329199393  0.4396692981033041  1.0000
  H   H12       1.0  0.03895354459119465  0.9781249775035475  0.423239771210767  1.0000
  H   H13       1.0  0.005255620295478995  0.1875370073131181  0.5566780492568597  1.0000
  H   H14       1.0  0.966707130144073  0.027211165321681073  0.581174686417576  1.0000
  H   H15       1.0  0.5564635136595798  0.644397563313234  0.7991642006824906  1.0000
  H   H16       1.0  0.7313694290554622  0.6909123409294085  0.6861513665146293  1.0000
  H   H17       1.0  0.6580917491433238  0.5342593275856303  0.7327292020532782  1.0000
  H   H18       1.0  0.3565996169999793  0.4271816430879838  0.26991117770747763  1.0000
  H   H19       1.0  0.2236525008627553  0.2921102792861845  0.3311147869736928  1.0000
  H   H20       1.0  0.4064175038969254  0.2987540844060773  0.22150308126026635  1.0000
  C   C1        1.0  0.8541892390952415  0.5193928691795335  0.3341436308536387  1.0000
  C   C2        1.0  0.638106864301477  0.7364799656276518  0.4868921369145625  1.0000
  C   C3        1.0  0.15032848557751066  0.48376944950787504  0.6665841077054182  1.0000
  C   C4        1.0  0.3674247737021261  0.26874915132968613  0.5104904791333668  1.0000
  C   C5        1.0  0.5761058138397813  0.8742945384492987  0.4902482961542348  1.0000
  C   C6        1.0  0.428584452312272  0.13402930699444232  0.5018564663856254  1.0000
  C   C7        1.0  0.7266792736036437  0.9578282619973919  0.46335401792629244  1.0000
  C   C8        1.0  0.27689396424917595  0.05255488770579569  0.525028067933313  1.0000
  C   C9        1.0  0.6452935078336708  0.0858904258258804  0.4710188176263372  1.0000
  C   C10       1.0  0.3589837502202045  0.9230572846214858  0.520233604226668  1.0000
  C   C11       1.0  0.09412330598440391  0.4900816822821952  0.7647524832334227  1.0000
  C   C12       1.0  0.9073091777248267  0.511510058310286  0.23653156693099936  1.0000
  C   C13       1.0  0.8855937107736056  0.5443477712363672  0.8052946623663148  1.0000
  C   C14       1.0  0.8547015711398701  0.5447008416801181  0.8982872087366758  1.0000
  C   C15       1.0  0.1045717246685314  0.43801405958083717  0.2018855807698259  1.0000
  C   C16       1.0  0.13200608597106367  0.43456129200049537  0.11004212935509376  1.0000
  C   C17       1.0  0.7501783246102252  0.578260793872765  0.17794884799591423  1.0000
  C   C18       1.0  0.7846426837140684  0.5765675508486936  0.08600236897128619  1.0000
  C   C19       1.0  0.25933990849516425  0.4420587211142575  0.8183412924734554  1.0000
  C   C20       1.0  0.22497674885980962  0.4461666835365605  0.9095071950599873  1.0000
  C   C21       1.0  0.019206185205845876  0.4975299850689154  0.9523899213546585  1.0000
  C   C22       1.0  0.9780394620765165  0.5031625270911774  0.04977027460439136  1.0000
  C   C23       1.0  0.6978104114707407  0.6063698281419933  0.7534755056442323  1.0000
  C   C24       1.0  0.2820710323936098  0.3597606257338626  0.2590743392027052  1.0000
  N   N1        1.0  0.9404014883688347  0.9205214106951659  0.4284725904166465  1.0000
  N   N2        1.0  0.05932139601363676  0.09678403433318994  0.5477886908576792  1.0000
  O   O1        1.0  0.6559491007465965  0.5426204276740947  0.3709777924059239  1.0000
  O   O2        1.0  0.8386900718653721  0.6840546650619572  0.4707229368025239  1.0000
  O   O3        1.0  0.9992018564396264  0.4999711177493964  0.6245098361434387  1.0000
  O   O4        1.0  0.516357204245715  0.3263997543431428  0.5003502105420594  1.0000
  O   O5        1.0  0.3489743530930198  0.46141543470043456  0.6299214091199304  1.0000
  O   O6        1.0  0.16691749421070776  0.32023384897585316  0.5289856893814432  1.0000
  O   O7        1.0  0.006742733468826131  0.5039823194332912  0.37510900246293494  1.0000
  O   O8        1.0  0.48919879733050214  0.6771182482455771  0.49978089349873045  1.0000
  O   O9        1.0  0.2491334109230153  0.5735980476473161  0.4492177312549472  1.0000
  O   O10       1.0  0.7565267603167599  0.42996722303048784  0.5509467963488959  1.0000
