data_image0
_chemical_formula_structural       Zn4H40C48N8O16
_chemical_formula_sum              "Zn4 H40 C48 N8 O16"
_cell_length_a       9.220496247007093
_cell_length_b       9.420042443615216
_cell_length_c       14.89370390561314
_cell_angle_alpha    94.24878138509558
_cell_angle_beta     89.99985896024151
_cell_angle_gamma    90.00002845803185

_space_group_name_H-M_alt    "P 1"
_space_group_IT_number       1

loop_
  _space_group_symop_operation_xyz
  'x, y, z'

loop_
  _atom_site_type_symbol
  _atom_site_label
  _atom_site_symmetry_multiplicity
  _atom_site_fract_x
  _atom_site_fract_y
  _atom_site_fract_z
  _atom_site_occupancy
  Zn  Zn1       1.0  0.8406295545563367  0.7510445745729938  0.005126810502304101  1.0000
  Zn  Zn2       1.0  0.6593681247807126  0.25104566246061205  0.5051254205047471  1.0000
  Zn  Zn3       1.0  0.159370200226725  0.2489561886686573  0.9948744787436185  1.0000
  Zn  Zn4       1.0  0.34062729184671525  0.7489572468635471  0.49487328902918654  1.0000
  H   H1        1.0  0.7276905619482716  0.6807154811342144  0.1901811809892564  1.0000
  H   H2        1.0  0.7723063457422866  0.18071553980244912  0.6901795680339617  1.0000
  H   H3        1.0  0.2723091928361256  0.3192852863866237  0.8098194370379588  1.0000
  H   H4        1.0  0.22769232450412594  0.8192831073101488  0.3098196023970631  1.0000
  H   H5        1.0  0.5474072178283791  0.7747453500815807  0.3055883552335317  1.0000
  H   H6        1.0  0.9525881936580518  0.27474225875386793  0.8055883262226473  1.0000
  H   H7        1.0  0.45259470603800617  0.2252554217187779  0.6944115915733349  1.0000
  H   H8        1.0  0.0474104765853625  0.7252542508339275  0.1944120814862202  1.0000
  H   H9        1.0  0.4057696210921264  0.9946799365579224  0.27509263665525907  1.0000
  H   H10       1.0  0.09422995380454322  0.494676733336128  0.775093148262833  1.0000
  H   H11       1.0  0.594232302772923  0.005320830963256601  0.7249079813703146  1.0000
  H   H12       1.0  0.9057687164375422  0.5053197719724808  0.22490793066474174  1.0000
  H   H13       1.0  0.4491675677735856  0.10717641381528854  0.1295726226980491  1.0000
  H   H14       1.0  0.0508367286712428  0.6071750648831085  0.6295728592291994  1.0000
  H   H15       1.0  0.5508332715508146  0.8928222247392769  0.870427890168763  1.0000
  H   H16       1.0  0.9491651951909644  0.3928246295964754  0.3704290486540033  1.0000
  H   H17       1.0  0.63792657335307  0.0006367778431481997  0.023228876577128705  1.0000
  H   H18       1.0  0.8620752457947133  0.5006387238210124  0.5232281300960508  1.0000
  H   H19       1.0  0.362073181431164  0.9993629251944682  0.9767716888702935  1.0000
  H   H20       1.0  0.1379266780691637  0.4993631039042015  0.47677321172802317  1.0000
  H   H21       1.0  0.5230804590768584  0.644935592451347  0.004924917719336016  1.0000
  H   H22       1.0  0.9769204211463175  0.14493676665312444  0.5049250623244106  1.0000
  H   H23       1.0  0.47691929570721203  0.35506304610305517  0.9950755951482861  1.0000
  H   H24       1.0  0.0230782491004291  0.8550640094259165  0.495074213266193  1.0000
  H   H25       1.0  0.3322668174943715  0.5644136955551032  0.8925363567664775  1.0000
  H   H26       1.0  0.1677320731229912  0.06441390068813749  0.3925351497845497  1.0000
  H   H27       1.0  0.6677340218300214  0.43558494299946204  0.1074641561003276  1.0000
  H   H28       1.0  0.8322644280444393  0.9355868796697494  0.6074634545889879  1.0000
  H   H29       1.0  0.39781350758355666  0.5516862309551199  0.7268016385263962  1.0000
  H   H30       1.0  0.10218928953897688  0.051687471547367594  0.2268019254417482  1.0000
  H   H31       1.0  0.6021873317409997  0.4483134720826669  0.2731989269202018  1.0000
  H   H32       1.0  0.8978104652470831  0.9483154292190932  0.7731981265263315  1.0000
  H   H33       1.0  0.6494226272731467  0.6170995982336722  0.6836360281509712  1.0000
  H   H34       1.0  0.8505796970602261  0.11710092494154617  0.18363459790949582  1.0000
  H   H35       1.0  0.3505792965900767  0.3828979715586626  0.3163651033539452  1.0000
  H   H36       1.0  0.14942005772785194  0.8828977264504088  0.8163639013020045  1.0000
  H   H37       1.0  0.828577619288353  0.6893591228045963  0.8055863067725966  1.0000
  H   H38       1.0  0.6714253409107583  0.1893603892942011  0.3055858180206101  1.0000
  H   H39       1.0  0.1714232200347041  0.3106395114707894  0.19441487731292986  1.0000
  H   H40       1.0  0.32857441387748304  0.8106393265809756  0.694412733770676  1.0000
  C   C1        1.0  0.6635053400710474  0.7752571128708186  0.18022129201356307  1.0000
  C   C2        1.0  0.8364916549398345  0.2752561270969806  0.6802195296492854  1.0000
  C   C3        1.0  0.3364944147143589  0.22474152996277036  0.8197785496353588  1.0000
  C   C4        1.0  0.16350701530524248  0.7247425157364378  0.3197803120004465  1.0000
  C   C5        1.0  0.562994367681874  0.8285191421552726  0.24388455145125928  1.0000
  C   C6        1.0  0.9370024009364073  0.32851816636892284  0.7438859935509612  1.0000
  C   C7        1.0  0.43700538710636744  0.1714805737199043  0.7561140003400267  1.0000
  C   C8        1.0  0.0629962693048256  0.6714815281101566  0.2561159143346998  1.0000
  C   C9        1.0  0.4839835018040546  0.9496511785085675  0.2261120202277596  1.0000
  C   C10       1.0  0.0160129916149643  0.4496501183439818  0.7261067140214478  1.0000
  C   C11       1.0  0.5160140838898498  0.0503463656079717  0.7738931385926833  1.0000
  C   C12       1.0  0.9839878477104378  0.5503463955233342  0.273893022467071  1.0000
  C   C13       1.0  0.5094451781590195  0.013397398949322802  0.14601389833018893  1.0000
  C   C14       1.0  0.9905594125917219  0.5133940455116885  0.6460153799972872  1.0000
  C   C15       1.0  0.4905556611698785  0.9866044458924605  0.853984758619859  1.0000
  C   C16       1.0  0.0094435958121508  0.4866056532472526  0.3539858566663908  1.0000
  C   C17       1.0  0.6126384616191415  0.9541563548177548  0.08632718221318211  1.0000
  C   C18       1.0  0.887364419871808  0.45415750961470996  0.5863261194855482  1.0000
  C   C19       1.0  0.3873634622457374  0.0458433482202025  0.9136733832325987  1.0000
  C   C20       1.0  0.11263858853222788  0.5458432536274457  0.4136751697579228  1.0000
  C   C21       1.0  0.5465545707967719  0.6357726810805886  0.932933200838562  1.0000
  C   C22       1.0  0.9534446021484583  0.1357740356282093  0.4329322866325498  1.0000
  C   C23       1.0  0.4534451839844563  0.3642248844322181  0.0670686018866959  1.0000
  C   C24       1.0  0.04655081447613439  0.8642278006543549  0.5670677127590125  1.0000
  C   C25       1.0  0.44062871573549234  0.5923441123541621  0.8701217485793293  1.0000
  C   C26       1.0  0.059371362680117584  0.092347472823036  0.37012153402815784  1.0000
  C   C27       1.0  0.5593732081304025  0.407653465996539  0.1298780404881654  1.0000
  C   C28       1.0  0.9406262230279694  0.9076554365014574  0.6298771755041416  1.0000
  C   C29       1.0  0.4768525421561306  0.584490474075409  0.7788550604367543  1.0000
  C   C30       1.0  0.023147895366619795  0.0844906383425652  0.27885340035538775  1.0000
  C   C31       1.0  0.523147212626597  0.4155081601997992  0.2211461236495822  1.0000
  C   C32       1.0  0.9768507748816262  0.915511206498884  0.7211452565963015  1.0000
  C   C33       1.0  0.6174198719603154  0.6203057493315995  0.7541220201306089  1.0000
  C   C34       1.0  0.8825821735876858  0.12030388402391881  0.2541217263083837  1.0000
  C   C35       1.0  0.38258313644489306  0.3796939537065214  0.2458785453143619  1.0000
  C   C36       1.0  0.11741649665872697  0.8796947630886861  0.745877444122641  1.0000
  C   C37       1.0  0.7171855289811901  0.6615478117226842  0.8211770136849736  1.0000
  C   C38       1.0  0.7828151860860686  0.16154911727208804  0.3211756856710791  1.0000
  C   C39       1.0  0.2828153103391955  0.33845081399432797  0.17882551283796744  1.0000
  C   C40       1.0  0.2171823996203557  0.8384516588067824  0.6788235899203414  1.0000
  C   C41       1.0  0.04306749103992049  0.5228259060051955  0.9583746861907159  1.0000
  C   C42       1.0  0.4569343703111953  0.0228336656580979  0.4583713973260047  1.0000
  C   C43       1.0  0.9569355173617919  0.4771684660584654  0.0416269587927118  1.0000
  C   C44       1.0  0.543063215404878  0.9771777809280806  0.5416243767510592  1.0000
  C   C45       1.0  0.9546658049176384  0.020363994450953302  0.9583415671411117  1.0000
  C   C46       1.0  0.5453408005006466  0.520358560707578  0.458342521076908  1.0000
  C   C47       1.0  0.0453382880313882  0.9796410395618127  0.041657918764563824  1.0000
  C   C48       1.0  0.4546665460652122  0.47963688439834573  0.5416578340456226  1.0000
  N   N1        1.0  0.6823629350629686  0.669789018785842  0.9092742231411536  1.0000
  N   N2        1.0  0.8176374337008311  0.16979139113301037  0.4092742376117542  1.0000
  N   N3        1.0  0.3176379042612609  0.3302085552855019  0.0907262371458657  1.0000
  N   N4        1.0  0.182360152005586  0.83020938494586  0.5907250379796736  1.0000
  N   N5        1.0  0.6877504088627262  0.8360678183749429  0.1025573738318357  1.0000
  N   N6        1.0  0.8122512639432813  0.33606788523560743  0.6025563718383751  1.0000
  N   N7        1.0  0.31224934592300707  0.163932953425082  0.8974425729766652  1.0000
  N   N8        1.0  0.18775065992310397  0.6639328865647515  0.3974435749684844  1.0000
  O   O1        1.0  0.8541693294964005  0.9353574870814118  0.9312277772981402  1.0000
  O   O2        1.0  0.6458310859233407  0.43536194330873457  0.4312268136761119  1.0000
  O   O3        1.0  0.14583042528884246  0.06464009126895578  0.0687720117709816  1.0000
  O   O4        1.0  0.3541697534020329  0.564643082145146  0.5687740146694438  1.0000
  O   O5        1.0  0.9877530595990862  0.13410144030248725  0.9232782877369203  1.0000
  O   O6        1.0  0.5122461509123964  0.6341055936925456  0.42327707993663916  1.0000
  O   O7        1.0  0.012247779725306898  0.8658971982520783  0.07672222512988472  1.0000
  O   O8        1.0  0.48775577296031253  0.3659015821238754  0.5767204974741204  1.0000
  O   O9        1.0  0.010777563089597198  0.6398180924675073  0.9273826322069282  1.0000
  O   O10       1.0  0.48922122694897746  0.139816264736389  0.4273815062890307  1.0000
  O   O11       1.0  0.9892221916948001  0.36018267505333057  0.0726179858202798  1.0000
  O   O12       1.0  0.5107741896831398  0.8601824037716385  0.5726143080508947  1.0000
  O   O13       1.0  0.1408453497619035  0.43771017425444114  0.9268935017359681  1.0000
  O   O14       1.0  0.35915033890387343  0.9377101951459466  0.42688887540316495  1.0000
  O   O15       1.0  0.8591533204781568  0.562290580428666  0.0731091299481932  1.0000
  O   O16       1.0  0.6408418241091027  0.06229167109041358  0.5731064254598764  1.0000
