data_image0
_chemical_formula_structural       Cu2H40C40S4N4Cl4
_chemical_formula_sum              "Cu2 H40 C40 S4 N4 Cl4"
_cell_length_a       7.930407781713419
_cell_length_b       9.955281919011169
_cell_length_c       12.863881122595878
_cell_angle_alpha    90.00011851597172
_cell_angle_beta     91.15332296676486
_cell_angle_gamma    90.00012420172152

_space_group_name_H-M_alt    "P 1"
_space_group_IT_number       1

loop_
  _space_group_symop_operation_xyz
  'x, y, z'

loop_
  _atom_site_type_symbol
  _atom_site_label
  _atom_site_symmetry_multiplicity
  _atom_site_fract_x
  _atom_site_fract_y
  _atom_site_fract_z
  _atom_site_occupancy
  Cu  Cu1       1.0  0.4999999489649413  0.5000000112501722  0.49999993042976615  1.0000
  Cu  Cu2       1.0  1.3027624988009062e-06  1.3545580586000003e-06  0.9999997108288243  1.0000
  H   H1        1.0  0.17865707360540034  0.3781659936149708  0.5585319154028954  1.0000
  H   H2        1.0  0.6786559620996898  0.12183750043774207  0.05853620274667291  1.0000
  H   H3        1.0  0.8213428130399409  0.6218350333740902  0.44146561321667843  1.0000
  H   H4        1.0  0.3213464469838528  0.8781635265535571  0.9414613525353278  1.0000
  H   H5        1.0  0.07930637269898  0.18284059138550654  0.6634664289573354  1.0000
  H   H6        1.0  0.5793057878553398  0.3171650231199195  0.16346869916948495  1.0000
  H   H7        1.0  0.9206960401465453  0.8171604356068516  0.3365319037382619  1.0000
  H   H8        1.0  0.42069662875077546  0.6828349993815978  0.8365304109388919  1.0000
  H   H9        1.0  0.2935411475061187  0.03958730043861179  0.7560103308450083  1.0000
  H   H10       1.0  0.7935422146525185  0.46041793292295113  0.2560120680769132  1.0000
  H   H11       1.0  0.7064600078836636  0.9604147310455745  0.24398876593377145  1.0000
  H   H12       1.0  0.20645894073310703  0.5395810850855512  0.7439870286994367  1.0000
  H   H13       1.0  0.6016145719079946  0.10474793891278011  0.7455344413705023  1.0000
  H   H14       1.0  0.10161572279678671  0.39525592774545265  0.2455374808224421  1.0000
  H   H15       1.0  0.3983865834817807  0.8952540925714134  0.25446465540827756  1.0000
  H   H16       1.0  0.8983854401155612  0.6047450992489586  0.7544631707827067  1.0000
  H   H17       1.0  0.8112297534964911  0.234936200959794  0.6740753713727374  1.0000
  H   H18       1.0  0.3112318070507741  0.2650658277244204  0.17407821412903965  1.0000
  H   H19       1.0  0.18877014819675253  0.7650648260335017  0.3259252669012014  1.0000
  H   H20       1.0  0.688770613320088  0.7349362037619401  0.8259216733945396  1.0000
  H   H21       1.0  0.751720867973937  0.4068820772991943  0.688090660703843  1.0000
  H   H22       1.0  0.2517199293004424  0.0931228993193116  0.18809397682312587  1.0000
  H   H23       1.0  0.24828027989327248  0.5931209586747742  0.311906881248568  1.0000
  H   H24       1.0  0.7482824948337736  0.9068801366599998  0.8119066881148601  1.0000
  H   H25       1.0  0.6218626127589815  0.17338952469728502  0.4609622826805123  1.0000
  H   H26       1.0  0.12186109746143363  0.3266099383373273  0.9609656596409909  1.0000
  H   H27       1.0  0.37813727764418564  0.8266084888171505  0.5390360233502209  1.0000
  H   H28       1.0  0.8781362968470463  0.6733951066255416  0.039038061628119215  1.0000
  H   H29       1.0  0.754650471516314  0.23039341680972567  0.36209556873377124  1.0000
  H   H30       1.0  0.25464880298783044  0.2696070138446132  0.8620996311474587  1.0000
  H   H31       1.0  0.24535319878218334  0.7696045967069979  0.6379019998770163  1.0000
  H   H32       1.0  0.7453523636961777  0.7304010445941175  0.13790179787694976  1.0000
  H   H33       1.0  0.07265229334070263  0.18116269468755772  0.3759582342917725  1.0000
  H   H34       1.0  0.5726505122401736  0.31883544797720736  0.8759640784380099  1.0000
  H   H35       1.0  0.9273513844803677  0.818834314339391  0.6240408891453841  1.0000
  H   H36       1.0  0.42734941203046634  0.681169596990003  0.12404122432070615  1.0000
  H   H37       1.0  0.7150286204127526  0.9905941431740432  0.5763359305505988  1.0000
  H   H38       1.0  0.21502744742122812  0.5094072606272775  0.07633833420546673  1.0000
  H   H39       1.0  0.28497380371316444  0.0094028658539003  0.42366473438252694  1.0000
  H   H40       1.0  0.7849737455897029  0.4905957753593668  0.9236685367100254  1.0000
  C   C1        1.0  0.26753741654908236  0.3159398668193063  0.6026917703941737  1.0000
  C   C2        1.0  0.76753647642191  0.1840649059562338  0.10269615812487842  1.0000
  C   C3        1.0  0.7324637350773389  0.684061160171936  0.3973065489702068  1.0000
  C   C4        1.0  0.23246593266301832  0.8159371255269575  0.8973013971579393  1.0000
  C   C5        1.0  0.2129716888275226  0.20640206473425585  0.6599320966296532  1.0000
  C   C6        1.0  0.712971042854207  0.2936027681998398  0.15993510624436885  1.0000
  C   C7        1.0  0.7870294665622527  0.7935999667499375  0.3400670001491265  1.0000
  C   C8        1.0  0.28703010877221413  0.7063982587914027  0.8400632131200115  1.0000
  C   C9        1.0  0.33292314651339444  0.12692181758549032  0.71140428926266  1.0000
  C   C10       1.0  0.8329239881771429  0.3730813544534257  0.21140899525542522  1.0000
  C   C11       1.0  0.6670780088763879  0.8730802138987029  0.2885948075161196  1.0000
  C   C12       1.0  0.16707717473382644  0.6269186680490861  0.7885916563489135  1.0000
  C   C13       1.0  0.5025741429773946  0.16152469322353372  0.7049783715621205  1.0000
  C   C14       1.0  0.0025751412577151  0.3384778868037941  0.20498209683188415  1.0000
  C   C15       1.0  0.4974270124123876  0.8384773382606526  0.2950207252166593  1.0000
  C   C16       1.0  0.9974272791117615  0.661523140190674  0.7950177906908923  1.0000
  C   C17       1.0  0.5488488704690014  0.27462441595567105  0.6474412978697686  1.0000
  C   C18       1.0  0.04884829980449722  0.225378088685801  0.14744560476445664  1.0000
  C   C19       1.0  0.4511535423765238  0.7253766110366798  0.35255703482582146  1.0000
  C   C20       1.0  0.9511541243283405  0.7746239428016112  0.8525550601727121  1.0000
  C   C21       1.0  0.7309314869042967  0.3151106126084641  0.641882183961002  1.0000
  C   C22       1.0  0.2309295397576037  0.18489319817280153  0.1418856347978448  1.0000
  C   C23       1.0  0.26907092970458296  0.6848914188768377  0.3581169261489948  1.0000
  C   C24       1.0  0.7690728806132584  0.8151088333135662  0.8581142527257416  1.0000
  C   C25       1.0  0.7518387495798182  0.20346510739147308  0.44459338733427256  1.0000
  C   C26       1.0  0.25183715521342986  0.29653453737650176  0.9445974931892497  1.0000
  C   C27       1.0  0.24816366325878655  0.7965308971414088  0.5554049453572676  1.0000
  C   C28       1.0  0.7481627577712829  0.7034705075875395  0.055405477328697814  1.0000
  C   C29       1.0  0.8785371368589808  0.0975626791204434  0.4723057027635066  1.0000
  C   C30       1.0  0.37853710666496454  0.4024382655964446  0.9723123250379191  1.0000
  C   C31       1.0  0.12146527221902663  0.902434329903272  0.5276918525152541  1.0000
  C   C32       1.0  0.6214628213704216  0.5975687883556162  0.027693755136013503  1.0000
  C   C33       1.0  0.039431470390916004  0.1006265958134165  0.42925281337090143  1.0000
  C   C34       1.0  0.5394299110961073  0.3993726379411556  0.9292587874423506  1.0000
  C   C35       1.0  0.9605709424476957  0.8993694087194586  0.5707455193206458  1.0000
  C   C36       1.0  0.46056875572017475  0.6006344160097896  0.07074727940036503  1.0000
  C   C37       1.0  0.8407282189587023  0.995935091506141  0.5435627573720155  1.0000
  C   C38       1.0  0.34072703878181454  0.504066442150119  0.04356670723792183  1.0000
  C   C39       1.0  0.1592741938799094  0.004060913026734201  0.45643557531952456  1.0000
  C   C40       1.0  0.6592728930141619  0.49593960731110104  0.9564401503487904  1.0000
  S   S1        1.0  0.7950864297990422  0.36115439277185146  0.512604430110919  1.0000
  S   S2        1.0  0.29508183716261277  0.13884616589379561  0.012608557416470505  1.0000
  S   S3        1.0  0.20491598304232642  0.6388436207448153  0.4873939025822482  1.0000
  S   S4        1.0  0.704918060772812  0.8611578745741253  0.9873913034463019  1.0000
  N   N1        1.0  0.43158649270007043  0.3493222803224327  0.5965533475836795  1.0000
  N   N2        1.0  0.931585460632107  0.15068075218285065  0.09655768145901793  1.0000
  N   N3        1.0  0.5684146589263507  0.6506787466688096  0.4034449717807008  1.0000
  N   N4        1.0  0.0684182209578523  0.8493212793046253  0.9034422193957784  1.0000
  Cl  Cl1       1.0  0.3994120055453934  0.36940875376682675  0.3581005634753822  1.0000
  Cl  Cl2       1.0  0.8994122096287855  0.13059191785804097  0.8581022435314126  1.0000
  Cl  Cl3       1.0  0.6005891498416249  0.6305912687335677  0.6418985333017775  1.0000
  Cl  Cl4       1.0  0.1005902032167398  0.8694091091343167  0.14189608916418456  1.0000
