data_image0
_chemical_formula_structural       U2H12C16O14
_chemical_formula_sum              "U2 H12 C16 O14"
_cell_length_a       6.696765377812809
_cell_length_b       7.836647922148158
_cell_length_c       10.496541306087178
_cell_angle_alpha    96.48323901157522
_cell_angle_beta     106.90260730809277
_cell_angle_gamma    102.25141745741924

_space_group_name_H-M_alt    "P 1"
_space_group_IT_number       1

loop_
  _space_group_symop_operation_xyz
  'x, y, z'

loop_
  _atom_site_type_symbol
  _atom_site_label
  _atom_site_symmetry_multiplicity
  _atom_site_fract_x
  _atom_site_fract_y
  _atom_site_fract_z
  _atom_site_occupancy
  U   U1        1.0  0.21975327220761903  0.08041743926116847  0.2857782798877152  1.0000
  U   U2        1.0  0.7802503091421543  0.9195892486305582  0.7142221445672233  1.0000
  H   H1        1.0  0.48926802203295233  0.18745616586896569  0.5814968943208001  1.0000
  H   H2        1.0  0.5107344878420222  0.8125465982284085  0.41850497045572865  1.0000
  H   H3        1.0  0.25199548101939945  0.0943799921149804  0.5737806240377877  1.0000
  H   H4        1.0  0.7480066096496928  0.9056214431811398  0.4262210735282749  1.0000
  H   H5        1.0  0.7352885367128296  0.496117497902155  0.3715705904800258  1.0000
  H   H6        1.0  0.2647187117581069  0.503882372521126  0.6284250938843741  1.0000
  H   H7        1.0  0.7457023611724621  0.7250391910289834  0.22794444985444065  1.0000
  H   H8        1.0  0.2542832204139742  0.2749502250190901  0.7720509281992277  1.0000
  H   H9        1.0  0.7572733331166647  0.64934713463132  0.9941653350322567  1.0000
  H   H10       1.0  0.24270598014100395  0.3506528433206597  0.0058270415091712  1.0000
  H   H11       1.0  0.7577180598398671  0.3423763706377444  0.904960733215695  1.0000
  H   H12       1.0  0.24228300627460447  0.6576223444464662  0.09503868797641958  1.0000
  C   C1        1.0  0.7661503221256324  0.2492202942256014  0.09120332457782608  1.0000
  C   C2        1.0  0.23385182942845267  0.7507688874129246  0.9087888424387316  1.0000
  C   C3        1.0  0.7626467014635525  0.2933631918742776  0.2249001828016191  1.0000
  C   C4        1.0  0.23735383207861102  0.7066382476565067  0.7751012770533592  1.0000
  C   C5        1.0  0.7479507113157595  0.4636270700178287  0.27095970034473976  1.0000
  C   C6        1.0  0.25205567844841437  0.5363742273554806  0.7290388264485586  1.0000
  C   C7        1.0  0.7511035027822289  0.5919766373460362  0.18947024366958937  1.0000
  C   C8        1.0  0.24889361699680282  0.4080288012925095  0.810531004683554  1.0000
  C   C9        1.0  0.7570500196658615  0.5495823524225542  0.05836581908199176  1.0000
  C   C10       1.0  0.2429325001481502  0.45041527250461394  0.9416364082256762  1.0000
  C   C11       1.0  0.7582939282851698  0.37782723488997755  0.008493659838912038  1.0000
  C   C12       1.0  0.2417056471486134  0.6221662275986334  0.9915070344643265  1.0000
  C   C13       1.0  0.7810551092603861  0.0730744392381553  0.03091214763716012  1.0000
  C   C14       1.0  0.21894740061458148  0.9269283248592188  0.9690897171393684  1.0000
  C   C15       1.0  0.7557554846740899  0.1658198924737704  0.32018214082199137  1.0000
  C   C16       1.0  0.24424576758323016  0.8341788852198421  0.6798192223231253  1.0000
  O   O1        1.0  0.23676218148961678  0.3040124226358429  0.2560513343069601  1.0000
  O   O2        1.0  0.7632339192960346  0.6959972926181166  0.7439586790439491  1.0000
  O   O3        1.0  0.21254291087223717  0.8588250402439782  0.32332748155658914  1.0000
  O   O4        1.0  0.787470944722294  0.14118431114695795  0.6766756745622826  1.0000
  O   O5        1.0  0.8958593960289107  0.9859414437347097  0.10347153356945428  1.0000
  O   O6        1.0  0.1041432272124823  0.014057267114836194  0.8965281253337452  1.0000
  O   O7        1.0  0.6829602159640159  0.01576579053708829  0.9044784365340276  1.0000
  O   O8        1.0  0.3170427529379012  0.9842277573962904  0.0955256461208833  1.0000
  O   O9        1.0  0.901555493578755  0.08310039330105211  0.3585844129973096  1.0000
  O   O10       1.0  0.09844929213830515  0.9168997047244787  0.6414175927804492  1.0000
  O   O11       1.0  0.5974750695721411  0.14451052236848475  0.3665852587017468  1.0000
  O   O12       1.0  0.4025230019850811  0.8554935206247408  0.6334141181990063  1.0000
  O   O13       1.0  0.3367611181864945  0.18419245244540147  0.5368602465758342  1.0000
  O   O14       1.0  0.663240859116172  0.8158130360985537  0.46314365686355785  1.0000
