data_image0
_chemical_formula_structural       Zn2H22C34N6O8F6
_chemical_formula_sum              "Zn2 H22 C34 N6 O8 F6"
_cell_length_a       11.22608018820713
_cell_length_b       16.084780461981495
_cell_length_c       17.241329363229315
_cell_angle_alpha    84.61231710976617
_cell_angle_beta     87.10070233222123
_cell_angle_gamma    89.55024160897389

_space_group_name_H-M_alt    "P 1"
_space_group_IT_number       1

loop_
  _space_group_symop_operation_xyz
  'x, y, z'

loop_
  _atom_site_type_symbol
  _atom_site_label
  _atom_site_symmetry_multiplicity
  _atom_site_fract_x
  _atom_site_fract_y
  _atom_site_fract_z
  _atom_site_occupancy
  Zn  Zn1       1.0  0.49901257240254887  0.5878307281129054  0.5003179445867545  1.0000
  Zn  Zn2       1.0  0.4990159981068485  0.41268895490425456  0.5039147090139406  1.0000
  H   H1        1.0  0.1180958416743607  0.3758697009653956  0.5058904590781239  1.0000
  H   H2        1.0  0.4017075504183154  0.5861119178741064  0.8945154267699422  1.0000
  H   H3        1.0  0.41105947172022184  0.645357277807392  0.10686952708736187  1.0000
  H   H4        1.0  0.4156524743636608  0.6384392285934763  0.25364996489771136  1.0000
  H   H5        1.0  0.7861053020850336  0.6933863961193438  0.4958244406436307  1.0000
  H   H6        1.0  0.8598810854718053  0.7057863582957892  0.4020598826687518  1.0000
  H   H7        1.0  0.8202210002610002  0.795607972169222  0.45050064871313106  1.0000
  H   H8        1.0  0.6457095741972623  0.6713733289323259  0.39005515028382115  1.0000
  H   H9        1.0  0.6769211809082735  0.7734791618693038  0.34608272977344967  1.0000
  H   H10       1.0  0.8374286677096235  0.35058911695463024  0.6825485900264567  1.0000
  H   H11       1.0  0.7738179396352932  0.45185191130688196  0.6703518201001514  1.0000
  H   H12       1.0  0.5876789106727287  0.4073867731514723  0.1096816315135101  1.0000
  H   H13       1.0  0.832704890997661  0.41499401446935  0.7610960914427665  1.0000
  H   H14       1.0  0.6732296034968785  0.3043997302732108  0.7810312914875297  1.0000
  H   H15       1.0  0.6146567036197936  0.34082982541671203  0.6903287620153691  1.0000
  H   H16       1.0  0.5878732784378613  0.3991733770131204  0.2561374490899126  1.0000
  H   H17       1.0  0.6336998223912076  0.29413724463815066  0.4145135368947663  1.0000
  H   H18       1.0  0.3563154237909743  0.7022766169305185  0.579345875648457  1.0000
  H   H19       1.0  0.32381274599188703  0.8573540417298773  0.5848800549216479  1.0000
  H   H20       1.0  0.8991056258295347  0.36581050752843686  0.516198071585343  1.0000
  H   H21       1.0  0.8938270148175531  0.5573347554269789  0.48600253798849025  1.0000
  H   H22       1.0  0.39534985570479364  0.5889949532876884  0.7487457798442421  1.0000
  C   C1        1.0  0.5001176654334857  0.5118145203312353  0.3503729248839846  1.0000
  C   C2        1.0  0.5132067972103583  0.48380124268604147  0.7407130575839956  1.0000
  C   C3        1.0  0.5840199112234572  0.42226675373218103  0.7801516965809085  1.0000
  C   C4        1.0  0.7312068148742129  0.48408693323224117  0.4969169346813089  1.0000
  C   C5        1.0  0.5873776734169455  0.4245702494524791  0.860908325695128  1.0000
  C   C6        1.0  0.4232084560748887  0.23077878273792146  0.5447640459651453  1.0000
  C   C7        1.0  0.4261615178157356  0.1439424289545883  0.5436658618219496  1.0000
  C   C8        1.0  0.5106995993059159  0.10813744812778477  0.49379506274420487  1.0000
  C   C9        1.0  0.586055491053031  0.1646000390194899  0.4469803972737836  1.0000
  C   C10       1.0  0.5764361720435645  0.2499249260749039  0.4503408923823002  1.0000
  C   C11       1.0  0.5612869320756815  0.8553580586004584  0.4558853457473333  1.0000
  C   C12       1.0  0.5500768112348312  0.4529469439185333  0.22266708986624204  1.0000
  C   C13       1.0  0.5736101516202156  0.7688448063180927  0.4529902981402357  1.0000
  C   C14       1.0  0.4718934455366154  0.8894198675058932  0.5034138413324739  1.0000
  C   C15       1.0  0.41315983418920865  0.7482489186596907  0.5453098956507318  1.0000
  C   C16       1.0  0.5045075996759821  0.49130943039963176  0.6536459508158997  1.0000
  C   C17       1.0  0.39545933430848396  0.833115462019542  0.5483371968634003  1.0000
  C   C18       1.0  0.2671760074377972  0.5023031798198117  0.509528483920981  1.0000
  C   C19       1.0  0.0662754597041584  0.43329543312617597  0.5079431539640709  1.0000
  C   C20       1.0  0.1340176213717044  0.5017815788250175  0.5113887818593098  1.0000
  C   C21       1.0  0.9380306888853341  0.4283125105451687  0.5075263529259502  1.0000
  C   C22       1.0  0.8619922888791154  0.49340166075131  0.49606807744739007  1.0000
  C   C23       1.0  0.5498522151145836  0.45707075620596516  0.1420845130810875  1.0000
  C   C24       1.0  0.5013751443963628  0.518194110199495  0.2631995866404253  1.0000
  C   C25       1.0  0.6705478003556351  0.7344890210608241  0.40198714029845206  1.0000
  C   C26       1.0  0.7915241325594663  0.7326443867332557  0.44022333047330875  1.0000
  C   C27       1.0  0.6609062455025523  0.360012176920577  0.740134287068372  1.0000
  C   C28       1.0  0.7833118980238469  0.3965679945209004  0.7120516988032008  1.0000
  C   C29       1.0  0.4984628969931393  0.5267333380283715  0.10041430600741559  1.0000
  C   C30       1.0  0.4503616621571354  0.5922559881222754  0.14061058419186168  1.0000
  C   C31       1.0  0.4526872444651318  0.5882792421796806  0.22149312805044022  1.0000
  C   C32       1.0  0.452466510416066  0.5418606262798846  0.8618085625471108  1.0000
  C   C33       1.0  0.44875834800119924  0.5426578231705576  0.7817452790503125  1.0000
  C   C34       1.0  0.5238003449228401  0.48257728702640174  0.9033573121344532  1.0000
  N   N1        1.0  0.4897025487676529  0.5358405073897076  0.018584022546342303  1.0000
  N   N2        1.0  0.5354024001080759  0.47578802600209963  0.9843184721850662  1.0000
  N   N3        1.0  0.4950574684081915  0.28156305627572914  0.4999263449318149  1.0000
  N   N4        1.0  0.5349772356275084  0.022653458572143795  0.49147667889726415  1.0000
  N   N5        1.0  0.44581521451381445  0.9750654728190112  0.505696871381005  1.0000
  N   N6        1.0  0.4994141559086244  0.7172306876459089  0.49855504518671984  1.0000
  O   O1        1.0  0.4773504860138403  0.5782374995589947  0.3834947936935719  1.0000
  O   O2        1.0  0.5214618946662881  0.44015177392299165  0.385329019276881  1.0000
  O   O3        1.0  0.6737436047843418  0.5531756240880198  0.487484055303355  1.0000
  O   O4        1.0  0.6840049147714568  0.4117140495968671  0.5071050035047406  1.0000
  O   O5        1.0  0.5112939253770249  0.5649925678843246  0.6197766515704757  1.0000
  O   O6        1.0  0.48932292846873077  0.42473520487243377  0.6207270694091491  1.0000
  O   O7        1.0  0.31634318495553526  0.5710079400722563  0.5196440565166753  1.0000
  O   O8        1.0  0.31852663747674376  0.4336616920168764  0.49708071423604133  1.0000
  F   F1        1.0  0.6579710024358931  0.3679925734032849  0.9005993426051687  1.0000
  F   F2        1.0  0.6348597656476754  0.9053534041394753  0.4083011085424317  1.0000
  F   F3        1.0  0.6679534502744389  0.13413453047622434  0.3973020524696267  1.0000
  F   F4        1.0  0.3519745474489255  0.09728798232791291  0.5928902116778899  1.0000
  F   F5        1.0  0.08360804307221771  0.5781772321163815  0.5171792557197747  1.0000
  F   F6        1.0  0.34401039354852964  0.26456609072009474  0.5932539395364245  1.0000
