data_image0
_chemical_formula_structural       Cu4H24C32S8N16Cl6
_chemical_formula_sum              "Cu4 H24 C32 S8 N16 Cl6"
_cell_length_a       9.856120028583183
_cell_length_b       11.149169847940415
_cell_length_c       12.688614671790818
_cell_angle_alpha    64.33962526174345
_cell_angle_beta     69.7696597551106
_cell_angle_gamma    86.26248205244426

_space_group_name_H-M_alt    "P 1"
_space_group_IT_number       1

loop_
  _space_group_symop_operation_xyz
  'x, y, z'

loop_
  _atom_site_type_symbol
  _atom_site_label
  _atom_site_symmetry_multiplicity
  _atom_site_fract_x
  _atom_site_fract_y
  _atom_site_fract_z
  _atom_site_occupancy
  Cu  Cu1       1.0  0.1354874486191235  0.1100563771247565  0.12125553507469533  1.0000
  Cu  Cu2       1.0  0.864526464477308  0.8899542085873052  0.8787398302589507  1.0000
  Cu  Cu3       1.0  0.547757241459145  0.45267115348556064  0.6100316278568487  1.0000
  Cu  Cu4       1.0  0.45226025782845636  0.5473324436461766  0.3899670129458244  1.0000
  H   H1        1.0  0.6921120147494264  0.9845925553074077  0.608699377005529  1.0000
  H   H2        1.0  0.307895376113045  0.015438010885873198  0.3912783105542915  1.0000
  H   H3        1.0  0.8581209970973235  0.1996020886908667  0.4994407421012141  1.0000
  H   H4        1.0  0.14188063759967662  0.8004354588095879  0.5005374056441099  1.0000
  H   H5        1.0  0.05087608255971081  0.24521877804594538  0.28982949235247457  1.0000
  H   H6        1.0  0.9491297779222735  0.7547867926761922  0.7101486558051917  1.0000
  H   H7        1.0  0.5152776371068911  0.18147679528988184  0.6249135720639033  1.0000
  H   H8        1.0  0.48471953006885843  0.8185287442293967  0.37508582797386947  1.0000
  H   H9        1.0  0.36760117376014984  0.9572554259408717  0.7865879153130994  1.0000
  H   H10       1.0  0.632394382602847  0.04273412406779189  0.2133833213856917  1.0000
  H   H11       1.0  0.21450007257695353  0.941974595530141  0.9983204795237698  1.0000
  H   H12       1.0  0.785505475401827  0.0580279755101003  0.0016573171187203156  1.0000
  H   H13       1.0  0.6735210591728703  0.3183181974637889  0.8094917643928241  1.0000
  H   H14       1.0  0.3264867116075011  0.6816543828062152  0.19050945621761883  1.0000
  H   H15       1.0  0.9085930817252079  0.3552790215284602  0.8372368132991567  1.0000
  H   H16       1.0  0.09139536621546543  0.6447054949688962  0.16278158564664114  1.0000
  H   H17       1.0  0.0848523177834366  0.5530244711862764  0.6635855422642934  1.0000
  H   H18       1.0  0.9151267425450484  0.44697400807638127  0.336451335156987  1.0000
  H   H19       1.0  0.4099445305413596  0.2561879835663419  0.37998344814441515  1.0000
  H   H20       1.0  0.5900228926576432  0.743812469550491  0.6200321479741149  1.0000
  H   H21       1.0  0.675546482722865  0.2618921056421613  0.2524923354406853  1.0000
  H   H22       1.0  0.3244204433314408  0.7381243394721935  0.7475259793349593  1.0000
  H   H23       1.0  0.7361345506097975  0.3135256519408074  0.02685585155174411  1.0000
  H   H24       1.0  0.2638587179519263  0.6864328823938948  0.9731774466760827  1.0000
  C   C1        1.0  0.9051672034096399  0.9504940734713968  0.36375097122184036  1.0000
  C   C2        1.0  0.094847409021142  0.049502519063864284  0.6362448015431925  1.0000
  C   C3        1.0  0.7788591355382267  0.010812467019739798  0.51853562430491  1.0000
  C   C4        1.0  0.22114190293565636  0.9892090835276974  0.48144561589928264  1.0000
  C   C5        1.0  0.8689053197145425  0.12992051164405893  0.4585860608008333  1.0000
  C   C6        1.0  0.13109001149075536  0.8700980257867524  0.541389971185204  1.0000
  C   C7        1.0  0.9756707098986652  0.1545519023722264  0.34406550185274654  1.0000
  C   C8        1.0  0.024327124186790217  0.845459643105478  0.6559148847718533  1.0000
  C   C9        1.0  0.34634049236859005  0.2561489669691284  0.8569341966505422  1.0000
  C   C10       1.0  0.653675602435058  0.7438616278625786  0.14305191242436888  1.0000
  C   C11       1.0  0.44342391962514677  0.16431989146691  0.7185640366525947  1.0000
  C   C12       1.0  0.5565900323113765  0.8356806982386403  0.28143039222382527  1.0000
  C   C13       1.0  0.3630731688696116  0.0429863963477075  0.8067156621540408  1.0000
  C   C14       1.0  0.6369287080354837  0.9570121642948807  0.19326700639744826  1.0000
  C   C15       1.0  0.27857858783362843  0.03418377287641049  0.9231802533841106  1.0000
  C   C16       1.0  0.721427570066389  0.9658247951535583  0.07680534420840252  1.0000
  C   C17       1.0  0.7555308247347341  0.40131302702696553  0.7396270400644058  1.0000
  C   C18       1.0  0.24446901487747405  0.5986665264857222  0.26038074235930964  1.0000
  C   C19       1.0  0.8836203951314378  0.42214258234193375  0.7548075181240961  1.0000
  C   C20       1.0  0.1163798371271696  0.5778409669656951  0.24521203708081885  1.0000
  C   C21       1.0  0.9807221274514221  0.5315194891357534  0.6592144421890113  1.0000
  C   C22       1.0  0.019259425411362895  0.46848199866465007  0.34081431914645327  1.0000
  C   C23       1.0  0.828489286561414  0.5871073512657502  0.549543415253723  1.0000
  C   C24       1.0  0.17151998945746527  0.4128902205186191  0.45046917462498476  1.0000
  C   C25       1.0  0.3876474826221141  0.3282868038463036  0.10990134309589919  1.0000
  C   C26       1.0  0.6123501716415377  0.6717027420927408  0.8901000702312132  1.0000
  C   C27       1.0  0.44579033543463  0.2782644126736145  0.2813315367877181  1.0000
  C   C28       1.0  0.5541857221169336  0.7217460644871707  0.7186732078008266  1.0000
  C   C29       1.0  0.5912116110478037  0.2803438807830503  0.2116333617719378  1.0000
  C   C30       1.0  0.4087614208391486  0.7196585864357274  0.7883846965338961  1.0000
  C   C31       1.0  0.62428521352453  0.30986368633925565  0.08630796907314682  1.0000
  C   C32       1.0  0.3757088514847595  0.6901228455789693  0.9137089487712373  1.0000
  S   S1        1.0  0.2390015102945782  0.3563505952285198  0.05474784644307819  1.0000
  S   S2        1.0  0.7610028426725748  0.6436409692403942  0.9452517952708277  1.0000
  S   S3        1.0  0.3366995487989398  0.40885777420243813  0.8680997859901469  1.0000
  S   S4        1.0  0.6633246947367866  0.5911378465078059  0.1318929921111405  1.0000
  S   S5        1.0  0.7767867128411937  0.6852750825295144  0.41881979259139274  1.0000
  S   S6        1.0  0.22322580640621942  0.3147224983180833  0.5811927144096813  1.0000
  S   S7        1.0  0.9469546454227641  0.8313751974325995  0.3028184217806072  1.0000
  S   S8        1.0  0.05305679721815441  0.16862238109734315  0.6971920097590356  1.0000
  N   N1        1.0  0.9931451268511824  0.06653822631853498  0.2950136919459752  1.0000
  N   N2        1.0  0.006863363874906282  0.9334513538759522  0.7049753523703474  1.0000
  N   N3        1.0  0.7972528885531532  0.9213852090536391  0.4718028718683271  1.0000
  N   N4        1.0  0.20274731798533452  0.07861834044435768  0.5281941078610544  1.0000
  N   N5        1.0  0.2700199428043534  0.14097056701482558  0.9479294133772671  1.0000
  N   N6        1.0  0.7299946271449967  0.859046023072949  0.052051670489646644  1.0000
  N   N7        1.0  0.43559653919320607  0.27102878283611176  0.7432181537863374  1.0000
  N   N8        1.0  0.5644292869721497  0.7289818394490412  0.2567669179979433  1.0000
  N   N9        1.0  0.5219494907906466  0.33320231294257496  0.03397637568696867  1.0000
  N   N10       1.0  0.4780479632485566  0.6667752323659641  0.9660383255647178  1.0000
  N   N11       1.0  0.34195932047888533  0.3026510056503966  0.23049394372890936  1.0000
  N   N12       1.0  0.6580212094136044  0.6973504882734928  0.7695075050974085  1.0000
  N   N13       1.0  0.7262469522155969  0.483999678730811  0.6366010268993991  1.0000
  N   N14       1.0  0.27376246792853454  0.5159888971168696  0.363410217921981  1.0000
  N   N15       1.0  0.9533572213398429  0.6146143802367731  0.5560754384235197  1.0000
  N   N16       1.0  0.0466443156437535  0.3853921620282819  0.44395157130341556  1.0000
  Cl  Cl1       1.0  0.29148535431303196  0.971802695969231  0.20053088830059107  1.0000
  Cl  Cl2       1.0  0.7085359246856768  0.028205912157560003  0.799460894677502  1.0000
  Cl  Cl3       1.0  0.9584906890909723  0.2021139449287404  0.03997005231566673  1.0000
  Cl  Cl4       1.0  0.041513507231137205  0.7978656257680824  0.9600223722215518  1.0000
  Cl  Cl5       1.0  0.3780165368059301  0.6016407902893094  0.567323951708964  1.0000
  Cl  Cl6       1.0  0.6219937203019938  0.3983657873991646  0.43266918761401035  1.0000
