data_image0
_chemical_formula_structural       Rb4H16C12N36O12
_chemical_formula_sum              "Rb4 H16 C12 N36 O12"
_cell_length_a       7.6461960201708115
_cell_length_b       7.535279213205707
_cell_length_c       18.148296092985085
_cell_angle_alpha    79.47879827085457
_cell_angle_beta     85.34197382107575
_cell_angle_gamma    71.12432171811966

_space_group_name_H-M_alt    "P 1"
_space_group_IT_number       1

loop_
  _space_group_symop_operation_xyz
  'x, y, z'

loop_
  _atom_site_type_symbol
  _atom_site_label
  _atom_site_symmetry_multiplicity
  _atom_site_fract_x
  _atom_site_fract_y
  _atom_site_fract_z
  _atom_site_occupancy
  Rb  Rb1       1.0  0.7081839022858459  0.1594478954573901  0.9964920116330095  1.0000
  Rb  Rb2       1.0  0.29181198667166075  0.8405535167111537  0.0035082715528816076  1.0000
  Rb  Rb3       1.0  0.3630975747982104  0.33428264671069025  0.5702967130803671  1.0000
  Rb  Rb4       1.0  0.6369057357364979  0.6657202230301708  0.42970430720538405  1.0000
  H   H1        1.0  0.4267972507500841  0.7643005318213483  0.7152772849309204  1.0000
  H   H2        1.0  0.5731999551967631  0.2357008703138632  0.28472185229681923  1.0000
  H   H3        1.0  0.2888400566365162  0.7697493920402183  0.8001870049938448  1.0000
  H   H4        1.0  0.7111584603696457  0.23025201371951454  0.1998120874620285  1.0000
  H   H5        1.0  0.9060065247113653  0.8040050382187758  0.8648814339814097  1.0000
  H   H6        1.0  0.09398848951386897  0.1959992114555433  0.13511810770082633  1.0000
  H   H7        1.0  0.7827967070969919  0.6352936706858685  0.8822290847544353  1.0000
  H   H8        1.0  0.21720049588483892  0.36470773827826974  0.11777060306644672  1.0000
  H   H9        1.0  0.9866347705999627  0.07661220671129601  0.8306600940072786  1.0000
  H   H10       1.0  0.013362429416851096  0.9233892090817692  0.1693401444067462  1.0000
  H   H11       1.0  0.025473914987450975  0.16755151556414213  0.8976886258464988  1.0000
  H   H12       1.0  0.9745210992377761  0.8324527341101771  0.1023109158357371  1.0000
  H   H13       1.0  0.7519862469251489  0.17664082982288679  0.4486498090732312  1.0000
  H   H14       1.0  0.24801575848027801  0.8233620226355995  0.5513501547980937  1.0000
  H   H15       1.0  0.8177150200397417  0.19284751179946374  0.5264238443378987  1.0000
  H   H16       1.0  0.18228655200365998  0.8071524926998067  0.47357635521579067  1.0000
  C   C1        1.0  0.32148324267335215  0.8561313410219497  0.7484961243078987  1.0000
  C   C2        1.0  0.6785148350407579  0.1438672304364133  0.2515043050166313  1.0000
  C   C3        1.0  0.15503655464656405  0.9643432687288114  0.7028307083479676  1.0000
  C   C4        1.0  0.8449597706379774  0.03566098457002911  0.29716878856240925  1.0000
  C   C5        1.0  0.9145506661295287  0.6571639260110019  0.8619637369273577  1.0000
  C   C6        1.0  0.08544348478007885  0.342838877384672  0.13803429320256563  1.0000
  C   C7        1.0  0.8879834241422485  0.6610219143655058  0.6715716683246316  1.0000
  C   C8        1.0  0.11201946741210371  0.33897381680279187  0.3284282670016766  1.0000
  C   C9        1.0  0.0725945207414397  0.5202036499218039  0.9054608356110311  1.0000
  C   C10       1.0  0.927403981883053  0.4798020464512759  0.09453957748666404  1.0000
  C   C11       1.0  0.5156850719864039  0.19398019773110783  0.7786769933009199  1.0000
  C   C12       1.0  0.4843173747892704  0.8060169692623943  0.22132394775642444  1.0000
  N   N1        1.0  0.08180420308755731  0.3409839968974354  0.9354404596385141  1.0000
  N   N2        1.0  0.9181925640106453  0.6590188274051203  0.06455858213396941  1.0000
  N   N3        1.0  0.9360136271418753  0.6347273761818855  0.7824988994056099  1.0000
  N   N4        1.0  0.06398619795858446  0.3652740400312879  0.21750069887155382  1.0000
  N   N5        1.0  0.4058751338953994  0.9828596678635295  0.7742777507995131  1.0000
  N   N6        1.0  0.5941220690864311  0.017141741100609  0.22572193702136906  1.0000
  N   N7        1.0  0.14409600446769122  0.9711921864330292  0.6285624561115031  1.0000
  N   N8        1.0  0.8559020677597998  0.028810655151900705  0.3714376420754065  1.0000
  N   N9        1.0  0.42847701688376105  0.1356544196641991  0.7319529169304959  1.0000
  N   N10       1.0  0.5715276190919238  0.8643441630878286  0.2680467379415816  1.0000
  N   N11       1.0  0.5460621277007576  0.08246120855145019  0.846297105551969  1.0000
  N   N12       1.0  0.45393595001335285  0.9175373629069199  0.1537033237725609  1.0000
  N   N13       1.0  0.8083255447192311  0.730398096017396  0.7328044103525785  1.0000
  N   N14       1.0  0.19167210259786308  0.2695976206528314  0.267195704061173  1.0000
  N   N15       1.0  0.9947638709726547  0.0686268503213512  0.7313260801884242  1.0000
  N   N16       1.0  0.005234201254829434  0.9313759912635787  0.2686740179984923  1.0000
  N   N17       1.0  0.881246873116872  0.14244031382296643  0.6730499986024512  1.0000
  N   N18       1.0  0.11875164092427329  0.8575610987656858  0.3269496444465646  1.0000
  N   N19       1.0  0.7994540599953691  0.7171731742882484  0.6000336881949623  1.0000
  N   N20       1.0  0.20055059540519685  0.2828125912551513  0.3999664094968268  1.0000
  N   N21       1.0  0.4747158268535684  0.9469736644168022  0.8431509434561808  1.0000
  N   N22       1.0  0.5252818120118972  0.05302632920891882  0.15684939041310036  1.0000
  N   N23       1.0  0.055837790662145864  0.529775647180351  0.68289964466495  1.0000
  N   N24       1.0  0.9441650835455271  0.47022438143022066  0.3171021618963153  1.0000
  N   N25       1.0  0.9699194159797241  0.0838253753500453  0.6118043112805014  1.0000
  N   N26       1.0  0.030079098061420968  0.9161760372386141  0.3881953317685216  1.0000
  N   N27       1.0  0.32754388067203877  0.40041005283347897  0.9620267895430886  1.0000
  N   N28       1.0  0.6724528834611476  0.5995927782980105  0.03797280282254431  1.0000
  N   N29       1.0  0.08628575567326639  0.5133157437779444  0.7544855097831232  1.0000
  N   N30       1.0  0.9137175548614422  0.4866871259629164  0.24551551050263504  1.0000
  N   N31       1.0  0.24381285880345865  0.26860740835908814  0.9708861939557138  1.0000
  N   N32       1.0  0.7561839053297273  0.7313954227724012  0.02911339840991901  1.0000
  N   N33       1.0  0.22295891714254873  0.560808737393934  0.9205142396734445  1.0000
  N   N34       1.0  0.7770378499556543  0.4391940869086284  0.07948480209903863  1.0000
  N   N35       1.0  0.5657620136126128  0.36582548806647  0.7584963227935619  1.0000
  N   N36       1.0  0.4342404153729758  0.6341717199005927  0.24150792182264522  1.0000
  O   O1        1.0  0.007424123837729686  0.050941664879403006  0.8854938284273643  1.0000
  O   O2        1.0  0.9925739483897608  0.9490611767055273  0.11450626975955201  1.0000
  O   O3        1.0  0.520997836985664  0.460933898491497  0.695579659024155  1.0000
  O   O4        1.0  0.4790115895535647  0.539066155070593  0.30442247427094327  1.0000
  O   O5        1.0  0.6480118466628891  0.4064701135319453  0.8055775107622554  1.0000
  O   O6        1.0  0.35198359069909174  0.593524235182237  0.1944277439887756  1.0000
  O   O7        1.0  0.7186505882839352  0.2546834366974906  0.4892439455288981  1.0000
  O   O8        1.0  0.2813518559701291  0.7453179935936448  0.510756113797683  1.0000
  O   O9        1.0  0.6427252936559354  0.8351806404251007  0.5958383166355645  1.0000
  O   O10       1.0  0.35728507655887387  0.1647951293933971  0.4041585055472653  1.0000
  O   O11       1.0  0.8882241973827828  0.6391525222474642  0.5480074682111751  1.0000
  O   O12       1.0  0.11179489064347332  0.3608247429125058  0.4519927992653764  1.0000
