data_image0
_chemical_formula_structural       Cd4H28C16Br8N4O8
_chemical_formula_sum              "Cd4 H28 C16 Br8 N4 O8"
_cell_length_a       6.593998823325347
_cell_length_b       11.12686004468115
_cell_length_c       12.989587401102616
_cell_angle_alpha    90.00509327195113
_cell_angle_beta     89.99956722409175
_cell_angle_gamma    105.3507513373502

_space_group_name_H-M_alt    "P 1"
_space_group_IT_number       1

loop_
  _space_group_symop_operation_xyz
  'x, y, z'

loop_
  _atom_site_type_symbol
  _atom_site_label
  _atom_site_symmetry_multiplicity
  _atom_site_fract_x
  _atom_site_fract_y
  _atom_site_fract_z
  _atom_site_occupancy
  Cd  Cd1       1.0  0.932081467827956  0.1435881518279487  0.5554044322822874  1.0000
  Cd  Cd2       1.0  0.06785009814960571  0.3563901789073327  0.05540758681258499  1.0000
  Cd  Cd3       1.0  0.06798498819858889  0.8564552327050594  0.4446113039289655  1.0000
  Cd  Cd4       1.0  0.9320756608939432  0.643546949074242  0.9446050780128772  1.0000
  H   H1        1.0  0.31548429891847724  0.6663476789958908  0.6919810506286268  1.0000
  H   H2        1.0  0.6845660426141932  0.8336825944521922  0.19198447132548319  1.0000
  H   H3        1.0  0.6846858308248754  0.3337122088503861  0.3080639408735806  1.0000
  H   H4        1.0  0.3152689138602796  0.1662625297146505  0.8080451266504552  1.0000
  H   H5        1.0  0.30600812147005735  0.5993469224393592  0.5648726914088086  1.0000
  H   H6        1.0  0.6940066655655528  0.9006559206918822  0.06487843931616769  1.0000
  H   H7        1.0  0.694097057031783  0.40072621366142164  0.4351645982697504  1.0000
  H   H8        1.0  0.30589738438963815  0.09927438877641491  0.9351457733726106  1.0000
  H   H9        1.0  0.633765752811371  0.43917473640050997  0.6123697067830349  1.0000
  H   H10       1.0  0.3661868662646696  0.06080320615483711  0.11240051581694387  1.0000
  H   H11       1.0  0.3663149915279007  0.5608431194874727  0.3876275563841958  1.0000
  H   H12       1.0  0.6337320660264325  0.9391753948983775  0.8876029059555391  1.0000
  H   H13       1.0  0.676867773698703  0.48724782660726623  0.7442611473162373  1.0000
  H   H14       1.0  0.323139479728674  0.0127411535004924  0.24428420392037956  1.0000
  H   H15       1.0  0.3232556329692713  0.5127754266375177  0.25573534660944114  1.0000
  H   H16       1.0  0.6767383688207006  0.9872212166918857  0.7557153692791514  1.0000
  H   H17       1.0  0.678951676895366  0.6903141273331954  0.6943367364159697  1.0000
  H   H18       1.0  0.32110207987524564  0.8096747531466164  0.19432639922410289  1.0000
  H   H19       1.0  0.32123920425706837  0.30972153877259956  0.3056597580296128  1.0000
  H   H20       1.0  0.6787323239816132  0.1902848995959729  0.805658545943423  1.0000
  H   H21       1.0  0.678324629827628  0.6451273066170414  0.5693647990233756  1.0000
  H   H22       1.0  0.32172034763144813  0.854866064251006  0.06936352430498259  1.0000
  H   H23       1.0  0.3218083158569911  0.3549083846917469  0.43063323346265747  1.0000
  H   H24       1.0  0.6781471390258103  0.14510294420613687  0.9306291192218623  1.0000
  H   H25       1.0  0.3026162001085311  0.4641802723208884  0.7713624938459844  1.0000
  H   H26       1.0  0.6974079523165314  0.03585829595511571  0.27137472114061006  1.0000
  H   H27       1.0  0.6975025516597526  0.5358426923390238  0.2286424683011674  1.0000
  H   H28       1.0  0.30249366947272455  0.964112847260857  0.7286279311342765  1.0000
  C   C1        1.0  0.2084428579703683  0.3575605879999557  0.6339417843778321  1.0000
  C   C2        1.0  0.7915138571091305  0.14246148135275402  0.13396298384564886  1.0000
  C   C3        1.0  0.7916848127855616  0.6425166681716094  0.3660269890563653  1.0000
  C   C4        1.0  0.20831953477422624  0.857488999473155  0.8660235020249303  1.0000
  C   C5        1.0  0.3457051671708342  0.469128095008088  0.689884822146567  1.0000
  C   C6        1.0  0.6542956417317497  0.030893580215043008  0.18989802253219065  1.0000
  C   C7        1.0  0.6544070544821564  0.5309208785486276  0.31012167656839296  1.0000
  C   C8        1.0  0.3455894655228916  0.969061957482253  0.8101069405787057  1.0000
  C   C9        1.0  0.5859966763872747  0.4919327813743166  0.6747238692323446  1.0000
  C   C10       1.0  0.41400012389004087  0.008059906358710095  0.1747423875239278  1.0000
  C   C11       1.0  0.4141148166842612  0.5080970155834877  0.3252749331560452  1.0000
  C   C12       1.0  0.5858872906098043  0.9919039726587757  0.8252587254725087  1.0000
  C   C13       1.0  0.3668611322744794  0.5995791380136026  0.6432517950173775  1.0000
  C   C14       1.0  0.6331724121280047  0.9004387206615334  0.1432587439723605  1.0000
  C   C15       1.0  0.633275887862602  0.40048232039922743  0.35677394917811256  1.0000
  C   C16       1.0  0.3667049504814343  0.09951087019268098  0.8567554577591279  1.0000
  Br  Br1       1.0  0.4337770028502135  0.8230649152672883  0.41205634219126347  1.0000
  Br  Br2       1.0  0.5662706190211679  0.6769370445399474  0.912075599496191  1.0000
  Br  Br3       1.0  0.5662695659733642  0.1769671993258299  0.5879293706783244  1.0000
  Br  Br4       1.0  0.4336706291421705  0.3230119810715096  0.0879339850358747  1.0000
  Br  Br5       1.0  0.9314062095136891  0.9126621207186217  0.6267631415877232  1.0000
  Br  Br6       1.0  0.06865998741867682  0.587364788781116  0.12675173722966798  1.0000
  Br  Br7       1.0  0.0686020144420141  0.0873967524034853  0.37324027365362866  1.0000
  Br  Br8       1.0  0.9313793491234605  0.41255847496737635  0.8732309083520491  1.0000
  N   N1        1.0  0.6048366129902405  0.624599050089472  0.6412033365715429  1.0000
  N   N2        1.0  0.3951990950304989  0.8753978506594818  0.141206997533132  1.0000
  N   N3        1.0  0.3953110661367917  0.37544029523571254  0.358798545158379  1.0000
  N   N4        1.0  0.60466814872931  0.12456476645250092  0.8587864165568817  1.0000
  O   O1        1.0  0.13194319091070375  0.2587367278501701  0.6857638182120451  1.0000
  O   O2        1.0  0.8680248422849457  0.24129080590252971  0.1857870464930897  1.0000
  O   O3        1.0  0.8681726337113459  0.7413197459794035  0.3141957190654097  1.0000
  O   O4        1.0  0.13179687916389324  0.7586726038687955  0.8141771120079679  1.0000
  O   O5        1.0  0.1732238342025454  0.365418852426842  0.5377366798691128  1.0000
  O   O6        1.0  0.826696897939527  0.1345925416452545  0.03774934698242299  1.0000
  O   O7        1.0  0.8269436115394342  0.6346809302158718  0.4622397906259365  1.0000
  O   O8        1.0  0.17310940157907587  0.8653316507511235  0.9622309823090374  1.0000
