data_image0
_chemical_formula_structural       Al4H28C64I8N16O36
_chemical_formula_sum              "Al4 H28 C64 I8 N16 O36"
_cell_length_a       6.613453881062791
_cell_length_b       25.648285579459323
_cell_length_c       28.11051446606318
_cell_angle_alpha    89.99989636269314
_cell_angle_beta     90.00022692403004
_cell_angle_gamma    89.99944045106535

_space_group_name_H-M_alt    "P 1"
_space_group_IT_number       1

loop_
  _space_group_symop_operation_xyz
  'x, y, z'

loop_
  _atom_site_type_symbol
  _atom_site_label
  _atom_site_symmetry_multiplicity
  _atom_site_fract_x
  _atom_site_fract_y
  _atom_site_fract_z
  _atom_site_occupancy
  Al  Al1       1.0  0.8104504886968442  0.7488570900505421  0.749999199896642  1.0000
  Al  Al2       1.0  0.18954927858854378  0.2511422787989872  0.24999815184202834  1.0000
  Al  Al3       1.0  0.31044846162028256  0.7511411700475605  0.7499993139604653  1.0000
  Al  Al4       1.0  0.689554329771113  0.2488589785799249  0.24999625908512965  1.0000
  H   H1        1.0  0.7721732002107515  0.6713651330023607  0.6234704342109936  1.0000
  H   H2        1.0  0.22784471183967267  0.3286369650567451  0.3765265617953303  1.0000
  H   H3        1.0  0.2278426443141299  0.3286298051710475  0.12346715911296258  1.0000
  H   H4        1.0  0.7721661954761816  0.6713652748848346  0.8765291254173134  1.0000
  H   H5        1.0  0.27215154101939026  0.828635152591019  0.8765287544018887  1.0000
  H   H6        1.0  0.7278406658698486  0.17136538593763356  0.12346575142197477  1.0000
  H   H7        1.0  0.727845757794732  0.1713635783527323  0.3765319131500107  1.0000
  H   H8        1.0  0.2721494733241556  0.828635010719303  0.623468284497342  1.0000
  H   H9        1.0  0.701304010406858  0.5751502809604645  0.5362401310703503  1.0000
  H   H10       1.0  0.2986851723609547  0.4248510373462225  0.4637586436167281  1.0000
  H   H11       1.0  0.2986771430837365  0.4248459978994886  0.036236407603375695  1.0000
  H   H12       1.0  0.7013029673980286  0.5751479125185455  0.9637573867426708  1.0000
  H   H13       1.0  0.20130053180645996  0.9248517049364934  0.9637600567975253  1.0000
  H   H14       1.0  0.7986962112930981  0.07514922347586149  0.03623587198329399  1.0000
  H   H15       1.0  0.7986951683421849  0.0751472449155344  0.4637613096471326  1.0000
  H   H16       1.0  0.20130308691289397  0.9248501744881564  0.5362353306148931  1.0000
  H   H17       1.0  0.4625281054103779  0.578907364958944  0.6682671239471956  1.0000
  H   H18       1.0  0.5374761980522393  0.42109434322093614  0.3317330737019048  1.0000
  H   H19       1.0  0.5374884710063697  0.4210945034188073  0.1682643472438272  1.0000
  H   H20       1.0  0.4625218808164889  0.5789036957482522  0.8317362061498769  1.0000
  H   H21       1.0  0.9625084462156436  0.921093712205881  0.8317343816626489  1.0000
  H   H22       1.0  0.0375003934756322  0.07890682630137037  0.1682651045120522  1.0000
  H   H23       1.0  0.037489632549352295  0.07890783577256137  0.3317320522759956  1.0000
  H   H24       1.0  0.9625055985491926  0.9210907533019111  0.6682656551999314  1.0000
  H   H25       1.0  0.5523100798832701  0.6808824326680212  0.7500005557884675  1.0000
  H   H26       1.0  0.4476942236627437  0.3191157665050426  0.24999999760233743  1.0000
  H   H27       1.0  0.0522943499618407  0.8191178997315447  0.7500009121341475  1.0000
  H   H28       1.0  0.9477054173736336  0.18088029944637185  0.24999928551570594  1.0000
  C   C1        1.0  0.5636001488217915  0.814194318020789  0.6865807639807997  1.0000
  C   C2        1.0  0.4364192753329448  0.18580739014407746  0.31341943367554836  1.0000
  C   C3        1.0  0.4364197510212691  0.1858075144548437  0.18657970598899  1.0000
  C   C4        1.0  0.5636057213953407  0.8141949734828768  0.8134208474083875  1.0000
  C   C5        1.0  0.06357191393604468  0.6858095009727165  0.8134207147608946  1.0000
  C   C6        1.0  0.9364021482286304  0.3141886982300335  0.1865801943541854  1.0000
  C   C7        1.0  0.9363956242607757  0.31418818403705734  0.3134184990830704  1.0000
  C   C8        1.0  0.0635602931033077  0.6858084556259811  0.6865816985470585  1.0000
  C   C9        1.0  0.8946136006019358  0.6435257288656118  0.618252895534354  1.0000
  C   C10       1.0  0.1053907027719205  0.3564787085446639  0.3817441004634929  1.0000
  C   C11       1.0  0.1053930862401415  0.3564699993215895  0.11825123523249907  1.0000
  C   C12       1.0  0.8946142414836372  0.6435254706240057  0.8817464722518265  1.0000
  C   C13       1.0  0.39460738230578585  0.8564747034045866  0.8817460547761654  1.0000
  C   C14       1.0  0.6054044814706999  0.14352739466018247  0.11825129696602937  1.0000
  C   C15       1.0  0.6053960500435523  0.14352401730654657  0.3817491425470649  1.0000
  C   C16       1.0  0.394596156975588  0.8564730122097116  0.6182514108389154  1.0000
  C   C17       1.0  0.8766659037044067  0.6061221122536722  0.5823581641966767  1.0000
  C   C18       1.0  0.1233308393495491  0.3938823251609661  0.41764203344651907  1.0000
  C   C19       1.0  0.12333717236808889  0.39387680541030085  0.0823585931101718  1.0000
  C   C20       1.0  0.8766671312226393  0.6061194443147285  0.9176419602822603  1.0000
  C   C21       1.0  0.37666309230190353  0.8938799152171271  0.9176439705499958  1.0000
  C   C22       1.0  0.6233427232536285  0.10612101318133678  0.08235693857803028  1.0000
  C   C23       1.0  0.623339414629058  0.10611678568497498  0.41764429205049675  1.0000
  C   C24       1.0  0.3766603527690151  0.8938786842656867  0.5823559056016376  1.0000
  C   C25       1.0  0.033500638972761  0.5682272455049784  0.5760508987375417  1.0000
  C   C26       1.0  0.9664885437771603  0.43177485258092213  0.4239478759488833  1.0000
  C   C27       1.0  0.9664872133624557  0.43176817553730007  0.07604460254241727  1.0000
  C   C28       1.0  0.033509529868574396  0.5682265146427312  0.923949903288509  1.0000
  C   C29       1.0  0.533501653698778  0.9317727343500831  0.9239491281986927  1.0000
  C   C30       1.0  0.46649811350634707  0.0682297536173522  0.07604715632104588  1.0000
  C   C31       1.0  0.46648885966908443  0.0682262935416844  0.42395042973090097  1.0000
  C   C32       1.0  0.5335018352426175  0.931771515757724  0.5760476334822754  1.0000
  C   C33       1.0  0.19846310027007522  0.5690536158097358  0.6085331290223478  1.0000
  C   C34       1.0  0.8015275945302848  0.4309508216081284  0.3914699145281588  1.0000
  C   C35       1.0  0.8015313309578929  0.43095031912775983  0.10852703173041077  1.0000
  C   C36       1.0  0.19846238795875587  0.5690521688470795  0.8914678298313276  1.0000
  C   C37       1.0  0.6984575738096197  0.9309475959507194  0.8914691905532093  1.0000
  C   C38       1.0  0.30153614518415855  0.0690521627951171  0.10852744970468108  1.0000
  C   C39       1.0  0.3015399690851766  0.06905266527007109  0.39146819807340444  1.0000
  C   C40       1.0  0.6984567740642477  0.9309474833592405  0.6085316438345955  1.0000
  C   C41       1.0  0.2186970085905173  0.6077586825458637  0.6435253510963789  1.0000
  C   C42       1.0  0.7813012465742375  0.3922441953081517  0.3564755580263962  1.0000
  C   C43       1.0  0.7812949704199921  0.392241284908259  0.1435196547377231  1.0000
  C   C44       1.0  0.2186972364692537  0.6077592536203936  0.8564748510861404  1.0000
  C   C45       1.0  0.7186896617516894  0.8922413193606786  0.8564741419748783  1.0000
  C   C46       1.0  0.28131464171450915  0.10775921915316641  0.14352320976499297  1.0000
  C   C47       1.0  0.2813088213309243  0.10775979023195958  0.356474488445734  1.0000
  C   C48       1.0  0.7186788493884677  0.8922407482966576  0.6435246419800434  1.0000
  C   C49       1.0  0.062118391334067304  0.6453785021033981  0.6480178696159982  1.0000
  C   C50       1.0  0.9378889361659188  0.35462710497095173  0.3519809050761964  1.0000
  C   C51       1.0  0.9378857576219275  0.35462418575522753  0.14801701082199506  1.0000
  C   C52       1.0  0.0621170337569481  0.6453775224279001  0.8519814081325022  1.0000
  C   C53       1.0  0.5621096726857999  0.8546237602575392  0.851981473282592  1.0000
  C   C54       1.0  0.4378991670204472  0.1453759984708469  0.1480176571539857  1.0000
  C   C55       1.0  0.4378978094759702  0.14537384912583207  0.3519819071490175  1.0000
  C   C56       1.0  0.5621034699613503  0.8546231803810614  0.6480190019800884  1.0000
  C   C57       1.0  0.9808103577198182  0.4679959337886146  0.4637457723814434  1.0000
  C   C58       1.0  0.019183361291624103  0.5320034350665778  0.5362519350931051  1.0000
  C   C59       1.0  0.0191853421750565  0.5320045756479956  0.9637489136537308  1.0000
  C   C60       1.0  0.9808098889650694  0.46799245386734617  0.0362495053010434  1.0000
  C   C61       1.0  0.48081942666367894  0.0320082540734319  0.0362496293630201  1.0000
  C   C62       1.0  0.5191682439045735  0.9679973530242731  0.9637452321932187  1.0000
  C   C63       1.0  0.5191768475798568  0.9679934832036917  0.5362496765950411  1.0000
  C   C64       1.0  0.48082140771121823  0.03200198675300919  0.4637458964522807  1.0000
  I   I1        1.0  0.4104869065750236  0.5073447917600689  0.6141543105854764  1.0000
  I   I2        1.0  0.5895022761746773  0.4926576962143869  0.3858455313169457  1.0000
  I   I3        1.0  0.5895061046038848  0.492652504036158  0.1141493299164225  1.0000
  I   I4        1.0  0.4104906386298239  0.5073425760320873  0.8858465988692784  1.0000
  I   I5        1.0  0.9104557762954427  0.9926571685655714  0.8858439434579065  1.0000
  I   I6        1.0  0.0895439909212996  0.0073453194004713  0.11415376401694027  1.0000
  I   I7        1.0  0.0895235297618342  0.007347002594684699  0.38584391785322225  1.0000
  I   I8        1.0  0.910470189222778  0.992653535929328  0.614153789620346  1.0000
  N   N1        1.0  0.18788985156156457  0.5087354525081836  0.5189154619166487  1.0000
  N   N2        1.0  0.8121053795045584  0.49126391634724337  0.48108046686474637  1.0000
  N   N3        1.0  0.8121076516697413  0.49125813106338256  0.018915321664465495  1.0000
  N   N4        1.0  0.18790270028189576  0.508733439983132  0.981082385824571  1.0000
  N   N5        1.0  0.6878875587421049  0.991262661139636  0.9810804442245808  1.0000
  N   N6        1.0  0.3121152326007747  0.008740996490480801  0.018919041944620598  1.0000
  N   N7        1.0  0.3121114485494871  0.008736644651968098  0.4810781395934497  1.0000
  N   N8        1.0  0.6878868067266097  0.9912596050835916  0.5189177891919953  1.0000
  N   N9        1.0  0.1672807911923613  0.47664603386266435  0.48304953970892933  1.0000
  N   N10       1.0  0.8327159519637705  0.5233525552116943  0.5169467448126212  1.0000
  N   N11       1.0  0.8327167362926743  0.5233505388408446  0.9830499182677099  1.0000
  N   N12       1.0  0.1672921035215609  0.47664337154656516  0.0169460105247623  1.0000
  N   N13       1.0  0.66728633068125  0.0233513688502143  0.0169452056033847  1.0000
  N   N14       1.0  0.332708900360501  0.9766499494508096  0.9830532133478158  1.0000
  N   N15       1.0  0.33271265230920477  0.9766465073692742  0.5169432808627121  1.0000
  N   N16       1.0  0.667290139177652  0.023349352472877193  0.483051936447687  1.0000
  O   O1        1.0  0.3905752988196626  0.8003131408178277  0.7981439300353725  1.0000
  O   O2        1.0  0.6094335408479099  0.19968817746934056  0.2018548446611277  1.0000
  O   O3        1.0  0.6094343276426812  0.19968691342892697  0.2981451492485475  1.0000
  O   O4        1.0  0.3905578793617082  0.8003105059776345  0.7018546926595518  1.0000
  O   O5        1.0  0.8905621620219933  0.6996908084840212  0.7018578623060846  1.0000
  O   O6        1.0  0.10943609310653811  0.300314408705546  0.2981451812473992  1.0000
  O   O7        1.0  0.1094383305280004  0.3003117738482715  0.20185345370957455  1.0000
  O   O8        1.0  0.8905735333473075  0.6996852556536907  0.7981417636041923  1.0000
  O   O9        1.0  0.7326877953647398  0.7971852019609641  0.7008683957061876  1.0000
  O   O10       1.0  0.26731650813677993  0.2028145567715782  0.2991310904669857  1.0000
  O   O11       1.0  0.26731570521939574  0.2028146530802672  0.2008643012428308  1.0000
  O   O12       1.0  0.732693134546551  0.7971823764212189  0.7991344734572505  1.0000
  O   O13       1.0  0.23269483647159464  0.7028151620271003  0.7991357353939178  1.0000
  O   O14       1.0  0.7673124910735539  0.2971877158220906  0.20086090486790195  1.0000
  O   O15       1.0  0.7673117819948415  0.29718683972906484  0.29913445312872255  1.0000
  O   O16       1.0  0.23268496122590676  0.7028105796719472  0.7008664559978824  1.0000
  O   O17       1.0  0.5587098032242039  0.7186214009906636  0.7500001716257215  1.0000
  O   O18       1.0  0.4412763554615253  0.2813779678695952  0.2500000260166288  1.0000
  O   O19       1.0  0.0587396545615206  0.7813793085428102  0.7500002352399021  1.0000
  O   O20       1.0  0.9412767455113596  0.2186200602870585  0.2500003181557275  1.0000
  O   O21       1.0  0.7091994209972441  0.6085961550571993  0.5548825974859211  1.0000
  O   O22       1.0  0.2907973221137254  0.39140516324232527  0.44511582146600387  1.0000
  O   O23       1.0  0.29079262161958047  0.3914004771394701  0.05487927801100769  1.0000
  O   O24       1.0  0.709201097460948  0.6085949928220843  0.9451159392953628  1.0000
  O   O25       1.0  0.2091941479277537  0.8914058151595935  0.9451172422145999  1.0000
  O   O26       1.0  0.7908101555147412  0.1085955031341683  0.0548793980470705  1.0000
  O   O27       1.0  0.790807295852865  0.10859317122810808  0.4451194988920547  1.0000
  O   O28       1.0  0.20919398355807317  0.8914042481704881  0.5548792758040761  1.0000
  O   O29       1.0  0.3738929976920531  0.6089788520277607  0.6750136422299278  1.0000
  O   O30       1.0  0.626123402243998  0.39102597525801025  0.32498548820604606  1.0000
  O   O31       1.0  0.6261146165975404  0.3910222233530404  0.1750134908906134  1.0000
  O   O32       1.0  0.37389422315364834  0.6089751960387417  0.8249845723315871  1.0000
  O   O33       1.0  0.8738836801202793  0.8910231809627757  0.824982798033801  1.0000
  O   O34       1.0  0.12612062331886156  0.1089789171084519  0.17501562092110126  1.0000
  O   O35       1.0  0.1261203366137664  0.108977990352372  0.3249822821544511  1.0000
  O   O36       1.0  0.8738764065660618  0.8910198189420767  0.6750147138452929  1.0000
