data_image0
_chemical_formula_structural       U4H40C24N8O32
_chemical_formula_sum              "U4 H40 C24 N8 O32"
_cell_length_a       6.98887816
_cell_length_b       11.1405103550715
_cell_length_c       14.4934
_cell_angle_alpha    92.03726777050159
_cell_angle_beta     90.0
_cell_angle_gamma    90.0

_space_group_name_H-M_alt    "P 1"
_space_group_IT_number       1

loop_
  _space_group_symop_operation_xyz
  'x, y, z'

loop_
  _atom_site_type_symbol
  _atom_site_label
  _atom_site_symmetry_multiplicity
  _atom_site_fract_x
  _atom_site_fract_y
  _atom_site_fract_z
  _atom_site_occupancy
  U   U1        1.0  0.45604601010815327  0.4530537765624487  0.719862655944759  1.0000
  U   U2        1.0  0.9560389875218577  0.0469521241143553  0.7801243958791062  1.0000
  U   U3        1.0  0.5439513914776839  0.5469463482863334  0.280135967528345  1.0000
  U   U4        1.0  0.0439584140639795  0.9530506953124631  0.21987706110171248  1.0000
  H   H1        1.0  0.1904153956519963  0.6594377958191445  0.7733198383164888  1.0000
  H   H2        1.0  0.6904112347553095  0.8405619423576951  0.7266767046829158  1.0000
  H   H3        1.0  0.8095820059338408  0.3405614308369636  0.2266787606130123  1.0000
  H   H4        1.0  0.3095904593649408  0.1594381824910869  0.2733232987286485  1.0000
  H   H5        1.0  0.3668542992599555  0.7225546935816993  0.7153642734517829  1.0000
  H   H6        1.0  0.8668544308976749  0.7774504337512128  0.7846310368707703  1.0000
  H   H7        1.0  0.6331459640154904  0.2774454312670827  0.2846343500213209  1.0000
  H   H8        1.0  0.1331444015329666  0.22254879290488822  0.2153675620587308  1.0000
  H   H9        1.0  0.2950401985545525  0.43251300818101174  0.489573354199841  1.0000
  H   H10       1.0  0.7950360376578658  0.067488401532394  0.010423924444431498  1.0000
  H   H11       1.0  0.7049600647208862  0.5674871166677704  0.5104245793040363  1.0000
  H   H12       1.0  0.2049613639279713  0.9325117233163882  0.9895746990286796  1.0000
  H   H13       1.0  0.8442084501870895  0.2923841719081324  0.630718522047452  1.0000
  H   H14       1.0  0.3442054568597612  0.2076154414199252  0.8692807774173018  1.0000
  H   H15       1.0  0.1557946747779653  0.7076132583626134  0.3692807177640844  1.0000
  H   H16       1.0  0.6557948064156847  0.7923855816215379  0.1307185605686314  1.0000
  H   H17       1.0  0.8144354315085067  0.46476710729236  0.9375161359772051  1.0000
  H   H18       1.0  0.3144324381811785  0.0352360988064078  0.5624832616619457  1.0000
  H   H19       1.0  0.1855676934565409  0.5352339157491031  0.06248665185486149  1.0000
  H   H20       1.0  0.685566394249463  0.9647649242350553  0.43751814623166746  1.0000
  H   H21       1.0  0.05316017699756512  0.46344406947584826  0.8948688637086661  1.0000
  H   H22       1.0  0.5531631703248934  0.0365591366229197  0.605129843961258  1.0000
  H   H23       1.0  0.9468372245882719  0.536556953565615  0.10513254418494707  1.0000
  H   H24       1.0  0.4468370929505525  0.9634427846112175  0.3948708985067313  1.0000
  H   H25       1.0  0.1633552587215235  0.24200813730053036  0.4052937821833708  1.0000
  H   H26       1.0  0.663355390359243  0.2579932724128824  0.094704876399355  1.0000
  H   H27       1.0  0.8366464353987269  0.7579919875482517  0.5947055312589596  1.0000
  H   H28       1.0  0.3366463037610004  0.7420068524358996  0.9052930571045221  1.0000
  H   H29       1.0  0.0327763619218686  0.3696619754515141  0.3697573329072413  1.0000
  H   H30       1.0  0.5327750627147836  0.1303394342618986  0.1302413256754846  1.0000
  H   H31       1.0  0.9672239013535773  0.6303372512045939  0.6302412660222599  1.0000
  H   H32       1.0  0.4672266314054596  0.8696624869722456  0.8697580368540514  1.0000
  H   H33       1.0  0.7584021181448081  0.31159561512429695  0.45482111356989197  1.0000
  H   H34       1.0  0.2583991248174797  0.18840489639643476  0.045177520469238196  1.0000
  H   H35       1.0  0.2415981451306308  0.6884054079171663  0.5451782244160484  1.0000
  H   H36       1.0  0.7415997076131617  0.8115943302596662  0.9548224583987235  1.0000
  H   H37       1.0  0.8775013470831468  0.1733673545606749  0.4750652301806468  1.0000
  H   H38       1.0  0.3775026462902318  0.3266367497307741  0.0249341920021067  1.0000
  H   H39       1.0  0.1225003470370964  0.8266318720954331  0.5249333687488544  1.0000
  H   H40       1.0  0.6224990478300185  0.6733660696960442  0.9750645051017982  1.0000
  C   C1        1.0  0.9025210993233302  0.4636551447554639  0.8742121230028133  1.0000
  C   C2        1.0  0.40252239853040817  0.036348061343304  0.6257872746363446  1.0000
  C   C3        1.0  0.0974763022625069  0.5363449800933182  0.125789950316431  1.0000
  C   C4        1.0  0.5974778647450307  0.963651165312804  0.3742133942008437  1.0000
  C   C5        1.0  0.8584553718990549  0.3463359115717637  0.8217583779112515  1.0000
  C   C6        1.0  0.3584566711061399  0.15366998910504043  0.6782390234510274  1.0000
  C   C7        1.0  0.1415448913763839  0.6536642132770183  0.178243005438766  1.0000
  C   C8        1.0  0.641543592169306  0.8463292375510605  0.3217630253246141  1.0000
  C   C9        1.0  0.8537994029073206  0.5768112548709112  0.8240171615617484  1.0000
  C   C10       1.0  0.3537978404247895  0.9231929742693197  0.6759815740633428  1.0000
  C   C11       1.0  0.1462008603681255  0.4231861753998345  0.1759827682190078  1.0000
  C   C12       1.0  0.6462009920058449  0.0768080487721434  0.32402052379950413  1.0000
  C   C13       1.0  0.0861740591568676  0.37887473776243047  0.583546272865128  1.0000
  C   C14       1.0  0.5861756216393986  0.12112667195098233  0.9164523857175977  1.0000
  C   C15       1.0  0.9138276349633756  0.6211235907009964  0.41645299149000437  1.0000
  C   C16       1.0  0.4138260724808518  0.8788761474758431  0.0835470013555337  1.0000
  C   C17       1.0  0.0710013808568064  0.31656262064046814  0.4292154677493514  1.0000
  C   C18       1.0  0.5709986508049241  0.18343968726561855  0.0707832153769772  1.0000
  C   C19       1.0  0.9289988824186324  0.6834366060156328  0.5707831311801498  1.0000
  C   C20       1.0  0.4290001816257174  0.8165613357758446  0.9292154326397294  1.0000
  C   C21       1.0  0.8909527190841757  0.2715398144011091  0.48056223026311057  1.0000
  C   C22       1.0  0.3909497257568475  0.2284633916976588  0.019437167376040093  1.0000
  C   C23       1.0  0.1090475441912702  0.728460310447673  0.5194363932099932  1.0000
  C   C24       1.0  0.6090476758289896  0.7715385295364856  0.9805628851227226  1.0000
  N   N1        1.0  0.1681142485391405  0.39019915106223385  0.5003549527223896  1.0000
  N   N2        1.0  0.6681100876424466  0.1098022586511789  0.999643705860336  1.0000
  N   N3        1.0  0.8318860147363054  0.6098009737865482  0.4996436707507143  1.0000
  N   N4        1.0  0.3318858830985861  0.8901969680049221  0.00035558303839170537  1.0000
  N   N5        1.0  0.9281432372259317  0.3110638850581894  0.5756843626090813  1.0000
  N   N6        1.0  0.4281402438986035  0.18893842284789747  0.9243150104864739  1.0000
  N   N7        1.0  0.071859887739123  0.6889326470198754  0.4243148526588455  1.0000
  N   N8        1.0  0.5718571576872336  0.8110626001935588  0.0756843274994594  1.0000
  O   O1        1.0  0.5415189553111333  0.4908371498071702  0.6058648174210077  1.0000
  O   O2        1.0  0.0415202545182183  0.009166056291597603  0.8941380300642834  1.0000
  O   O3        1.0  0.4584770154298994  0.5091656696196482  0.39413663955981076  1.0000
  O   O4        1.0  0.9584771470676189  0.9908349667498655  0.1058654477370098  1.0000
  O   O5        1.0  0.36752393462816  0.4214212267851353  0.8341796723098794  1.0000
  O   O6        1.0  0.867522635421075  0.0785828775063138  0.6658231997190143  1.0000
  O   O7        1.0  0.632473466957677  0.5785779998709657  0.1658216864965354  1.0000
  O   O8        1.0  0.1324776278543709  0.9214199419205118  0.3341796372002577  1.0000
  O   O9        1.0  0.7370510519817088  0.3456083755015841  0.7557926187805251  1.0000
  O   O10       1.0  0.237049489499185  0.15439662698253903  0.7442047580381512  1.0000
  O   O11       1.0  0.2629477804489326  0.6543908511545169  0.2442087400258899  1.0000
  O   O12       1.0  0.7629522046210653  0.845603497866243  0.2557973152810931  1.0000
  O   O13       1.0  0.945095886461985  0.2534636867315001  0.8467179377160078  1.0000
  O   O14       1.0  0.4451000473586717  0.24653772298191265  0.6532814108359516  1.0000
  O   O15       1.0  0.0549086693478742  0.7465373363099632  0.1532848501160657  1.0000
  O   O16       1.0  0.5549030776063759  0.7534615036741883  0.3467199479704632  1.0000
  O   O17       1.0  0.6917948616806342  0.5839473957074404  0.7838682798098445  1.0000
  O   O18       1.0  0.1917932991981104  0.9160559352401165  0.7161318112101043  1.0000
  O   O19       1.0  0.3082068324396161  0.4160491363706313  0.21613093545808937  1.0000
  O   O20       1.0  0.8082112566117488  0.08394778237938282  0.2838731201604574  1.0000
  O   O21       1.0  0.9717983121914956  0.663590140575245  0.8263912014622788  1.0000
  O   O22       1.0  0.4717996113985734  0.8364104957942686  0.6736046761114949  1.0000
  O   O23       1.0  0.0282062436183637  0.3364063915028197  0.17360594389796793  1.0000
  O   O24       1.0  0.5282006518768654  0.16358783266915822  0.3263966581513174  1.0000
  O   O25       1.0  0.1466630232397677  0.4251990251939972  0.660331310937245  1.0000
  O   O26       1.0  0.6466602931878853  0.0748050790974446  0.8396681112455155  1.0000
  O   O27       1.0  0.8533372400356714  0.5747984050767415  0.3396686188435112  1.0000
  O   O28       1.0  0.3533399700875606  0.9252004349074101  0.1603306594891976  1.0000
  O   O29       1.0  0.3093658167307325  0.6447029449162827  0.7371409161621614  1.0000
  O   O30       1.0  0.8093645175236546  0.8553021824166295  0.7628530142219387  1.0000
  O   O31       1.0  0.6906315848550975  0.3552971799324993  0.2628577073109426  1.0000
  O   O32       1.0  0.1906371765965957  0.1446970442394786  0.23714834458447598  1.0000
