data_image0
_chemical_formula_structural       Li4H8C8O12
_chemical_formula_sum              "Li4 H8 C8 O12"
_cell_length_a       5.005236382499982
_cell_length_b       6.563007767257218
_cell_length_c       8.85998394914221
_cell_angle_alpha    95.86227134793738
_cell_angle_beta     90.00008030909511
_cell_angle_gamma    89.99661304388464

_space_group_name_H-M_alt    "P 1"
_space_group_IT_number       1

loop_
  _space_group_symop_operation_xyz
  'x, y, z'

loop_
  _atom_site_type_symbol
  _atom_site_label
  _atom_site_symmetry_multiplicity
  _atom_site_fract_x
  _atom_site_fract_y
  _atom_site_fract_z
  _atom_site_occupancy
  Li  Li1       1.0  0.838582069576056  0.1301365300325799  0.2626348657348886  1.0000
  Li  Li2       1.0  0.3386245989622624  0.8699067008265402  0.2373664080272776  1.0000
  Li  Li3       1.0  0.16132426107284203  0.8699023616816816  0.7373572553391842  1.0000
  Li  Li4       1.0  0.6614855183947554  0.1301291152798356  0.7626299922555904  1.0000
  H   H1        1.0  0.6579379449353412  0.3069190902416352  0.04407705229812822  1.0000
  H   H2        1.0  0.157725359752007  0.6931084345110962  0.45589609374277285  1.0000
  H   H3        1.0  0.34227006927506665  0.6931320677644306  0.9559035920282715  1.0000
  H   H4        1.0  0.8421190359586035  0.30692434098704513  0.5440899159152651  1.0000
  H   H5        1.0  0.18556364499646352  0.4536596626428135  0.13055165684717457  1.0000
  H   H6        1.0  0.6856315036544773  0.5463464594804465  0.3695101199340983  1.0000
  H   H7        1.0  0.8143846439928952  0.5463254803963126  0.8695221296888324  1.0000
  H   H8        1.0  0.31438471426357495  0.45363714475998757  0.6305669348164432  1.0000
  C   C1        1.0  0.16907570438500846  0.24406377161047035  0.9267633916389006  1.0000
  C   C2        1.0  0.6692018784330929  0.7558984423076611  0.5731948460481893  1.0000
  C   C3        1.0  0.8308585991488189  0.7559108461466977  0.07318769290894524  1.0000
  C   C4        1.0  0.33087827320983376  0.24405469720714024  0.42677378205952027  1.0000
  C   C5        1.0  0.038539019855271306  0.4056009833212997  0.04159355174838452  1.0000
  C   C6        1.0  0.538478213559131  0.5944139543504933  0.4583708374781638  1.0000
  C   C7        1.0  0.9615131582373667  0.5944302827048134  0.9583754122276108  1.0000
  C   C8        1.0  0.46144410035089584  0.40562493697661495  0.5416212835591028  1.0000
  O   O1        1.0  0.8132227616545932  0.3300153428315866  0.11596553847649464  1.0000
  O   O2        1.0  0.31310519433911577  0.6699356594204315  0.384045629727858  1.0000
  O   O3        1.0  0.18687137463808773  0.669962230860648  0.8840501064720246  1.0000
  O   O4        1.0  0.6867931472903452  0.33003425687497423  0.6159716866115448  1.0000
  O   O5        1.0  0.019232527540189902  0.12777247313426443  0.8401972951511996  1.0000
  O   O6        1.0  0.5191731069109268  0.8721036415616937  0.6597104696906444  1.0000
  O   O7        1.0  0.9808116641488881  0.8721132924035828  0.1597537612982053  1.0000
  O   O8        1.0  0.4807691907794835  0.127800525029798  0.34023070837155  1.0000
  O   O9        1.0  0.4225404958926689  0.23693662757236206  0.9215406075480249  1.0000
  O   O10       1.0  0.9227401109116402  0.7631448699823692  0.5785269831727292  1.0000
  O   O11       1.0  0.5773058967770127  0.7631282281759227  0.07850090482571667  1.0000
  O   O12       1.0  0.07739797635611721  0.236918436094669  0.4215211824959655  1.0000
