data_image0
_chemical_formula_structural       Cd2H52C64N12O10
_chemical_formula_sum              "Cd2 H52 C64 N12 O10"
_cell_length_a       9.47453127349536
_cell_length_b       12.209046768173346
_cell_length_c       13.08
_cell_angle_alpha    79.63463608351516
_cell_angle_beta     88.36488381252451
_cell_angle_gamma    83.22785774136351

_space_group_name_H-M_alt    "P 1"
_space_group_IT_number       1

loop_
  _space_group_symop_operation_xyz
  'x, y, z'

loop_
  _atom_site_type_symbol
  _atom_site_label
  _atom_site_symmetry_multiplicity
  _atom_site_fract_x
  _atom_site_fract_y
  _atom_site_fract_z
  _atom_site_occupancy
  Cd  Cd1       1.0  0.25348771510592627  0.0897009553568608  0.1073297502423358  1.0000
  Cd  Cd2       1.0  0.7465153205407732  0.9103015021197437  0.8926746672622413  1.0000
  H   H1        1.0  0.0007364571260595004  0.1092239762708331  0.9238507512469738  1.0000
  H   H2        1.0  0.9992701119562712  0.8907759666487179  0.07615095742612249  1.0000
  H   H3        1.0  0.2675375903695071  0.355033662228088  0.9522306230068125  1.0000
  H   H4        1.0  0.7324500531976454  0.6449729861769242  0.047781818579686317  1.0000
  H   H5        1.0  0.0663380507096463  0.4438159660770609  0.7985116158207504  1.0000
  H   H6        1.0  0.9336587715110269  0.5561856532138592  0.20149154182463747  1.0000
  H   H7        1.0  0.800154837573885  0.3548928470334474  0.7903901634930007  1.0000
  H   H8        1.0  0.1998505536965638  0.6451079340717882  0.20961066422994173  1.0000
  H   H9        1.0  0.8272420673869973  0.2083578732971887  0.8005370592925798  1.0000
  H   H10       1.0  0.17276088773456166  0.7916378786939547  0.19946695697016278  1.0000
  H   H11       1.0  0.115499011328275  0.192203520640696  0.688920499890699  1.0000
  H   H12       1.0  0.8845077210704134  0.8077880404220394  0.3110872002450265  1.0000
  H   H13       1.0  0.18144064893441234  0.2076496063955773  0.5022998744713192  1.0000
  H   H14       1.0  0.8185698193457897  0.7923453074098815  0.4977064208490276  1.0000
  H   H15       1.0  0.015498420948226505  0.3185935396866526  0.3671126420956128  1.0000
  H   H16       1.0  0.984517407312751  0.6814080796042674  0.6328916517681336  1.0000
  H   H17       1.0  0.7924320867218029  0.42210444234638805  0.4217841738955244  1.0000
  H   H18       1.0  0.20757712322139102  0.5778846041592942  0.5782200747068273  1.0000
  H   H19       1.0  0.8015376441461729  0.5541212018781607  0.6662364813783268  1.0000
  H   H20       1.0  0.19847883511416603  0.4458686828132059  0.33376594715513613  1.0000
  H   H21       1.0  0.5838727594658408  0.6548359171014795  0.7328851636393664  1.0000
  H   H22       1.0  0.4161413641707483  0.3451556439612489  0.2671025060518843  1.0000
  H   H23       1.0  0.3493516774665509  0.5863628523365634  0.7180914175138325  1.0000
  H   H24       1.0  0.6506615513291791  0.4136421196970872  0.28190930890109195  1.0000
  H   H25       1.0  0.3341604255731808  0.4190492555341195  0.6364259656062785  1.0000
  H   H26       1.0  0.6658437878853932  0.5809523637568006  0.3635823909524376  1.0000
  H   H27       1.0  0.4489077325531312  0.2916928083963768  0.5217579976573389  1.0000
  H   H28       1.0  0.5510887653009107  0.708303781780451  0.4782467758276781  1.0000
  H   H29       1.0  0.6358777267736075  0.2598459433943745  0.5200799456933041  1.0000
  H   H30       1.0  0.36412425298195933  0.7401565140822228  0.4799222000573805  1.0000
  H   H31       1.0  0.329482178783664  0.2362627510349569  0.7176020476613374  1.0000
  H   H32       1.0  0.6705066034658459  0.7637288100277786  0.2823815586521333  1.0000
  H   H33       1.0  0.41213468087722305  0.0532432309160882  0.8710382280660196  1.0000
  H   H34       1.0  0.5878433400151195  0.9467424628468635  0.12894811510223997  1.0000
  H   H35       1.0  0.7448724636341383  0.0949387776860462  0.6517447856891891  1.0000
  H   H36       1.0  0.2551336177651962  0.9050645179762427  0.3482632507248269  1.0000
  H   H37       1.0  0.5289091751093339  0.406678473047883  0.9463728199483796  1.0000
  H   H38       1.0  0.4710948359033509  0.5933172789432604  0.05361817754837259  1.0000
  H   H39       1.0  0.7468975610047793  0.5063915563807626  0.9248817365930717  1.0000
  H   H40       1.0  0.25310198260189753  0.4936058719817495  0.07510907170352972  1.0000
  H   H41       1.0  0.9492038962736518  0.4342237691279109  0.04944199408537028  1.0000
  H   H42       1.0  0.050786995492025304  0.5657895847625625  0.9505570218028083  1.0000
  H   H43       1.0  0.4967956369448174  0.0933596358604447  0.4293255375180037  1.0000
  H   H44       1.0  0.5031975713150914  0.9066377925020676  0.5706661662491327  1.0000
  H   H45       1.0  0.7172310899037697  0.979663043707987  0.5115271121040479  1.0000
  H   H46       1.0  0.28275850439537453  0.0203301937261102  0.48846613472673533  1.0000
  H   H47       1.0  0.9448320045323086  0.9827090104777555  0.4077226185112508  1.0000
  H   H48       1.0  0.055161406173489504  0.0172942851845335  0.5922780345319225  1.0000
  H   H49       1.0  0.1790103104851681  0.9383974861930967  0.9611819889042719  1.0000
  H   H50       1.0  0.8209862678940142  0.0616058094691923  0.0388224212965937  1.0000
  H   H51       1.0  0.3415441524708527  0.9052707116541043  0.9950511751328859  1.0000
  H   H52       1.0  0.65845323795795  0.0947342603795462  0.004948349591415998  1.0000
  C   C1        1.0  0.048332740087232706  0.186940552741035  0.9126582317477129  1.0000
  C   C2        1.0  0.9516664377571971  0.8130593901785232  0.08734745232399627  1.0000
  C   C3        1.0  0.18377785513953168  0.3166992400444784  0.9225007953471331  1.0000
  C   C4        1.0  0.816219535289278  0.6833057319891722  0.07750408105912501  1.0000
  C   C5        1.0  0.08485452973007312  0.3617349567587098  0.8470492317343599  1.0000
  C   C6        1.0  0.9151401807083418  0.6382666625322102  0.15295396955921348  1.0000
  C   C7        1.0  0.8778174807647902  0.2855413636733957  0.7753151536331655  1.0000
  C   C8        1.0  0.12218429654488724  0.714455226503432  0.22469180430938  1.0000
  C   C9        1.0  0.9183714982453568  0.299984141166469  0.6613136025253468  1.0000
  C   C10       1.0  0.08162617742055997  0.7000116108246744  0.3386912873838454  1.0000
  C   C11       1.0  0.0454855978238058  0.2440872143799666  0.6299682661830984  1.0000
  C   C12       1.0  0.9545171134562552  0.7559102139825455  0.3700354735831226  1.0000
  C   C13       1.0  0.0822566578597304  0.2521254150739836  0.5251243372043817  1.0000
  C   C14       1.0  0.9177521449256073  0.7478736896598903  0.47487746606879006  1.0000
  C   C15       1.0  0.9902523000009043  0.315235767843042  0.44945532592323184  1.0000
  C   C16       1.0  0.009754634843666603  0.6847616605194631  0.5505445039166617  1.0000
  C   C17       1.0  0.8642426458192035  0.371991834953981  0.48007689580727225  1.0000
  C   C18       1.0  0.1357634769757396  0.6280039170371552  0.519927054983192  1.0000
  C   C19       1.0  0.8267319291467886  0.365953545298126  0.5854068146067206  1.0000
  C   C20       1.0  0.17327147226215087  0.6340463976214323  0.4145964885906465  1.0000
  C   C21       1.0  0.6920106014972022  0.4278166777718013  0.6170143528377494  1.0000
  C   C22       1.0  0.3079958870599953  0.5721765596622888  0.382991541749476  1.0000
  C   C23       1.0  0.6983812759506094  0.5243228626838956  0.6605894203142384  1.0000
  C   C24       1.0  0.3016322380822344  0.4756728893072477  0.3394105550776203  1.0000
  C   C25       1.0  0.576768288370225  0.5813044017434024  0.6974996805479278  1.0000
  C   C26       1.0  0.4232428700388625  0.4186930266191098  0.3024970038916308  1.0000
  C   C27       1.0  0.4452063043706005  0.5424469516939823  0.6894741517511347  1.0000
  C   C28       1.0  0.5548035543058633  0.4575521530398916  0.3105268651719513  1.0000
  C   C29       1.0  0.437103917110953  0.4483874307887561  0.6443588367880223  1.0000
  C   C30       1.0  0.5628996062187426  0.5516116739451178  0.3556446046575985  1.0000
  C   C31       1.0  0.5590805977636037  0.3896532454674002  0.6086184333015509  1.0000
  C   C32       1.0  0.4409238595364684  0.6103466974521581  0.3913871416497017  1.0000
  C   C33       1.0  0.5451848351131616  0.2825616135725326  0.568843635362839  1.0000
  C   C34       1.0  0.4548131649193933  0.7174391675327031  0.43115887418073123  1.0000
  C   C35       1.0  0.4257803131368192  0.1783583695391542  0.7263011956612003  1.0000
  C   C36       1.0  0.5742104589741928  0.8216340297092586  0.2736921675937509  1.0000
  C   C37       1.0  0.46861380753150433  0.08841685489145591  0.802173914502262  1.0000
  C   C38       1.0  0.5313749747180055  0.9115747061712794  0.19781580801915774  1.0000
  C   C39       1.0  0.6432259354826826  0.1065686040290572  0.690941476538022  1.0000
  C   C40       1.0  0.3567774659262568  0.8934313388905011  0.30906412023732344  1.0000
  C   C41       1.0  0.4807885739891731  0.2265112988061588  0.08923702860428048  1.0000
  C   C42       1.0  0.5192144616575192  0.7734911586704456  0.9107628017443332  1.0000
  C   C43       1.0  0.6079211023723587  0.290681118277746  0.08273760631545458  1.0000
  C   C44       1.0  0.39207994341283126  0.709320501013174  0.9172570542476419  1.0000
  C   C45       1.0  0.6169628189119791  0.3805186979008255  0.0005708433914647965  1.0000
  C   C46       1.0  0.38303964852659084  0.6194804068330413  0.9994188584103583  1.0000
  C   C47       1.0  0.7390776683086601  0.4349546670429447  0.9874979456937678  1.0000
  C   C48       1.0  0.2609236213180282  0.5650452758766065  0.012496991365843306  1.0000
  C   C49       1.0  0.8500835355292935  0.39597316551253675  0.057562212672756595  1.0000
  C   C50       1.0  0.14990889981050506  0.6040368356352062  0.9424411570143292  1.0000
  C   C51       1.0  0.7244951487181126  0.2593329737567629  0.1506471637811089  1.0000
  C   C52       1.0  0.2754982619876785  0.740670321905526  0.8493481375801081  1.0000
  C   C53       1.0  0.7241270975179291  0.16981809562139463  0.24433657216628285  1.0000
  C   C54       1.0  0.275869358940497  0.8301860382265787  0.7556638771563585  1.0000
  C   C55       1.0  0.5998162534366429  0.0957082321424707  0.389661875550054  1.0000
  C   C56       1.0  0.4001793909721556  0.9042942253341337  0.6103312268332601  1.0000
  C   C57       1.0  0.7212788324724215  0.031158714556767098  0.4344118060047463  1.0000
  C   C58       1.0  0.27871096427260506  0.9688403901771069  0.565582744842132  1.0000
  C   C59       1.0  0.8478103053216801  0.0337151808880236  0.37738936987030763  1.0000
  C   C60       1.0  0.15218521716636962  0.9662881147742652  0.6226081814207091  1.0000
  C   C61       1.0  0.8498334374351658  0.1000701504335737  0.2786784082625644  1.0000
  C   C62       1.0  0.15016289710251834  0.8999348216000769  0.7213219028118157  1.0000
  C   C63       1.0  0.9794781936564334  0.088678368824354  0.2108164110304358  1.0000
  C   C64       1.0  0.020523703307908585  0.9113391759945273  0.789177850921483  1.0000
  N   N1        1.0  0.1595753065176879  0.2079396186416815  0.9626954556277312  1.0000
  N   N2        1.0  0.8404213937822363  0.7920628388349229  0.03731062187338101  1.0000
  N   N3        1.0  0.9995628618121446  0.2781510805118543  0.8423885897747708  1.0000
  N   N4        1.0  0.0004374938441670824  0.7218480242220195  0.15761415261712838  1.0000
  N   N5        1.0  0.5370755449046314  0.1888834671527917  0.6558142606293416  1.0000
  N   N6        1.0  0.4629244863850417  0.8111106084669899  0.34418321686823816  1.0000
  N   N7        1.0  0.6041721189606264  0.0442536894725762  0.7791039971231583  1.0000
  N   N8        1.0  0.3958232010815408  0.9557437388899359  0.2208983663597195  1.0000
  N   N9        1.0  0.84303676931134  0.3115410453551135  0.13753833771670537  1.0000
  N   N10       1.0  0.1569579411270823  0.6884605739358065  0.862458747368919  1.0000
  N   N11       1.0  0.6016215275323092  0.1653757115047796  0.298263779706474  1.0000
  N   N12       1.0  0.39836871550009784  0.8346275841575022  0.7017331161790067  1.0000
  O   O1        1.0  0.4987319669672133  0.136044241735604  0.0513355484198854  1.0000
  O   O2        1.0  0.5012624996297106  0.8639590539266777  0.9486658473251878  1.0000
  O   O3        1.0  0.36428974159910155  0.2648700283745598  0.1253870632437213  1.0000
  O   O4        1.0  0.6357139841764764  0.7351349436590908  0.8746153886400093  1.0000
  O   O5        1.0  0.9634881529755505  0.0635956622791554  0.1221178061798867  1.0000
  O   O6        1.0  0.03649246284986417  0.9364302643965489  0.8778747234211934  1.0000
  O   O7        1.0  0.09939556591002231  0.0977777125922614  0.24837534575354425  1.0000
  O   O8        1.0  0.9006092157566812  0.9022272594413892  0.7516163809421811  1.0000
  O   O9        1.0  0.2457417970268168  0.9354705417902239  0.01920024950085523  1.0000
  O   O10       1.0  0.7542549032731074  0.0645319156863735  0.9808020053702861  1.0000
