data_image0
_chemical_formula_structural       Li4H20C4N20O10
_chemical_formula_sum              "Li4 H20 C4 N20 O10"
_cell_length_a       8.657824500993252
_cell_length_b       8.618873059437176
_cell_length_c       9.07002437262501
_cell_angle_alpha    86.91115696029098
_cell_angle_beta     81.74771856221946
_cell_angle_gamma    60.573172797453005

_space_group_name_H-M_alt    "P 1"
_space_group_IT_number       1

loop_
  _space_group_symop_operation_xyz
  'x, y, z'

loop_
  _atom_site_type_symbol
  _atom_site_label
  _atom_site_symmetry_multiplicity
  _atom_site_fract_x
  _atom_site_fract_y
  _atom_site_fract_z
  _atom_site_occupancy
  Li  Li1       1.0  0.2793945494598447  0.30075599775315004  0.37360377962426133  1.0000
  Li  Li2       1.0  0.7206044599114135  0.69924411001152  0.6263966383951853  1.0000
  Li  Li3       1.0  0.11913213631848417  0.36466456606772346  0.0773992748909293  1.0000
  Li  Li4       1.0  0.8808673878248783  0.6353368585342096  0.9226021251184803  1.0000
  H   H1        1.0  0.2103521586767414  0.2405271330393504  0.6289966935983173  1.0000
  H   H2        1.0  0.7896473646661092  0.7594743056913913  0.3710036033417126  1.0000
  H   H3        1.0  0.3143000186175797  0.34806201765213257  0.6478247860777842  1.0000
  H   H4        1.0  0.6856983369866968  0.6519394223930133  0.352175664992629  1.0000
  H   H5        1.0  0.4062802037270858  0.9588090309762405  0.3822877924356618  1.0000
  H   H6        1.0  0.5937199733827468  0.041191075474031905  0.6177124714534018  1.0000
  H   H7        1.0  0.5653680737830129  0.001376935047211701  0.3380661227478967  1.0000
  H   H8        1.0  0.43463261409640114  0.9986245588843942  0.6619296077842662  1.0000
  H   H9        1.0  0.9601423380898098  0.4646685617578682  0.3393090916712964  1.0000
  H   H10       1.0  0.03985601831496405  0.5353328641584555  0.6606924624684967  1.0000
  H   H11       1.0  0.026017958761990208  0.2588894278518765  0.3117016651533788  1.0000
  H   H12       1.0  0.9739815645808603  0.7411120108788721  0.6882986317866584  1.0000
  H   H13       1.0  0.4116912052531846  0.22488692672975205  0.8877497292087142  1.0000
  H   H14       1.0  0.5883066347784834  0.7751132106069389  0.11224863680236298  1.0000
  H   H15       1.0  0.38118249848029956  0.06498968492277159  0.9360833881839383  1.0000
  H   H16       1.0  0.6188087044930628  0.935014539285795  0.0639090750853128  1.0000
  H   H17       1.0  0.04049771284704927  0.7045713226533507  0.09351433016710331  1.0000
  H   H18       1.0  0.9595036304003558  0.2954288107401552  0.9064835734528317  1.0000
  H   H19       1.0  0.19121261950282797  0.5893062854760273  0.9574402551701411  1.0000
  H   H20       1.0  0.8087875568065072  0.4106938351030607  0.0425589056495497  1.0000
  C   C1        1.0  0.16734946032050863  0.9235816072078858  0.6127994143227655  1.0000
  C   C2        1.0  0.8326537060334757  0.07641716433312949  0.3872005082545726  1.0000
  C   C3        1.0  0.4008963602924566  0.5919045044801904  0.3358995198770529  1.0000
  C   C4        1.0  0.5991081135954843  0.40809160249987997  0.6641003365983451  1.0000
  N   N1        1.0  0.2897795623598115  0.8290840285289744  0.4905585051702133  1.0000
  N   N2        1.0  0.7102249115281367  0.17091207845109577  0.5094413513051848  1.0000
  N   N3        1.0  0.0345388209380317  0.8985320762959005  0.686586293481483  1.0000
  N   N4        1.0  0.9654625247108868  0.10146801471116616  0.31341491934657734  1.0000
  N   N5        1.0  0.9560567327214642  0.020852069894736792  0.7960303378749106  1.0000
  N   N6        1.0  0.04394395916047236  0.9791493533927988  0.20397090800411632  1.0000
  N   N7        1.0  0.038602971861692495  0.11711486941197082  0.7892852363768698  1.0000
  N   N8        1.0  0.9613983729867287  0.8828852357239113  0.2107148733818178  1.0000
  N   N9        1.0  0.1714658351884921  0.0598632416296851  0.6754209180997891  1.0000
  N   N10       1.0  0.8285355096599287  0.9401368635061899  0.32457919165889854  1.0000
  N   N11       1.0  0.27875758688968233  0.6944619518623509  0.45369893996732463  1.0000
  N   N12       1.0  0.7212462340317884  0.3055354732693728  0.5463020526284198  1.0000
  N   N13       1.0  0.5383288545724697  0.6063335834966849  0.2567447688794573  1.0000
  N   N14       1.0  0.46167197550384037  0.39366520480192685  0.7432543588892601  1.0000
  N   N15       1.0  0.6192308200229704  0.4656091413956317  0.16322490172387927  1.0000
  N   N16       1.0  0.3807681885477762  0.5343909804978465  0.8367744132261948  1.0000
  N   N17       1.0  0.5362223447831554  0.36933628302373467  0.18258698641241722  1.0000
  N   N18       1.0  0.46377731835507774  0.6306624924604591  0.8174133985560559  1.0000
  N   N19       1.0  0.39913567884009643  0.4455086623837872  0.2909467152759362  1.0000
  N   N20       1.0  0.600865152036718  0.5544901117860161  0.7090535155621611  1.0000
  O   O1        1.0  0.225217503151768  0.3443528309747919  0.5919720345343863  1.0000
  O   O2        1.0  0.7747808516519968  0.6556486231991626  0.40802731346665416  1.0000
  O   O3        1.0  0.43800362749134786  0.04640867547912819  0.332660772408815  1.0000
  O   O4        1.0  0.5619953818799105  0.9535914322855418  0.6673396456106319  1.0000
  O   O5        1.0  0.06500411047948519  0.3524783532265872  0.29471230608333343  1.0000
  O   O6        1.0  0.9349947598968882  0.647524403655815  0.7052891269770498  1.0000
  O   O7        1.0  0.3440996557155387  0.1873775860913796  0.9633250021708974  1.0000
  O   O8        1.0  0.6559016891328822  0.8126225190444952  0.036675107587790017  1.0000
  O   O9        1.0  0.08148770655219548  0.6019807422423754  0.022644881238676418  1.0000
  O   O10       1.0  0.9185118167906623  0.3980206964883664  0.9773554157013609  1.0000
