data_image0
_chemical_formula_structural       Ag8H40C48N16O16
_chemical_formula_sum              "Ag8 H40 C48 N16 O16"
_cell_length_a       9.442592738747672
_cell_length_b       10.12605162302
_cell_length_c       13.69658812992806
_cell_angle_alpha    90.00022335675196
_cell_angle_beta     100.2775649717455
_cell_angle_gamma    89.9999106882004

_space_group_name_H-M_alt    "P 1"
_space_group_IT_number       1

loop_
  _space_group_symop_operation_xyz
  'x, y, z'

loop_
  _atom_site_type_symbol
  _atom_site_label
  _atom_site_symmetry_multiplicity
  _atom_site_fract_x
  _atom_site_fract_y
  _atom_site_fract_z
  _atom_site_occupancy
  Ag  Ag1       1.0  0.4288025495978758  0.3804355833876584  0.1340230553859243  1.0000
  Ag  Ag2       1.0  0.07119207772254302  0.8804329267593971  0.3659778289860043  1.0000
  Ag  Ag3       1.0  0.5711992412792242  0.6195691197305563  0.8659781162406615  1.0000
  Ag  Ag4       1.0  0.9288054142263535  0.11956782615165198  0.6340220669341645  1.0000
  Ag  Ag5       1.0  0.6313784724169978  0.36337453921037616  0.5264951904523512  1.0000
  Ag  Ag6       1.0  0.8686130319169012  0.8633700334093248  0.9735054850716833  1.0000
  Ag  Ag7       1.0  0.3686211534971022  0.6366242386020955  0.4735071666507407  1.0000
  Ag  Ag8       1.0  0.13138553631501537  0.13662973194953312  0.02649454743884409  1.0000
  H   H1        1.0  0.8576033389821448  0.6599572126038636  0.27142693239634497  1.0000
  H   H2        1.0  0.6423885937002324  0.15995388322416199  0.22857546565698772  1.0000
  H   H3        1.0  0.14239845809704826  0.34004354030542316  0.7285735098907152  1.0000
  H   H4        1.0  0.3576120960945133  0.8400478572469865  0.77142848671005  1.0000
  H   H5        1.0  0.8483735208541603  0.5837665503797068  0.6205207645729158  1.0000
  H   H6        1.0  0.65162576743937  0.08376894343454921  0.8794808248526277  1.0000
  H   H7        1.0  0.15163257515639833  0.41623123987450567  0.37948095341101856  1.0000
  H   H8        1.0  0.3483695719434651  0.9162337845808748  0.12051879788681666  1.0000
  H   H9        1.0  0.06841739023354171  0.7736345903315184  0.16107850332652154  1.0000
  H   H10       1.0  0.4315730422097772  0.27363536427220947  0.3389200812955052  1.0000
  H   H11       1.0  0.9315779677510462  0.22636616257460673  0.8389189314079882  1.0000
  H   H12       1.0  0.5684266147057287  0.7263634135305849  0.6610786291372432  1.0000
  H   H13       1.0  0.23394229147419307  0.4773373879864449  0.9256569186443924  1.0000
  H   H14       1.0  0.2660552153353066  0.9773378358787496  0.5743445470496836  1.0000
  H   H15       1.0  0.7660530479122656  0.5226574396149813  0.07434270408414527  1.0000
  H   H16       1.0  0.733941206534908  0.022655016616802498  0.4256544829337867  1.0000
  H   H17       1.0  0.06725224135490751  0.7557557073939308  0.8143421301497892  1.0000
  H   H18       1.0  0.4327476582404088  0.2557576437871844  0.685654621266053  1.0000
  H   H19       1.0  0.9327463206789942  0.2442391202081069  0.18565863168799263  1.0000
  H   H20       1.0  0.5672531369604953  0.7442411339958284  0.3143369324177455  1.0000
  H   H21       1.0  0.9156232705176991  0.658757773454667  0.8259582503930571  1.0000
  H   H22       1.0  0.5843749285879909  0.15875720460245904  0.674036845369926  1.0000
  H   H23       1.0  0.0843742462327697  0.34124199189689347  0.17403872818947258  1.0000
  H   H24       1.0  0.41562798197637113  0.8412415731912828  0.3259593575017305  1.0000
  H   H25       1.0  0.07342504043136701  0.5821351628665781  0.7938050126068885  1.0000
  H   H26       1.0  0.42657606972204587  0.0821362295679009  0.7061943136261914  1.0000
  H   H27       1.0  0.9265724701197299  0.4178626273834213  0.20619269530698855  1.0000
  H   H28       1.0  0.5734300324878917  0.9178635357878733  0.29380667502640273  1.0000
  H   H29       1.0  0.028744911780627515  0.8865701173131906  0.5596568569873523  1.0000
  H   H30       1.0  0.47125590703896586  0.3865733438810111  0.9403447680115274  1.0000
  H   H31       1.0  0.9712547513333546  0.11343261069467302  0.44034112411677717  1.0000
  H   H32       1.0  0.5287448013561759  0.6134293841360831  0.059656996354675584  1.0000
  H   H33       1.0  0.14887889321171602  0.7523647988811675  0.5941277607696874  1.0000
  H   H34       1.0  0.351117731039878  0.2523680220018178  0.9058744061880188  1.0000
  H   H35       1.0  0.8511207326996626  0.24763990424180096  0.40587459634158296  1.0000
  H   H36       1.0  0.6488840536382909  0.747633718463085  0.09412749476854289  1.0000
  H   H37       1.0  0.005497206513581403  0.7812085012102231  0.658990428132803  1.0000
  H   H38       1.0  0.4945036840419093  0.28120820493925436  0.8410138234498843  1.0000
  H   H39       1.0  0.994501355515787  0.21879620190932056  0.34101033371860706  1.0000
  H   H40       1.0  0.5054981006367143  0.718792547973905  0.15898807750531316  1.0000
  C   C1        1.0  0.033998611658859104  0.6587535257255155  0.8386110702735791  1.0000
  C   C2        1.0  0.4660013458113781  0.1587552841941502  0.6613890601327838  1.0000
  C   C3        1.0  0.9659999503741332  0.34124327698002327  0.16138969156692434  1.0000
  C   C4        1.0  0.5340015461521334  0.8412434936053971  0.3386093307410717  1.0000
  C   C5        1.0  0.104821084924211  0.7060641595656776  0.10898043708671416  1.0000
  C   C6        1.0  0.39517370835989146  0.2060632882691351  0.3910192367719814  1.0000
  C   C7        1.0  0.8951775019076464  0.2939375808908764  0.8910174074243356  1.0000
  C   C8        1.0  0.6048281011221165  0.7939325268775332  0.6089797468401341  1.0000
  C   C9        1.0  0.20396174064222813  0.6061031963415716  0.14159681756816406  1.0000
  C   C10       1.0  0.2960299029807772  0.10610230014179928  0.35840362933906517  1.0000
  C   C11       1.0  0.7960346750222841  0.39390150677691343  0.8584029417657246  1.0000
  C   C12       1.0  0.7039686838528925  0.8938954901077523  0.6415942151665346  1.0000
  C   C13       1.0  0.8548197053303782  0.599147457933988  0.5425946016125279  1.0000
  C   C14       1.0  0.6451795688723365  0.09914632268316845  0.957407030252085  1.0000
  C   C15       1.0  0.14518855564499233  0.4008523074189725  0.45740593088945036  1.0000
  C   C16       1.0  0.3548168405932515  0.9008554177819973  0.04259345841178688  1.0000
  C   C17       1.0  0.035416384773974116  0.7836929647795259  0.5855239048830396  1.0000
  C   C18       1.0  0.4645802107747912  0.2836940893251665  0.9144783485225074  1.0000
  C   C19       1.0  0.9645821958562453  0.21631173833421263  0.4144746689661644  1.0000
  C   C20       1.0  0.5354215863030376  0.716309626239365  0.08552209376864536  1.0000
  C   C21       1.0  0.1952275853022201  0.5415323725831624  0.9792636265586692  1.0000
  C   C22       1.0  0.3047703208074566  0.04152671415035059  0.5207366365138384  1.0000
  C   C23       1.0  0.8047699128483147  0.45846541767069493  0.02073554002333824  1.0000
  C   C24       1.0  0.6952282598295556  0.958463175687136  0.47926193731493055  1.0000
  C   C25       1.0  0.09363917631134201  0.6400791614508492  0.9458634797021401  1.0000
  C   C26       1.0  0.4063597343889143  0.14007649107654166  0.5541350039059549  1.0000
  C   C27       1.0  0.9063572455579704  0.3599156661482041  0.0541355502840588  1.0000
  C   C28       1.0  0.5936431699801404  0.8599114236498904  0.44586192828477766  1.0000
  C   C29       1.0  0.7763061399414254  0.5376966780111161  0.3797663423830925  1.0000
  C   C30       1.0  0.7236826573118479  0.0376916667859177  0.12023749651442728  1.0000
  C   C31       1.0  0.2236913210051483  0.4623060500130975  0.6202372002101413  1.0000
  C   C32       1.0  0.2763148346374962  0.9623080985733736  0.8797623994043772  1.0000
  C   C33       1.0  0.2616193841976795  0.586952841108527  0.25168744436067664  1.0000
  C   C34       1.0  0.2383787284654773  0.0869544109606224  0.24831449858856297  1.0000
  C   C35       1.0  0.7383802603150046  0.4130508744568857  0.7483127247470234  1.0000
  C   C36       1.0  0.761622010931532  0.9130473294950504  0.7516836191059323  1.0000
  C   C37       1.0  0.6877113138162442  0.44733259468014075  0.30358416769789187  1.0000
  C   C38       1.0  0.8122814380470232  0.947329669389994  0.19641843063210015  1.0000
  C   C39       1.0  0.31228722961363786  0.5526691457899489  0.6964187821516317  1.0000
  C   C40       1.0  0.18771714258500788  0.05267108351674209  0.803580143211654  1.0000
  C   C41       1.0  0.8596300011238396  0.6390173709993974  0.3497537501026783  1.0000
  C   C42       1.0  0.6403598167805741  0.13901264266149127  0.15024612897914116  1.0000
  C   C43       1.0  0.1403674970253306  0.3609833819097189  0.6502454164834146  1.0000
  C   C44       1.0  0.359638745251516  0.8609861351475486  0.8497546328640906  1.0000
  C   C45       1.0  0.9419682764129862  0.6982491210356868  0.5132411713582669  1.0000
  C   C46       1.0  0.5580298431072706  0.19824925844156382  0.9867591387213747  1.0000
  C   C47       1.0  0.0580346155491682  0.30175261941910486  0.4867572195196742  1.0000
  C   C48       1.0  0.44196978280456284  0.8017544571296538  0.013243218388531423  1.0000
  N   N1        1.0  0.9420315088950203  0.7172789848093827  0.41556415135939756  1.0000
  N   N2        1.0  0.5579636249152458  0.21727798120915762  0.08443589731669478  1.0000
  N   N3        1.0  0.0579670779363894  0.2827237431989147  0.5844336931530163  1.0000
  N   N4        1.0  0.44203707727961483  0.7827247468098764  0.91556659638357  1.0000
  N   N5        1.0  0.7742983708131348  0.5195733871083874  0.4770337642982268  1.0000
  N   N6        1.0  0.7256990657061735  0.019568845804073497  0.022969658653998706  1.0000
  N   N7        1.0  0.2257087828777955  0.4804273658064346  0.5229702782837291  1.0000
  N   N8        1.0  0.27429950252528806  0.9804319071065349  0.9770303738578929  1.0000
  N   N9        1.0  0.04880862861275401  0.7218223085392238  0.0122057284948696  1.0000
  N   N10       1.0  0.4511883151987847  0.22182186583768276  0.48779280336467673  1.0000
  N   N11       1.0  0.9511856530919754  0.27817251905684504  0.9877915696397462  1.0000
  N   N12       1.0  0.548817818017085  0.7781680239909219  0.51220453860396  1.0000
  N   N13       1.0  0.24881056278249503  0.5240463264203541  0.07579723983891988  1.0000
  N   N14       1.0  0.2511843910716963  0.0240448576033714  0.4242026610709643  1.0000
  N   N15       1.0  0.7511858466835407  0.4759544264930682  0.9242032488235876  1.0000
  N   N16       1.0  0.7488098906312216  0.9759539201996998  0.5757946370691015  1.0000
  O   O1        1.0  0.6637978320217711  0.4914907561754022  0.21558006982802166  1.0000
  O   O2        1.0  0.8361981206296748  0.9914902359880884  0.2844216014676987  1.0000
  O   O3        1.0  0.33620071760794457  0.5085119718445057  0.7844221506887902  1.0000
  O   O4        1.0  0.16380046620218278  0.0085115044684656  0.7155762430433511  1.0000
  O   O5        1.0  0.6486977360139079  0.3375860777079751  0.33380269741211055  1.0000
  O   O6        1.0  0.8512994215327369  0.8375829344239281  0.16620014443664388  1.0000
  O   O7        1.0  0.351302959981119  0.6624156627612408  0.6662005256208585  1.0000
  O   O8        1.0  0.14869915289991548  0.16241584338123968  0.8337991587384578  1.0000
  O   O9        1.0  0.34902109081227906  0.4937496855423191  0.2776097347331117  1.0000
  O   O10       1.0  0.150979877982607  0.9937441752803408  0.22239374054601765  1.0000
  O   O11       1.0  0.6509806938645326  0.5062550175778356  0.7223921662275357  1.0000
  O   O12       1.0  0.8490208366155301  0.006252627424324  0.7776072944779383  1.0000
  O   O13       1.0  0.2152468281170172  0.6678078413039188  0.30978288808177  1.0000
  O   O14       1.0  0.2847533630301768  0.1678080471579477  0.19021955117011655  1.0000
  O   O15       1.0  0.7847549565616063  0.33219291160923353  0.6902190128734272  1.0000
  O   O16       1.0  0.7152462876836906  0.8321936933020311  0.8097798886007934  1.0000
