data_image0
_chemical_formula_structural       Li2H10C14N4O14
_chemical_formula_sum              "Li2 H10 C14 N4 O14"
_cell_length_a       4.976036078023807
_cell_length_b       6.0374388615460735
_cell_length_c       15.790846442023263
_cell_angle_alpha    92.59813187701828
_cell_angle_beta     90.00029037531907
_cell_angle_gamma    89.99978657122489

_space_group_name_H-M_alt    "P 1"
_space_group_IT_number       1

loop_
  _space_group_symop_operation_xyz
  'x, y, z'

loop_
  _atom_site_type_symbol
  _atom_site_label
  _atom_site_symmetry_multiplicity
  _atom_site_fract_x
  _atom_site_fract_y
  _atom_site_fract_z
  _atom_site_occupancy
  Li  Li1       1.0  0.49669465538438834  0.097538880783901  0.04004449516710201  1.0000
  Li  Li2       1.0  0.9966966471301291  0.9024705767159844  0.9599552138938992  1.0000
  H   H1        1.0  0.4944568627600745  0.8997063514222747  0.37800885337772183  1.0000
  H   H2        1.0  0.9944609995233693  0.10029649131601559  0.6219894626865428  1.0000
  H   H3        1.0  0.0450660604859294  0.45263807174318066  0.3831653563658507  1.0000
  H   H4        1.0  0.5450580773172646  0.5473544354419317  0.6168377488934313  1.0000
  H   H5        1.0  0.1786935433762551  0.3507370307030087  0.23461873181366857  1.0000
  H   H6        1.0  0.6786895087644211  0.6492600690909712  0.7653834057929533  1.0000
  H   H7        1.0  0.5160910921342037  0.5053582143314229  0.08703451461961721  1.0000
  H   H8        1.0  0.016093353151013897  0.49464767984194685  0.912964359999869  1.0000
  H   H9        1.0  0.2910801315241613  0.48749196318423316  0.015763558558020904  1.0000
  H   H10       1.0  0.7910822393748801  0.5125147925996458  0.9842345050791439  1.0000
  C   C1        1.0  0.0194060188973353  0.021723758821231304  0.1320405820686972  1.0000
  C   C2        1.0  0.5194102111159323  0.9782804568105022  0.867959533238498  1.0000
  C   C3        1.0  0.9168096959677641  0.06776796827716682  0.22146979361802727  1.0000
  C   C4        1.0  0.416813874269245  0.9322301229133317  0.7785289433546226  1.0000
  C   C5        1.0  0.7252138229186544  0.9435093619874381  0.264297423111593  1.0000
  C   C6        1.0  0.22521517836248256  0.0564892916143265  0.7357010180329909  1.0000
  C   C7        1.0  0.6388265265026832  0.0022593879703834  0.3461232820779686  1.0000
  C   C8        1.0  0.1388284059165201  0.9977411718468618  0.6538756896607583  1.0000
  C   C9        1.0  0.7554855678996191  0.1863613672923137  0.3869652697508529  1.0000
  C   C10       1.0  0.25548961821434096  0.8136338652204668  0.6130350560900768  1.0000
  C   C11       1.0  0.9514582335163765  0.3128339292815952  0.34838608279392264  1.0000
  C   C12       1.0  0.45145542922456633  0.6871623752325318  0.6516158427834712  1.0000
  C   C13       1.0  0.026876380467342604  0.25325797683198903  0.2655962575669691  1.0000
  C   C14       1.0  0.5268754326079444  0.7467379105717667  0.7344056148398084  1.0000
  N   N1        1.0  0.6162236079649687  0.7380693520942786  0.22647251160950796  1.0000
  N   N2        1.0  0.11622465864773092  0.2619329320994837  0.7735264560245059  1.0000
  N   N3        1.0  0.67821179767747  0.2402326545306863  0.4750090686344351  1.0000
  N   N4        1.0  0.1782126601067731  0.7597644682324824  0.5249905355061418  1.0000
  O   O1        1.0  0.8596526063882663  0.0373824459545631  0.06982339152843763  1.0000
  O   O2        1.0  0.3596590916898493  0.9626257396107293  0.9301779746912264  1.0000
  O   O3        1.0  0.2682062819487925  0.9865248649424386  0.12614007809256125  1.0000
  O   O4        1.0  0.768210841855094  0.013478636536582697  0.8738585218204382  1.0000
  O   O5        1.0  0.4655526202034323  0.425453146851126  0.033524387354511014  1.0000
  O   O6        1.0  0.9655541660492729  0.5745530967901474  0.9664739456694281  1.0000
  O   O7        1.0  0.7346729932725822  0.652905902301697  0.16338272810472895  1.0000
  O   O8        1.0  0.2346766907549878  0.3470960395845282  0.8366157892368238  1.0000
  O   O9        1.0  0.4163923055715203  0.655757189966124  0.25938519671710486  1.0000
  O   O10       1.0  0.916393248212856  0.3442458873167239  0.7406123656307602  1.0000
  O   O11       1.0  0.8366171088560462  0.3530084423176589  0.5197224017642912  1.0000
  O   O12       1.0  0.3366217721701902  0.6469865466515756  0.48027868252649625  1.0000
  O   O13       1.0  0.4604866484727951  0.16843050034882623  0.5001603947966943  1.0000
  O   O14       1.0  0.9604915938731298  0.8315658099954745  0.49983774563763483  1.0000
