data_image0
_chemical_formula_structural       Al4H34C66N10O26
_chemical_formula_sum              "Al4 H34 C66 N10 O26"
_cell_length_a       6.701248968030452
_cell_length_b       21.875174057751842
_cell_length_c       24.377109649659406
_cell_angle_alpha    109.96960067870002
_cell_angle_beta     89.99074620006913
_cell_angle_gamma    89.99553410364156

_space_group_name_H-M_alt    "P 1"
_space_group_IT_number       1

loop_
  _space_group_symop_operation_xyz
  'x, y, z'

loop_
  _atom_site_type_symbol
  _atom_site_label
  _atom_site_symmetry_multiplicity
  _atom_site_fract_x
  _atom_site_fract_y
  _atom_site_fract_z
  _atom_site_occupancy
  Al  Al1       1.0  0.09986824641265461  0.5015890044229395  0.5001586295841634  1.0000
  Al  Al2       1.0  0.5998603967529802  0.49838178875192085  0.4998006401657945  1.0000
  Al  Al3       1.0  0.6810263750995061  0.999733240930425  0.9989778040697033  1.0000
  Al  Al4       1.0  0.18098544358698376  0.00025679275112369996  0.0010112881591339998  1.0000
  H   H1        1.0  0.06448319345609121  0.7814026340655288  0.9417904341872612  1.0000
  H   H2        1.0  0.5632573756193436  0.2187094586771465  0.058126849495820906  1.0000
  H   H3        1.0  0.0811841098502839  0.6725418312717367  0.868158744147287  1.0000
  H   H4        1.0  0.5793921290705484  0.3275776124792388  0.1317589483860502  1.0000
  H   H5        1.0  0.8304197589708905  0.8583674232289624  0.8148947834037158  1.0000
  H   H6        1.0  0.3309407391834043  0.1415517408087013  0.18511022674588418  1.0000
  H   H7        1.0  0.7509592472566381  0.7185031929217446  0.5552050892645042  1.0000
  H   H8        1.0  0.252454557795005  0.2813697887273747  0.4448891806478414  1.0000
  H   H9        1.0  0.811011105068168  0.8488250221357776  0.7319771742173201  1.0000
  H   H10       1.0  0.31158795512862975  0.15108939170919913  0.26806090547638917  1.0000
  H   H11       1.0  0.9492969814383584  0.5810745954575155  0.6627509461011057  1.0000
  H   H12       1.0  0.4483672279515075  0.4189179067498188  0.3372429432042381  1.0000
  H   H13       1.0  0.6219304390579268  0.1306317576702866  0.9142187135031603  1.0000
  H   H14       1.0  0.12195114945848928  0.8693986182466206  0.08581235722385831  1.0000
  H   H15       1.0  0.6264094573826355  0.20194497602545883  0.852153371779771  1.0000
  H   H16       1.0  0.12644806210181514  0.7981148735345159  0.14790689356274098  1.0000
  H   H17       1.0  0.24102130045215384  0.0860166403507846  0.8747037481027037  1.0000
  H   H18       1.0  0.7410397846911039  0.9139817322310864  0.1252722580013099  1.0000
  H   H19       1.0  0.5673876370432183  0.31783083731784256  0.6706086783396047  1.0000
  H   H20       1.0  0.06751427312966742  0.6821671960871  0.32939539036388504  1.0000
  H   H21       1.0  0.543779135133633  0.3821448911131995  0.6044763146067565  1.0000
  H   H22       1.0  0.043918143158109005  0.6178453720401151  0.3955209087189075  1.0000
  H   H23       1.0  0.18262258298117467  0.40602937185467897  0.6116615190706794  1.0000
  H   H24       1.0  0.6827841218351907  0.593996657987681  0.38833330293956436  1.0000
  H   H25       1.0  0.3771147176396709  0.12473782201495696  0.8074797229570903  1.0000
  H   H26       1.0  0.8770896634402163  0.8752986094401648  0.1925124666296938  1.0000
  H   H27       1.0  0.22814957149855533  0.32132743069168157  0.7123308438374988  1.0000
  H   H28       1.0  0.7282849326697587  0.6787511319428106  0.2876915357375935  1.0000
  H   H29       1.0  0.05692542053158431  0.5965271612264686  0.8066546061386931  1.0000
  H   H30       1.0  0.5552404286576049  0.403587276329887  0.1933162327161142  1.0000
  H   H31       1.0  0.35194809533856397  0.5413407993872923  0.5755308917491461  1.0000
  H   H32       1.0  0.852064159456944  0.4586438272209392  0.42442688090130076  1.0000
  H   H33       1.0  0.4273929488328818  0.9527208371015803  0.9265036295531954  1.0000
  H   H34       1.0  0.927241972844264  0.0473370330204048  0.07344594577426729  1.0000
  C   C1        1.0  0.35241304301145954  0.5613183668379379  0.4339896407323067  1.0000
  C   C2        1.0  0.8523334008019248  0.4386659706663139  0.5659803608177824  1.0000
  C   C3        1.0  0.3472813145672617  0.3923800945724025  0.42696033935832384  1.0000
  C   C4        1.0  0.8471133217895214  0.6075851081436241  0.5730434741064271  1.0000
  C   C5        1.0  0.026858600670586003  0.7125296124267139  0.8549396562608607  1.0000
  C   C6        1.0  0.5256929962535182  0.28753889490064927  0.14500321976601777  1.0000
  C   C7        1.0  0.9423841876182806  0.825951798263695  0.8820972628785952  1.0000
  C   C8        1.0  0.4420809915167538  0.17406700361732422  0.11787900495001219  1.0000
  C   C9        1.0  0.7857175922458312  0.7261303006634137  0.6007335071794557  1.0000
  C   C10       1.0  0.2868131836264922  0.27376806195479014  0.3993351047859405  1.0000
  C   C11       1.0  0.7782706070091264  0.7896016590809793  0.6424942288461466  1.0000
  C   C12       1.0  0.279252521119119  0.21030567665036407  0.3575591485577617  1.0000
  C   C13       1.0  0.8180147780308857  0.7993658192207461  0.7010243293840616  1.0000
  C   C14       1.0  0.31859062785204634  0.20055436873300886  0.2990057175970335  1.0000
  C   C15       1.0  0.8682078866483992  0.747172705794526  0.7196382934596883  1.0000
  C   C16       1.0  0.36823264405399675  0.25277879942417064  0.2803674732833271  1.0000
  C   C17       1.0  0.8839788456668174  0.6833443032523264  0.6772438959007302  1.0000
  C   C18       1.0  0.38369616396271056  0.31661699074133764  0.3227461296987073  1.0000
  C   C19       1.0  0.9088291197505927  0.7559472421268865  0.7803601960624532  1.0000
  C   C20       1.0  0.4085649788237973  0.24403908312371667  0.21962944611036048  1.0000
  C   C21       1.0  0.9735768881640469  0.7020430179820921  0.7962952065648281  1.0000
  C   C22       1.0  0.4727424338157745  0.29798990082741034  0.203671965910722  1.0000
  C   C23       1.0  0.9834418929901929  0.6386007962026953  0.7517911168652418  1.0000
  C   C24       1.0  0.4823633466300379  0.36143828947071205  0.248185750745499  1.0000
  C   C25       1.0  0.9392787673678953  0.6299543223460662  0.6947498961190774  1.0000
  C   C26       1.0  0.43845781539119594  0.3700394376841275  0.30523338534874256  1.0000
  C   C27       1.0  0.8874902568949494  0.8168292184758668  0.825053838294181  1.0000
  C   C28       1.0  0.38749532814681936  0.183142182474775  0.17494370478999594  1.0000
  C   C29       1.0  0.0170956924592645  0.7735926787819167  0.8971331269061409  1.0000
  C   C30       1.0  0.5161997934880987  0.22646809577825883  0.10280662197679649  1.0000
  C   C31       1.0  0.8394132899719792  0.6744867943204369  0.6179233948735784  1.0000
  C   C32       1.0  0.3397394090057517  0.3254512711017554  0.3821004748198292  1.0000
  C   C33       1.0  0.7563037949808944  0.13614275917888105  0.8911608765568885  1.0000
  C   C34       1.0  0.25631725233964175  0.8638918847783118  0.10886750103020398  1.0000
  C   C35       1.0  0.7591093224307458  0.17529520893102554  0.8568433561838019  1.0000
  C   C36       1.0  0.25912261395661323  0.8247586193055415  0.14320523203050334  1.0000
  C   C37       1.0  0.9329421884128097  0.18305302499538084  0.8272632348782165  1.0000
  C   C38       1.0  0.43294733567537946  0.8169915744435912  0.1727691594564789  1.0000
  C   C39       1.0  0.10845498266434822  0.14951818816686568  0.8332004466678739  1.0000
  C   C40       1.0  0.6084331318339196  0.8505246812975289  0.1668180221894531  1.0000
  C   C41       1.0  0.10609678413606362  0.11120459278544802  0.8689636245632854  1.0000
  C   C42       1.0  0.6061041510252991  0.8888094998710089  0.13103116642621163  1.0000
  C   C43       1.0  0.9317240790827553  0.10398089361316908  0.8974308797849844  1.0000
  C   C44       1.0  0.4317390386990638  0.8960386818843704  0.1025746565066257  1.0000
  C   C45       1.0  0.8957816688353547  0.29245981099928997  0.7220545175896544  1.0000
  C   C46       1.0  0.39589930550287283  0.7075576026313541  0.2779586646864444  1.0000
  C   C47       1.0  0.9238186546814403  0.22522583502962581  0.7917299167995749  1.0000
  C   C48       1.0  0.42385486759586405  0.7748000571426558  0.20828056929298808  1.0000
  C   C49       1.0  0.701713333555695  0.3369669544864635  0.6574804626278875  1.0000
  C   C50       1.0  0.20183998941622863  0.6630517922248701  0.3425291116672824  1.0000
  C   C51       1.0  0.6878689924944724  0.3726821147670165  0.6205132328207127  1.0000
  C   C52       1.0  0.18797755647914022  0.6273289007005404  0.37949048187337553  1.0000
  C   C53       1.0  0.8624367277294028  0.3978495351903105  0.6041298538160902  1.0000
  C   C54       1.0  0.36257160286773876  0.6021668105284518  0.39586931874951864  1.0000
  C   C55       1.0  0.04815969528886651  0.3864202889995312  0.6244631951800911  1.0000
  C   C56       1.0  0.548326984021621  0.6136193946629903  0.37554513765926595  1.0000
  C   C57       1.0  0.0636347508640753  0.35138717452409907  0.6628067203362632  1.0000
  C   C58       1.0  0.5637939174542979  0.6486703007791165  0.3372182136645918  1.0000
  C   C59       1.0  0.8872166083632109  0.3261869123099501  0.6800331554597109  1.0000
  C   C60       1.0  0.3873526241807498  0.6738602898928222  0.320000612932553  1.0000
  C   C61       1.0  0.4332975131576545  0.10750514768621848  0.0729705306700339  1.0000
  C   C62       1.0  0.9334545505245799  0.8924972520928803  0.9270074279706862  1.0000
  C   C63       1.0  0.43201851680309744  0.9382242119206765  0.06563586266790367  1.0000
  C   C64       1.0  0.9318922811261957  0.06178842634381703  0.9343600777324212  1.0000
  C   C65       1.0  0.7299648265106882  0.8438026420676153  0.6251167984076034  1.0000
  C   C66       1.0  0.2314403885493874  0.15609090539985707  0.37498378250646874  1.0000
  N   N1        1.0  0.0908665927293839  0.2543965038452071  0.7820809668722504  1.0000
  N   N2        1.0  0.5909549256712481  0.7456501129661177  0.2179279072994831  1.0000
  N   N3        1.0  0.07511071973221561  0.2870057929314953  0.7458159729146273  1.0000
  N   N4        1.0  0.5752166683934875  0.7130419627965026  0.2541967543118274  1.0000
  N   N5        1.0  0.7231455129759963  0.2729691352011229  0.7410677666526481  1.0000
  N   N6        1.0  0.22323117755161798  0.7270111136314767  0.2589211525611077  1.0000
  N   N7        1.0  0.7386050348275149  0.23822464670731594  0.7750181737212855  1.0000
  N   N8        1.0  0.23865246714116492  0.7617537942495577  0.22496867221043707  1.0000
  N   N9        1.0  0.6906900496125414  0.8886062416936082  0.6113600837070833  1.0000
  N   N10       1.0  0.1922849994402327  0.1113115361768067  0.3887792863676367  1.0000
  O   O1        1.0  0.5185788159637994  0.4164345541839864  0.443468280471464  1.0000
  O   O2        1.0  0.018429406097581605  0.5835189210501569  0.5565272623324944  1.0000
  O   O3        1.0  0.18046379743096708  0.5475309879640875  0.44894544997860925  1.0000
  O   O4        1.0  0.6804124136408376  0.452464924189755  0.5510340141627806  1.0000
  O   O5        1.0  0.18010577473333458  0.419477063208298  0.44405794185621517  1.0000
  O   O6        1.0  0.6799810351497867  0.5804975453276383  0.5559090167260621  1.0000
  O   O7        1.0  0.018539655936706395  0.45794317902890214  0.5523266348674412  1.0000
  O   O8        1.0  0.5185894482992807  0.5420110555097609  0.44762381462502526  1.0000
  O   O9        1.0  0.3501017841397811  0.5121868508771428  0.5353703771867445  1.0000
  O   O10       1.0  0.8501648999890746  0.4877989798904848  0.4645879712088926  1.0000
  O   O11       1.0  0.2617340631886407  0.9547658192689851  0.0521640136971726  1.0000
  O   O12       1.0  0.761580489785061  0.04539331308371426  0.9479405012216092  1.0000
  O   O13       1.0  0.6009584281676084  0.0822383228862336  0.0533995757435335  1.0000
  O   O14       1.0  0.10105483625348201  0.9176876161676193  0.9467078766439557  1.0000
  O   O15       1.0  0.6011799182467995  0.9549107351505771  0.0512724853930209  1.0000
  O   O16       1.0  0.10100948391908561  0.04493947407974017  0.9486083515741653  1.0000
  O   O17       1.0  0.7631578236692816  0.9187743979042863  0.9413331102146786  1.0000
  O   O18       1.0  0.2629816338891758  0.08130879053037182  0.05851142185684209  1.0000
  O   O19       1.0  0.42979304390017603  0.9870340578447028  0.9643146740180555  1.0000
  O   O20       1.0  0.9297737898429191  0.0129581672658574  0.03567677226564571  1.0000
  O   O21       1.0  0.27460599864914315  0.15439551142835475  0.8030412977586677  1.0000
  O   O22       1.0  0.7745768913493761  0.8456581922052708  0.19697543851430774  1.0000
  O   O23       1.0  0.2463985729002331  0.3440387272550113  0.6826660594790965  1.0000
  O   O24       1.0  0.7465470331263119  0.6560497691407577  0.31736707056056446  1.0000
  O   O25       1.0  0.0372980855336777  0.5849440166541058  0.7647762227509816  1.0000
  O   O26       1.0  0.5356422404568519  0.4151421831828089  0.23519898853999877  1.0000
