data_image0
_chemical_formula_structural       Cd2H26C22S2N2O14
_chemical_formula_sum              "Cd2 H26 C22 S2 N2 O14"
_cell_length_a       5.174028713529161
_cell_length_b       7.728132125089262
_cell_length_c       17.047422358432343
_cell_angle_alpha    96.14101972808334
_cell_angle_beta     89.99898253599072
_cell_angle_gamma    90.00136652640863

_space_group_name_H-M_alt    "P 1"
_space_group_IT_number       1

loop_
  _space_group_symop_operation_xyz
  'x, y, z'

loop_
  _atom_site_type_symbol
  _atom_site_label
  _atom_site_symmetry_multiplicity
  _atom_site_fract_x
  _atom_site_fract_y
  _atom_site_fract_z
  _atom_site_occupancy
  Cd  Cd1       1.0  0.4124695051344958  0.0797665246220021  0.607014075689051  1.0000
  Cd  Cd2       1.0  0.912451085791133  0.9202216729314118  0.3929860051928671  1.0000
  H   H1        1.0  0.056751268385028204  0.5754828498548861  0.7604183771055162  1.0000
  H   H2        1.0  0.5567140516900793  0.4245208857727506  0.2395874499610073  1.0000
  H   H3        1.0  0.5725749069141841  0.42262207731738505  0.6883542013276341  1.0000
  H   H4        1.0  0.07253499946272511  0.577363633600811  0.31165294952663203  1.0000
  H   H5        1.0  0.045232290627446  0.5484861645305159  0.6024935595058949  1.0000
  H   H6        1.0  0.5452316109439082  0.45150324755690013  0.3975016183660358  1.0000
  H   H7        1.0  0.8078998439746387  0.4076564966360365  0.5552536222301329  1.0000
  H   H8        1.0  0.3079109679021386  0.5923313682143528  0.444752897915862  1.0000
  H   H9        1.0  0.46556034801135837  0.623862493818571  0.5856539003403755  1.0000
  H   H10       1.0  0.9655734141571344  0.37611332921274954  0.4143540391424807  1.0000
  H   H11       1.0  0.6761668163000037  0.7599117205739673  0.6454235391355354  1.0000
  H   H12       1.0  0.17616265926596952  0.24007429964791538  0.3545777631938805  1.0000
  H   H13       1.0  0.3121558551710423  0.34288762545589435  0.8138357725309789  1.0000
  H   H14       1.0  0.8121724983121157  0.6571369312081642  0.1861608912083952  1.0000
  H   H15       1.0  0.3020467484951368  0.07924203210972541  0.8850882709957872  1.0000
  H   H16       1.0  0.802105837751881  0.9207915143486928  0.1149071553574643  1.0000
  H   H17       1.0  0.6381873966005714  0.03635622884196011  0.9858292442908833  1.0000
  H   H18       1.0  0.1382534399946707  0.9636540638446647  0.014167076369844291  1.0000
  H   H19       1.0  0.9829384348248665  0.25839329028168834  0.0155850442359622  1.0000
  H   H20       1.0  0.4829786682515832  0.7416142312472616  0.9844115329014401  1.0000
  H   H21       1.0  0.9908180492266682  0.5243313906237717  0.9453740304698499  1.0000
  H   H22       1.0  0.4908334078782843  0.47567748173432994  0.05462667849592151  1.0000
  H   H23       1.0  0.2539980392783505  0.8402712665139094  0.7198012222454935  1.0000
  H   H24       1.0  0.7539683769931997  0.1597261967826071  0.2802072726043789  1.0000
  H   H25       1.0  0.0279335006585271  0.9568433619941814  0.6869525488571924  1.0000
  H   H26       1.0  0.5278978136891865  0.0431470112007446  0.3130480560850587  1.0000
  C   C1        1.0  0.9237144867142323  0.2690020840555221  0.6848592661797782  1.0000
  C   C2        1.0  0.4236953494793098  0.7309928050487999  0.3151399244763908  1.0000
  C   C3        1.0  0.7816078900250434  0.4421986933927258  0.6825690275811596  1.0000
  C   C4        1.0  0.2815746869486162  0.5577979792828174  0.3174328176869282  1.0000
  C   C5        1.0  0.8406504576966116  0.5112887994821449  0.6032947233252202  1.0000
  C   C6        1.0  0.3406489742725327  0.4886983313917099  0.3967062944005377  1.0000
  C   C7        1.0  0.6684434302123634  0.6656548877719431  0.592398242533207  1.0000
  C   C8        1.0  0.1684493317441564  0.33433365957721156  0.40760088777470577  1.0000
  C   C9        1.0  0.7348672880161331  0.7600947117141814  0.522351735036402  1.0000
  C   C10       1.0  0.2348735962766639  0.2398895794428313  0.4776485596772204  1.0000
  C   C11       1.0  0.6505885987701845  0.4487553392545821  0.8762406288149054  1.0000
  C   C12       1.0  0.1505969787065311  0.5512576909649455  0.1237586968121178  1.0000
  C   C13       1.0  0.4562586138579761  0.32500452295560933  0.8587180934776768  1.0000
  C   C14       1.0  0.9562900187490441  0.6750169496659028  0.1412775968811104  1.0000
  C   C15       1.0  0.45298078703995504  0.17644404124364146  0.8985665285960778  1.0000
  C   C16       1.0  0.9530158912504448  0.8235812778855163  0.10142996604943022  1.0000
  C   C17       1.0  0.641284646006504  0.15263336793041304  0.9550524119840914  1.0000
  C   C18       1.0  0.1413273970743916  0.8473666063512227  0.0449404238869135  1.0000
  C   C19       1.0  0.835079299693355  0.2770706101230189  0.9717692872571106  1.0000
  C   C20       1.0  0.335143657525208  0.7229333764835602  0.028231461312771  1.0000
  C   C21       1.0  0.8413335261823465  0.42620618588463804  0.9324427921344522  1.0000
  C   C22       1.0  0.34134394254179057  0.5738043520086293  0.0675611935778591  1.0000
  S   S1        1.0  0.6756396480527583  0.6311791631825018  0.8216922376974268  1.0000
  S   S2        1.0  0.17560749927801572  0.3688367909268778  0.17831003107261273  1.0000
  N   N1        1.0  0.8635097959702518  0.5729857164044746  0.7465529767042867  1.0000
  N   N2        1.0  0.3634677749539961  0.4270226491074638  0.253444318695216  1.0000
  O   O1        1.0  0.166594506221017  0.2771234349259046  0.6935942612549157  1.0000
  O   O2        1.0  0.6665758181937916  0.7228781180669303  0.30640437977507423  1.0000
  O   O3        1.0  0.797551330557191  0.12527148009561273  0.6743368289068671  1.0000
  O   O4        1.0  0.29754254983729567  0.8747280208079218  0.32566565933345265  1.0000
  O   O5        1.0  0.9064978612741613  0.7002281159707524  0.4738103912200558  1.0000
  O   O6        1.0  0.4065132481064921  0.2997613427520206  0.5261868555156825  1.0000
  O   O7        1.0  0.6121688183172793  0.9005905277296835  0.5115564016673703  1.0000
  O   O8        1.0  0.11216561965564148  0.09939847351498093  0.48844424314067686  1.0000
  O   O9        1.0  0.8093799045967031  0.7692956057791064  0.8689428444134749  1.0000
  O   O10       1.0  0.30936092647621655  0.2307107090234339  0.13105171729366566  1.0000
  O   O11       1.0  0.42093632314536933  0.6637015130946152  0.789607936987281  1.0000
  O   O12       1.0  0.9209033857925277  0.3363076979164745  0.21038907792078732  1.0000
  O   O13       1.0  0.1826785510807056  0.8835499723508776  0.6723268468221733  1.0000
  O   O14       1.0  0.6826466002108091  0.11643735956972281  0.3276797662701371  1.0000
