data_image0
_chemical_formula_structural       Cu2P6H38C28N2O20
_chemical_formula_sum              "Cu2 P6 H38 C28 N2 O20"
_cell_length_a       9.697761169325792
_cell_length_b       9.824668944954754
_cell_length_c       10.187507787641351
_cell_angle_alpha    80.3846335928527
_cell_angle_beta     74.43736152260294
_cell_angle_gamma    87.51416339615112

_space_group_name_H-M_alt    "P 1"
_space_group_IT_number       1

loop_
  _space_group_symop_operation_xyz
  'x, y, z'

loop_
  _atom_site_type_symbol
  _atom_site_label
  _atom_site_symmetry_multiplicity
  _atom_site_fract_x
  _atom_site_fract_y
  _atom_site_fract_z
  _atom_site_occupancy
  Cu  Cu1       1.0  0.7942541349319471  0.35257049427615783  0.7123619789161353  1.0000
  Cu  Cu2       1.0  0.27780986358759924  0.6756104921131154  0.6780946181004879  1.0000
  P   P1        1.0  0.86133063133898  0.1053708236713291  0.5212904501482001  1.0000
  P   P2        1.0  0.18203672157062564  0.4962040128225525  0.0038599579058597607  1.0000
  P   P3        1.0  0.878044582157095  0.5323497247524288  0.38534806771905045  1.0000
  P   P4        1.0  0.20681795291263683  0.9249912672186866  0.865035736592681  1.0000
  P   P5        1.0  0.3776460922639444  0.37803253642490386  0.6207378266675505  1.0000
  P   P6        1.0  0.67171671940978  0.6452959769464145  0.768338843503834  1.0000
  H   H1        1.0  0.09836710277712511  0.5921216932042839  0.25063184577463454  1.0000
  H   H2        1.0  0.2211889072724347  0.7422393706880897  0.03144950676382054  1.0000
  H   H3        1.0  0.9065073008000443  0.6969219356799032  0.6454511491408681  1.0000
  H   H4        1.0  0.8410940917892875  0.2881389091308932  0.356725735611036  1.0000
  H   H5        1.0  0.9630945637315592  0.43542386498741353  0.13925757738432049  1.0000
  H   H6        1.0  0.7718502567697173  0.8898959246481866  0.616738933775018  1.0000
  H   H7        1.0  0.5257069925882406  0.4960823091322768  0.69069669389976  1.0000
  H   H8        1.0  0.29389364556592323  0.1454967092327735  0.7679824589507334  1.0000
  H   H9        1.0  0.4412395663789539  0.9936490966192654  0.0032784083522301136  1.0000
  H   H10       1.0  0.6172912662404856  0.04159580096599311  0.3865128606996819  1.0000
  H   H11       1.0  0.047558007039981504  0.07199574414266151  0.999978062564246  1.0000
  H   H12       1.0  0.008657158727054104  0.0696783644438099  0.8396746277908703  1.0000
  H   H13       1.0  0.5407375747390759  0.3632759120446566  0.4017602610555429  1.0000
  H   H14       1.0  0.5060681344039963  0.20179121442404838  0.510277102297735  1.0000
  H   H15       1.0  0.5708383294456  0.1413546729028639  0.7907259212391723  1.0000
  H   H16       1.0  0.8360031738385133  0.9142213299495555  0.8200825298641662  1.0000
  H   H17       1.0  0.22755392991782494  0.11524532362613371  0.5641358905625112  1.0000
  H   H18       1.0  0.9684301989374975  0.8663378188559533  0.1950919961237929  1.0000
  H   H19       1.0  0.48978998704884463  0.8923244256303066  0.5995068678509838  1.0000
  H   H20       1.0  0.09798506775319281  0.15920184433657888  0.18737218780619  1.0000
  H   H21       1.0  0.5608467935532957  0.8329967667419993  0.8718212322204124  1.0000
  H   H22       1.0  0.5163699227658256  0.6757142092696286  0.9850745658740864  1.0000
  H   H23       1.0  0.057677401376338415  0.9555464881729494  0.5420626766871379  1.0000
  H   H24       1.0  0.014560455591848206  0.9573411419895164  0.38253877536408976  1.0000
  H   H25       1.0  0.6141839261070174  0.6293426440692543  0.17489546037224096  1.0000
  H   H26       1.0  0.3611898592993157  0.857854675044358  0.17188061084181783  1.0000
  H   H27       1.0  0.7148616208317693  0.15800214979264385  0.21408758112587373  1.0000
  H   H28       1.0  0.6536935247629145  0.6403160943869751  0.3953401832071394  1.0000
  H   H29       1.0  0.7804664927637647  0.7540167331604696  0.4130320448236162  1.0000
  H   H30       1.0  0.8214848129473823  0.3099663856711388  0.9950103165972166  1.0000
  H   H31       1.0  0.2578372346795916  0.7042052661983507  0.3919109676029819  1.0000
  H   H32       1.0  0.28222982274439806  0.2772365530687892  0.9691452849845492  1.0000
  H   H33       1.0  0.40851084537086285  0.3909397156733903  0.9885505854169452  1.0000
  H   H34       1.0  0.4495866622908622  0.3991259379601504  0.20860355712991213  1.0000
  H   H35       1.0  0.055668030670432224  0.6222128474682549  0.5207108207080042  1.0000
  H   H36       1.0  0.9982876157114905  0.4211292812996633  0.8609974500491331  1.0000
  H   H37       1.0  0.1038175348159669  0.3474324365670327  0.7482173815538999  1.0000
  H   H38       1.0  0.029860127557704206  0.5465255381471723  0.6752500112564164  1.0000
  C   C1        1.0  0.7144632757073738  0.7660875982469338  0.9878776736498621  1.0000
  C   C2        1.0  0.34957677935798875  0.2622702125780876  0.39555705616609776  1.0000
  C   C3        1.0  0.9170640228284485  0.8987713114245323  0.9984972886804899  1.0000
  C   C4        1.0  0.5274187615332195  0.058378514489760405  0.007694067357021989  1.0000
  C   C5        1.0  0.5354428967338338  0.9720606653853499  0.3814534180915529  1.0000
  C   C6        1.0  0.033667000482466805  0.0039325749866350014  0.9289611678854258  1.0000
  C   C7        1.0  0.454481350212518  0.2960706481666193  0.4707451277064224  1.0000
  C   C8        1.0  0.1489810819122681  0.12759473639278707  0.3842898558811925  1.0000
  C   C9        1.0  0.5984341193653507  0.142495966040407  0.887110874063396  1.0000
  C   C10       1.0  0.7896288523561878  0.7398153928539558  0.20094330205446204  1.0000
  C   C11       1.0  0.8244498687644609  0.8628035596337401  0.9257169365190309  1.0000
  C   C12       1.0  0.24035648745844906  0.16474534493120532  0.4577083392388063  1.0000
  C   C13       1.0  0.49884467268404364  0.9667628748569331  0.25843578042838533  1.0000
  C   C14       1.0  0.8981961659162678  0.8372021885738548  0.13663113228943755  1.0000
  C   C15       1.0  0.5679816365894582  0.0587453187226075  0.12964234272354253  1.0000
  C   C16       1.0  0.46576573905262125  0.8875570351723568  0.5021393590176331  1.0000
  C   C17       1.0  0.27540403709444655  0.2871547287051613  0.18206154068192154  1.0000
  C   C18       1.0  0.16774880889347807  0.18878352239131152  0.24607929393052796  1.0000
  C   C19       1.0  0.6067265493754802  0.7364018785102504  0.9140446895272235  1.0000
  C   C20       1.0  0.03163899940727791  0.023101695845795706  0.45427002143865997  1.0000
  C   C21       1.0  0.700467562990319  0.7036143106335332  0.12453079520795277  1.0000
  C   C22       1.0  0.3948118038491799  0.8697543309452698  0.26304244776859786  1.0000
  C   C23       1.0  0.6771879575214826  0.150471913909179  0.12409258393488891  1.0000
  C   C24       1.0  0.764210878430916  0.6779576594316341  0.35075665982185456  1.0000
  C   C25       1.0  0.7397732049419262  0.2351469248533463  0.001129191117406902  1.0000
  C   C26       1.0  0.3337033223945199  0.7846472016794621  0.38628170325181094  1.0000
  C   C27       1.0  0.2986714082984037  0.3514042282270112  0.03329207281298348  1.0000
  C   C28       1.0  0.3640624600897056  0.3239989481369321  0.2586589165579198  1.0000
  N   N1        1.0  0.36671634233909606  0.7952909530185794  0.5042471651470066  1.0000
  N   N2        1.0  0.7028836601934431  0.22936830572494685  0.8839963371881084  1.0000
  O   O1        1.0  0.3188510211010324  0.5188077527211805  0.5728795291690432  1.0000
  O   O2        1.0  0.26354012068074445  0.27836009682366136  0.7212087479260205  1.0000
  O   O3        1.0  0.7341219156608433  0.5073264371724022  0.8193435581098852  1.0000
  O   O4        1.0  0.03654339899642881  0.593299771563494  0.3506054989623308  1.0000
  O   O5        1.0  0.18585267554333032  0.5992417360032007  0.10141702122961499  1.0000
  O   O6        1.0  0.2549372778446681  0.843928605158439  0.9920996742943943  1.0000
  O   O7        1.0  0.8310178974810115  0.4777822508684793  0.5373467795726087  1.0000
  O   O8        1.0  0.8798171813648639  0.1918496563876033  0.6248050182988223  1.0000
  O   O9        1.0  0.8749620970774785  0.4280277035377297  0.2889760679211549  1.0000
  O   O10       1.0  0.19219218207832972  0.8380116290488931  0.7601559289913882  1.0000
  O   O11       1.0  0.7974616425792149  0.7429312255222271  0.6664095137616571  1.0000
  O   O12       1.0  0.8087610005876444  0.18514297932546953  0.39707541400763796  1.0000
  O   O13       1.0  0.2248925876671564  0.5527080089766657  0.8522524259549727  1.0000
  O   O14       1.0  0.024302523754599303  0.43374809750944365  0.03979003894379932  1.0000
  O   O15       1.0  0.5511903471225565  0.6375236159423848  0.7004245886327639  1.0000
  O   O16       1.0  0.7437376610704052  0.9898574043501545  0.5821823622571641  1.0000
  O   O17       1.0  0.5052907413984258  0.39222388951390036  0.6856603142115034  1.0000
  O   O18       1.0  0.32184276880227  0.04129687798270251  0.8078380827191439  1.0000
  O   O19       1.0  0.0374311753315482  0.6423691836123666  0.6156917773265534  1.0000
  O   O20       1.0  0.010014632131046104  0.39787020272852663  0.768447138826815  1.0000
