data_image0
_chemical_formula_structural       Ni2Mo4H24C30N6O14
_chemical_formula_sum              "Ni2 Mo4 H24 C30 N6 O14"
_cell_length_a       7.2218207462488255
_cell_length_b       10.917878005142668
_cell_length_c       11.226517636628595
_cell_angle_alpha    98.65175489576463
_cell_angle_beta     87.7728087732413
_cell_angle_gamma    106.61797350557546

_space_group_name_H-M_alt    "P 1"
_space_group_IT_number       1

loop_
  _space_group_symop_operation_xyz
  'x, y, z'

loop_
  _atom_site_type_symbol
  _atom_site_label
  _atom_site_symmetry_multiplicity
  _atom_site_fract_x
  _atom_site_fract_y
  _atom_site_fract_z
  _atom_site_occupancy
  Ni  Ni1       1.0  0.4999987123179396  8.89270523995878e-08  0.5000002719919294  1.0000
  Ni  Ni2       1.0  0.4999984357755877  2.5271947307996993e-06  0.9999996195362757  1.0000
  Mo  Mo1       1.0  0.25378325158381193  0.09007269966842561  0.2742066003172496  1.0000
  Mo  Mo2       1.0  0.7462114971656605  0.9099223812281779  0.7257919592263066  1.0000
  Mo  Mo3       1.0  0.7684889020414761  0.8930525442285319  0.22411076502984176  1.0000
  Mo  Mo4       1.0  0.23150429274129888  0.10694544083462891  0.7758891138580283  1.0000
  H   H1        1.0  0.7112135096164636  0.1725646948788722  0.2698598368194851  1.0000
  H   H2        1.0  0.28878563589387346  0.8274342438120146  0.73014010608631  1.0000
  H   H3        1.0  0.990729519622434  0.36319736263593677  0.314624941101151  1.0000
  H   H4        1.0  0.00926668660700619  0.6368015795046136  0.685380382770262  1.0000
  H   H5        1.0  0.5899508632023683  0.5955880500397299  0.37012936400771684  1.0000
  H   H6        1.0  0.41004976291194595  0.40440412011563626  0.6298624783627673  1.0000
  H   H7        1.0  0.324525314650316  0.38969955725058  0.3222692389274115  1.0000
  H   H8        1.0  0.6754732589125538  0.6102974533853073  0.6777224201783909  1.0000
  H   H9        1.0  0.4633115701305002  0.7404677478089852  0.3572726696920158  1.0000
  H   H10       1.0  0.5366833387018134  0.25953410269864463  0.642725952664705  1.0000
  H   H11       1.0  0.19965362839074166  0.5437243940980919  0.2851510642451984  1.0000
  H   H12       1.0  0.800339453558067  0.45627649294006295  0.7148483347107303  1.0000
  H   H13       1.0  0.8017559497952578  0.7303230204083277  0.4817589065324839  1.0000
  H   H14       1.0  0.19823226411870817  0.2696730417743467  0.5182407600038275  1.0000
  H   H15       1.0  0.08046349932243399  0.9201424115118044  0.5375082786880797  1.0000
  H   H16       1.0  0.9195214192645197  0.0798555927681193  0.46249081017207766  1.0000
  H   H17       1.0  0.545229877833421  0.7322508567323638  0.9756693363098138  1.0000
  H   H18       1.0  0.45478181683609625  0.26776158932170807  0.024337710106486613  1.0000
  H   H19       1.0  0.33458293339634093  0.508976330597058  0.9738453156815013  1.0000
  H   H20       1.0  0.6654388061401021  0.49103415493436836  0.026167571334575295  1.0000
  H   H21       1.0  0.8481387830892687  0.6695911716804304  0.01678341712345602  1.0000
  H   H22       1.0  0.1518776711639944  0.3304087003053482  0.9832075428295681  1.0000
  H   H23       1.0  0.07834713340334092  0.8827408383807126  0.00721618517761875  1.0000
  H   H24       1.0  0.9216558084126589  0.11726002958273092  0.9927777484969766  1.0000
  C   C1        1.0  0.6914934631342433  0.2685292115728545  0.29190247739805397  1.0000
  C   C2        1.0  0.3085048253513208  0.7314677943957905  0.7080980937733159  1.0000
  C   C3        1.0  0.8475078849913089  0.3774014729556825  0.3175007929578229  1.0000
  C   C4        1.0  0.15248834854889995  0.622594565809699  0.6825076844652003  1.0000
  C   C5        1.0  0.8155327314958426  0.49886008832947226  0.34850507540244996  1.0000
  C   C6        1.0  0.18446273173974254  0.5011369229557446  0.6514973119083082  1.0000
  C   C7        1.0  0.6236906261208759  0.5040556280688833  0.3505292708780487  1.0000
  C   C8        1.0  0.37630016863397503  0.4959365616279144  0.6494671455672077  1.0000
  C   C9        1.0  0.4759323023980215  0.3912151118659891  0.3228669186417861  1.0000
  C   C10       1.0  0.5240598491633153  0.6087799780809747  0.6771263273887201  1.0000
  C   C11       1.0  0.3145770562201804  0.7326037490705772  0.3840155419244269  1.0000
  C   C12       1.0  0.6854261276110093  0.2673951783783863  0.6159879152181703  1.0000
  C   C13       1.0  0.16624492937409496  0.6226475704479456  0.34503000406996165  1.0000
  C   C14       1.0  0.833755457714844  0.37735136278430303  0.6549743780054699  1.0000
  C   C15       1.0  0.9759339651934199  0.6162794847935089  0.38096613338382224  1.0000
  C   C16       1.0  0.024065236135420852  0.38371655098892893  0.6190360718670292  1.0000
  C   C17       1.0  0.9448674731332148  0.7258331613373982  0.4512985505846103  1.0000
  C   C18       1.0  0.05512248333801751  0.2741667667564656  0.5486989682139978  1.0000
  C   C19       1.0  0.10029701508628364  0.8331297236775725  0.4843113547946274  1.0000
  C   C20       1.0  0.8996969523950185  0.1668730965495442  0.5156865246891656  1.0000
  C   C21       1.0  0.3892421395263384  0.7129825364099249  0.9841334408129258  1.0000
  C   C22       1.0  0.6107706105251154  0.2870289417915545  0.015870783650065324  1.0000
  C   C23       1.0  0.2687402043273793  0.5881094431255747  0.9848789558404507  1.0000
  C   C24       1.0  0.7312763844908119  0.41190202056691316  0.015135021305233925  1.0000
  C   C25       1.0  0.0673388420612397  0.5657738855022316  0.9978759336090093  1.0000
  C   C26       1.0  0.9326810827521755  0.4342317735909375  0.002128275195609296  1.0000
  C   C27       1.0  0.0007327701842501644  0.6757907499694727  0.006096878565522058  1.0000
  C   C28       1.0  0.9992822144285612  0.3242091237411485  0.9938967718703182  1.0000
  C   C29       1.0  0.12936764656492986  0.7976001782577029  0.003235626791315829  1.0000
  C   C30       1.0  0.8706427034586  0.20240550457741346  0.9967651352290688  1.0000
  N   N1        1.0  0.5084952837849527  0.2752353557290377  0.2945196591888717  1.0000
  N   N2        1.0  0.4915028755193945  0.7247606887790995  0.7054718684464447  1.0000
  N   N3        1.0  0.2830196714999573  0.8361704168446664  0.4536137446441515  1.0000
  N   N4        1.0  0.7169680426322957  0.16382467781007648  0.5463884640413356  1.0000
  N   N5        1.0  0.3219720055779688  0.8172983796167582  0.9937257040610634  1.0000
  N   N6        1.0  0.6780371762296581  0.18271117304595214  0.0062773999806751005  1.0000
  O   O1        1.0  0.39057135129281306  0.03956481294518  0.1515155980127503  1.0000
  O   O2        1.0  0.6094282928022778  0.9604321894317353  0.8484858475020333  1.0000
  O   O3        1.0  0.3275876806906696  0.09202300054647593  0.4244262747300239  1.0000
  O   O4        1.0  0.6724023030913457  0.9079740241722191  0.5755743976201941  1.0000
  O   O5        1.0  0.03239752617064817  0.9363066887190501  0.2619809057985877  1.0000
  O   O6        1.0  0.9675964971291721  0.06369322859961808  0.7380192360302615  1.0000
  O   O7        1.0  0.6411829698409761  0.9655464304849063  0.3385137390311571  1.0000
  O   O8        1.0  0.35881158055133255  0.0344515509865246  0.6614870142001196  1.0000
  O   O9        1.0  0.7407173753796882  0.9441376102986964  0.08706831983494108  1.0000
  O   O10       1.0  0.25928124303815286  0.05586326423942722  0.9129310116684196  1.0000
  O   O11       1.0  0.12658362054580863  0.1993179090020476  0.2554539104436699  1.0000
  O   O12       1.0  0.8734151677214685  0.8006800644945288  0.744544118578517  1.0000
  O   O13       1.0  0.6706224943822222  0.7260346698335596  0.20619992754939187  1.0000
  O   O14       1.0  0.32936798918149895  0.2739633224130671  0.7937982026516508  1.0000
