data_image0
_chemical_formula_structural       Cd2H32C36S6N8O8
_chemical_formula_sum              "Cd2 H32 C36 S6 N8 O8"
_cell_length_a       9.049641385587748
_cell_length_b       10.683033811724163
_cell_length_c       11.531805964028841
_cell_angle_alpha    78.18941237692646
_cell_angle_beta     86.59150157775248
_cell_angle_gamma    77.31364734018321

_space_group_name_H-M_alt    "P 1"
_space_group_IT_number       1

loop_
  _space_group_symop_operation_xyz
  'x, y, z'

loop_
  _atom_site_type_symbol
  _atom_site_label
  _atom_site_symmetry_multiplicity
  _atom_site_fract_x
  _atom_site_fract_y
  _atom_site_fract_z
  _atom_site_occupancy
  Cd  Cd1       1.0  0.6232081082040041  0.9085227939848011  0.8895700091330597  1.0000
  Cd  Cd2       1.0  0.37679568066383956  0.0914794273831063  0.11042783623483392  1.0000
  H   H1        1.0  0.9550858156731081  0.5283463738384596  0.7897231645169214  1.0000
  H   H2        1.0  0.044916194500117954  0.4716539697518699  0.21028120384711704  1.0000
  H   H3        1.0  0.03830251403552149  0.6563648972776831  0.7136439069650393  1.0000
  H   H4        1.0  0.9616984121555491  0.3436354046350516  0.2863570489244722  1.0000
  H   H5        1.0  0.9111709522960679  0.1652560585719414  0.08241170673164791  1.0000
  H   H6        1.0  0.08883693610081882  0.8347383743095803  0.9175909744726667  1.0000
  H   H7        1.0  0.989910642468374  0.9969442315501452  0.11282543353810581  1.0000
  H   H8        1.0  0.010091720693544897  0.003050188173652705  0.8871757611698502  1.0000
  H   H9        1.0  0.7502296240591874  0.7744848348127675  0.14389740675440518  1.0000
  H   H10       1.0  0.2497677531520566  0.22551642908557307  0.8561017809519669  1.0000
  H   H11       1.0  0.7345716912151229  0.5945289510233139  0.3089932209360883  1.0000
  H   H12       1.0  0.2654272879775092  0.40547032151547313  0.6910036900078964  1.0000
  H   H13       1.0  0.3709095126294101  0.5134539057064701  0.12758097945587107  1.0000
  H   H14       1.0  0.6290891369798927  0.4865512473143455  0.872415643838352  1.0000
  H   H15       1.0  0.4028370175314606  0.7012346067121484  0.9659970182468245  1.0000
  H   H16       1.0  0.5971598826399429  0.2987686143004638  0.0340018014112431  1.0000
  H   H17       1.0  0.4291741818175366  0.464164944802036  0.38911154007473675  1.0000
  H   H18       1.0  0.5708221790695801  0.5358314188783169  0.6108878000885554  1.0000
  H   H19       1.0  0.49232232172530355  0.35051619262549144  0.2989876798723401  1.0000
  H   H20       1.0  0.5076791107623108  0.6494820979423465  0.7010093174331687  1.0000
  H   H21       1.0  0.7054672800385902  0.44758478001465113  0.4445261811148383  1.0000
  H   H22       1.0  0.29452898393378035  0.5524164964367203  0.5554739207493071  1.0000
  H   H23       1.0  0.7596259415937964  0.3250924964243751  0.36017052643676106  1.0000
  H   H24       1.0  0.24037404222027448  0.6749116980246512  0.6398279627032224  1.0000
  H   H25       1.0  0.47050903895432583  0.1914215690710961  0.4542353585632171  1.0000
  H   H26       1.0  0.529493000475611  0.8085787202886082  0.5457646831685209  1.0000
  H   H27       1.0  0.4624164264630366  0.022602940874378398  0.639050585941611  1.0000
  H   H28       1.0  0.5375815693932112  0.9774003001235696  0.36094991553807193  1.0000
  H   H29       1.0  0.7918508906086217  0.14158507972740608  0.797172916448396  1.0000
  H   H30       1.0  0.20814489047256748  0.8584181646843589  0.20282768269390772  1.0000
  H   H31       1.0  0.8156205212261157  0.3149408734027972  0.619998642121196  1.0000
  H   H32       1.0  0.1843821602541951  0.6850613496720188  0.379999252078008  1.0000
  C   C1        1.0  0.8149523513765828  0.7204080820027556  0.7844613815509192  1.0000
  C   C2        1.0  0.18504898419627838  0.2795951213361008  0.21553637745544313  1.0000
  C   C3        1.0  0.9310966580684266  0.6230105223745  0.7272692026573466  1.0000
  C   C4        1.0  0.06890450079121992  0.3769888118272249  0.2727328025827731  1.0000
  C   C5        1.0  0.882528944391936  0.7216211164715459  0.4856853303783454  1.0000
  C   C6        1.0  0.11747514480252619  0.27837527864496536  0.5143171292716033  1.0000
  C   C7        1.0  0.8815879878298246  0.92620065363338  0.35232206187917825  1.0000
  C   C8        1.0  0.1184069920417983  0.0737967553877681  0.6476823350500355  1.0000
  C   C9        1.0  0.8907435392961176  0.07045317428983822  0.13098920268695483  1.0000
  C   C10       1.0  0.10926055574968523  0.9295432099805511  0.8690123916365309  1.0000
  C   C11       1.0  0.74648813584529  0.0431116932156002  0.0876914805834232  1.0000
  C   C12       1.0  0.25351477830359676  0.9568895621482056  0.9123074629663891  1.0000
  C   C13       1.0  0.6666914341064683  0.7151340939671227  0.1426816166129186  1.0000
  C   C14       1.0  0.3333064201446092  0.2848652128169462  0.8573179391417584  1.0000
  C   C15       1.0  0.6564199569902626  0.6121233862304649  0.2363680150932339  1.0000
  C   C16       1.0  0.3435776587408981  0.38787689911074347  0.7636313566372905  1.0000
  C   C17       1.0  0.54826310502348  0.5367847836421689  0.2349527417489909  1.0000
  C   C18       1.0  0.4517329321316552  0.4632174496740831  0.7650454454380764  1.0000
  C   C19       1.0  0.4554213832713573  0.569988485780307  0.13515176268535353  1.0000
  C   C20       1.0  0.5445784647888913  0.43001176360871074  0.8648449154031682  1.0000
  C   C21       1.0  0.4725417765153422  0.6742868739405098  0.04491173540856149  1.0000
  C   C22       1.0  0.5274564695635036  0.3257153668080619  0.9550872194423476  1.0000
  C   C23       1.0  0.5275627625213133  0.4268410408764609  0.3351735946244149  1.0000
  C   C24       1.0  0.47243462054127155  0.5731602121757503  0.6648247277554944  1.0000
  C   C25       1.0  0.665514751761499  0.3700473727614623  0.41379886505470864  1.0000
  C   C26       1.0  0.3344839713571944  0.6299529108728307  0.5862004578444981  1.0000
  C   C27       1.0  0.6458202937734824  0.26778103034163797  0.5210718486333619  1.0000
  C   C28       1.0  0.3541803997490048  0.7322202392821069  0.47892805790553433  1.0000
  C   C29       1.0  0.5447359816937977  0.1839895304523367  0.5276596413705051  1.0000
  C   C30       1.0  0.45526068580902995  0.8160146582712856  0.4723381289369541  1.0000
  C   C31       1.0  0.5396818706839852  0.0893551841872622  0.6300433606375934  1.0000
  C   C32       1.0  0.46031288237039564  0.9106431816987737  0.3699591216145492  1.0000
  C   C33       1.0  0.7240636642495417  0.15546209749233952  0.718723298380887  1.0000
  C   C34       1.0  0.2759334744417785  0.8445401449631335  0.2812757053013399  1.0000
  C   C35       1.0  0.7358136545293802  0.2519669052809661  0.6199534866424871  1.0000
  C   C36       1.0  0.26418593160558146  0.7480343660496871  0.3800464687277199  1.0000
  S   S1        1.0  0.878821842601951  0.5826712317993172  0.5932601397385683  1.0000
  S   S2        1.0  0.12118200222124638  0.4173261527204558  0.406743001213691  1.0000
  S   S3        1.0  0.8653717768080751  0.88215646299642  0.506163121593147  1.0000
  S   S4        1.0  0.1346280979508165  0.1178390037750816  0.4938431787120481  1.0000
  S   S5        1.0  0.8870868001977071  0.08521267664307432  0.2839765251150794  1.0000
  S   S6        1.0  0.1129137283142397  0.9147847021512875  0.7160258970046557  1.0000
  N   N1        1.0  0.8947919846657798  0.7117086040951576  0.37327956441640003  1.0000
  N   N2        1.0  0.1052085496975153  0.28828876385308183  0.6267219923768721  1.0000
  N   N3        1.0  0.8927342359164997  0.8279417035619834  0.2970633766894081  1.0000
  N   N4        1.0  0.10726026691528287  0.1720576625734367  0.7029406521915079  1.0000
  N   N5        1.0  0.5760417678576744  0.7468226418494979  0.048291449244942386  1.0000
  N   N6        1.0  0.4239542575947794  0.25317961315900556  0.9517084685950509  1.0000
  N   N7        1.0  0.6277175139899852  0.0748410668762389  0.7240495597583418  1.0000
  N   N8        1.0  0.3722840484001112  0.9251611795977367  0.2759501139250915  1.0000
  O   O1        1.0  0.8639340515411574  0.7561198742287588  0.8707018799161902  1.0000
  O   O2        1.0  0.1360657789650617  0.2438804076986329  0.12929739415170624  1.0000
  O   O3        1.0  0.6813369826059911  0.7600503418149246  0.7449845651016817  1.0000
  O   O4        1.0  0.3186641996590182  0.2399489490023043  0.2550139788326007  1.0000
  O   O5        1.0  0.7599943324940029  0.013151928061681402  0.9857745894673968  1.0000
  O   O6        1.0  0.2400088201748003  0.9868483487449923  0.014224538106567744  1.0000
  O   O7        1.0  0.6291380896126242  0.05433528172614638  0.1528169601874723  1.0000
  O   O8        1.0  0.3708650630561862  0.9456649950805273  0.8471821673864923  1.0000
