data_image0
_chemical_formula_structural       Zn2H26C52I2N4O16
_chemical_formula_sum              "Zn2 H26 C52 I2 N4 O16"
_cell_length_a       13.997230043060114
_cell_length_b       15.248340971330624
_cell_length_c       23.571298121471767
_cell_angle_alpha    89.3643698341005
_cell_angle_beta     90.59602443694284
_cell_angle_gamma    89.94139138992922

_space_group_name_H-M_alt    "P 1"
_space_group_IT_number       1

loop_
  _space_group_symop_operation_xyz
  'x, y, z'

loop_
  _atom_site_type_symbol
  _atom_site_label
  _atom_site_symmetry_multiplicity
  _atom_site_fract_x
  _atom_site_fract_y
  _atom_site_fract_z
  _atom_site_occupancy
  Zn  Zn1       1.0  0.4055978207095023  0.5017313591854774  0.505274468031196  1.0000
  Zn  Zn2       1.0  0.6080446184833476  0.5045192204422622  0.5048146067860415  1.0000
  H   H1        1.0  0.38599983977854896  0.676409578664611  0.0664306540646962  1.0000
  H   H2        1.0  0.5829165623625271  0.28751195079161124  0.9432440598790705  1.0000
  H   H3        1.0  0.7643881349121954  0.6229094952283847  0.5444318962989527  1.0000
  H   H4        1.0  0.2540722211120752  0.3631649766972771  0.5077898883483485  1.0000
  H   H5        1.0  0.7551024152744644  0.37864431677433447  0.4692228774558345  1.0000
  H   H6        1.0  0.25044083534191935  0.6351861790416964  0.5001226133868073  1.0000
  H   H7        1.0  0.3821547344194088  0.6877639234609988  0.9591945300128799  1.0000
  H   H8        1.0  0.5883237892847931  0.2769623665306185  0.05039819810106389  1.0000
  H   H9        1.0  0.34658527511410137  0.45972006287952655  0.7787563755222848  1.0000
  H   H10       1.0  0.5972118223485908  0.5761090065921765  0.21947973188705563  1.0000
  H   H11       1.0  0.3612289299169618  0.4769533026015226  0.6732859723498307  1.0000
  H   H12       1.0  0.6019906359319194  0.5749189286474705  0.3256368031994938  1.0000
  H   H13       1.0  0.6302094855570743  0.5632377461541793  0.7988860504440679  1.0000
  H   H14       1.0  0.40888223738730284  0.3531267441867457  0.22348931953404622  1.0000
  H   H15       1.0  0.6375108354540088  0.9548804747419981  0.5031311359592436  1.0000
  H   H16       1.0  0.6077806076043828  0.06973574598411153  0.4291306892915259  1.0000
  H   H17       1.0  0.35960969620231253  0.061167981094044414  0.5361212346706878  1.0000
  H   H18       1.0  0.33779077033008054  0.9400582801937036  0.457086604597599  1.0000
  H   H19       1.0  0.9416852871105875  0.6250818829023574  0.5449089631338708  1.0000
  H   H20       1.0  0.0768881613293573  0.35572132929066674  0.5104414986711419  1.0000
  H   H21       1.0  0.9335643576496934  0.37042125386675206  0.4652829678109782  1.0000
  H   H22       1.0  0.0738963748996966  0.6393892225927686  0.4964374500988171  1.0000
  H   H23       1.0  0.6516049767372677  0.7231345641984107  0.509119222410142  1.0000
  H   H24       1.0  0.6617605522105876  0.20013960231524663  0.4084276675451051  1.0000
  H   H25       1.0  0.37195060323228557  0.29139642595524856  0.5538113611424649  1.0000
  H   H26       1.0  0.35292346820037324  0.707566497638979  0.4567785919900516  1.0000
  C   C1        1.0  0.5026340170991475  0.677491250076578  0.4873216826457849  1.0000
  C   C2        1.0  0.5071195883768381  0.3324707166720416  0.5105680887950398  1.0000
  C   C3        1.0  0.41172203568068977  0.4853229291299145  0.7599139309484643  1.0000
  C   C4        1.0  0.5571156326363393  0.5275358384989347  0.2436654481705105  1.0000
  C   C5        1.0  0.42001463384735155  0.49489127837141217  0.7014722731872638  1.0000
  C   C6        1.0  0.5592508875927463  0.5271752398530368  0.3025373057343188  1.0000
  C   C7        1.0  0.5040382518132489  0.5264332228795822  0.6763618444422761  1.0000
  C   C8        1.0  0.5055441368927802  0.4668104183460003  0.3344064537558609  1.0000
  C   C9        1.0  0.5798894330406128  0.551465689962285  0.7122002882847625  1.0000
  C   C10       1.0  0.45210387188290463  0.4031737637382094  0.305321844226185  1.0000
  C   C11       1.0  0.5718640718595508  0.5432842263437577  0.7710207699865705  1.0000
  C   C12       1.0  0.44993689789469465  0.4025736212338843  0.2460257596019417  1.0000
  C   C13       1.0  0.4885788947817814  0.5092200902562711  0.7943354971663936  1.0000
  C   C14       1.0  0.5010182684617988  0.46566505295870547  0.21575435626134978  1.0000
  C   C15       1.0  0.5745727433653444  0.9164700262946825  0.4922266038651131  1.0000
  C   C16       1.0  0.5564984004302289  0.10328267740971601  0.45593711025198763  1.0000
  C   C17       1.0  0.4155607284952508  0.09769368227420473  0.5144971348389902  1.0000
  C   C18       1.0  0.4054046907793135  0.9084049434720004  0.4679899162340533  1.0000
  C   C19       1.0  0.5804504233769164  0.8252399696107987  0.4942757438980864  1.0000
  C   C20       1.0  0.5631807050545632  0.19355014052067795  0.4631373293408032  1.0000
  C   C21       1.0  0.4218711416441677  0.1883825540593378  0.5223410399540924  1.0000
  C   C22       1.0  0.41090256306389245  0.8169559286194712  0.468126534774143  1.0000
  C   C23       1.0  0.49818576986419316  0.7731345184702294  0.4825135281442172  1.0000
  C   C24       1.0  0.4982060630586743  0.23815790519005733  0.49847862900614365  1.0000
  C   C25       1.0  0.48720585458238463  0.9578184949054106  0.4801272670640913  1.0000
  C   C26       1.0  0.4844841775119875  0.054694536591071624  0.4826879272428641  1.0000
  C   C27       1.0  0.5071791524328049  0.5261464725360626  0.6126837604855453  1.0000
  C   C28       1.0  0.5075448687198829  0.47838780788993074  0.39752304530192356  1.0000
  C   C29       1.0  0.9039648441201961  0.5694522105894182  0.5267492622748904  1.0000
  C   C30       1.0  0.1118755203765858  0.4192663675211181  0.5065735114217346  1.0000
  C   C31       1.0  0.8993515496294648  0.42759719802022284  0.4835889468873873  1.0000
  C   C32       1.0  0.11018556959008662  0.5763873200714756  0.5003444304038708  1.0000
  C   C33       1.0  0.8049016318669757  0.5687469440468933  0.5268191887673197  1.0000
  C   C34       1.0  0.21102382613911164  0.42277072285734363  0.5060815959685314  1.0000
  C   C35       1.0  0.8001822325550448  0.4317372257574236  0.4849010160616984  1.0000
  C   C36       1.0  0.20923621112090274  0.5746594295623668  0.5013302819158199  1.0000
  C   C37       1.0  0.9535622059930517  0.49781123911090225  0.504506602869526  1.0000
  C   C38       1.0  0.058962241236372406  0.4974444034949742  0.5035938418229478  1.0000
  C   C39       1.0  0.5313099314537196  0.3965478552157933  0.1243819132670865  1.0000
  C   C40       1.0  0.44444194459914843  0.5705411919991406  0.8853785080210272  1.0000
  C   C41       1.0  0.45248175563254733  0.544549461526799  0.13011041092914158  1.0000
  C   C42       1.0  0.5197348929764445  0.4210229383558899  0.8793343022126335  1.0000
  C   C43       1.0  0.45048331570923483  0.5493950056465876  0.06728021087548089  1.0000
  C   C44       1.0  0.5196036405306828  0.4150518824857627  0.94222868509177  1.0000
  C   C45       1.0  0.48638057908208043  0.4791664159417196  0.03498238540531419  1.0000
  C   C46       1.0  0.4838187937116131  0.48534685437557823  0.9745857217440773  1.0000
  C   C47       1.0  0.5250899952264305  0.4031288407725953  0.0615688318048484  1.0000
  C   C48       1.0  0.44580111761872837  0.5617998508621371  0.9481373378784709  1.0000
  C   C49       1.0  0.41307138960614503  0.623529566014284  0.0403106600963028  1.0000
  C   C50       1.0  0.5561120571822329  0.3406413532753092  0.9692862618465341  1.0000
  C   C51       1.0  0.4108515034093898  0.6297671644469602  0.9808260725639997  1.0000
  C   C52       1.0  0.559013992587424  0.3347596157112136  0.0288259124210413  1.0000
  I   I1        1.0  0.7077965337950618  0.608761603668093  0.6831276422081912  1.0000
  I   I2        1.0  0.37827409468570034  0.3003663852161651  0.34655188154228256  1.0000
  N   N1        1.0  0.4947077155333659  0.4684895507593226  0.15468112425220676  1.0000
  N   N2        1.0  0.483446230305816  0.49968860536227316  0.8552717385634097  1.0000
  N   N3        1.0  0.7539356148841917  0.5015217951564069  0.5059325359528017  1.0000
  N   N4        1.0  0.2591110414303657  0.4991760869828569  0.5039795822282755  1.0000
  O   O1        1.0  0.426774870376441  0.6321997357456869  0.4765284400767769  1.0000
  O   O2        1.0  0.5849733087145665  0.3717407401375184  0.5010769427071011  1.0000
  O   O3        1.0  0.4327241843825291  0.3717167363138075  0.5315089375697113  1.0000
  O   O4        1.0  0.5820245640412339  0.6410505700573593  0.5028295443093285  1.0000
  O   O5        1.0  0.42851241499050013  0.5407915170554889  0.5864592550122011  1.0000
  O   O6        1.0  0.5854024526181618  0.5063618676697247  0.4188780954966944  1.0000
  O   O7        1.0  0.43096861793299013  0.4626571696107505  0.4243936572805111  1.0000
  O   O8        1.0  0.5865417170951659  0.5079400805255291  0.5900985290914562  1.0000
  O   O9        1.0  0.5667457986854316  0.333136555626922  0.1493832852782191  1.0000
  O   O10       1.0  0.4126384172397692  0.635317355466384  0.8601685037494917  1.0000
  O   O11       1.0  0.42001814641429996  0.6027647744880155  0.1598957800634153  1.0000
  O   O12       1.0  0.5500215650434512  0.36241372068572997  0.8490823456176456  1.0000
  O   O13       1.0  0.6652427301489751  0.7880146659874326  0.5083604982980177  1.0000
  O   O14       1.0  0.6321849370864783  0.24018766891934015  0.4350243139065881  1.0000
  O   O15       1.0  0.3548269465519239  0.22692532525800155  0.5546581409071933  1.0000
  O   O16       1.0  0.3316920365210692  0.7706455927416231  0.4542225638945041  1.0000
