data_image0
_chemical_formula_structural       Ca2H28C14O12
_chemical_formula_sum              "Ca2 H28 C14 O12"
_cell_length_a       6.4629464667412035
_cell_length_b       6.8387167056594516
_cell_length_c       12.430993241792656
_cell_angle_alpha    88.02250395758512
_cell_angle_beta     81.65962283132032
_cell_angle_gamma    70.79233345463119

_space_group_name_H-M_alt    "P 1"
_space_group_IT_number       1

loop_
  _space_group_symop_operation_xyz
  'x, y, z'

loop_
  _atom_site_type_symbol
  _atom_site_label
  _atom_site_symmetry_multiplicity
  _atom_site_fract_x
  _atom_site_fract_y
  _atom_site_fract_z
  _atom_site_occupancy
  Ca  Ca1       1.0  0.06258042998765494  0.2241588026720223  0.07502382740644718  1.0000
  Ca  Ca2       1.0  0.9374186200720658  0.7758362466762205  0.9249745975103278  1.0000
  H   H1        1.0  0.6101118293454635  0.7713226662666838  0.3009749858828527  1.0000
  H   H2        1.0  0.38988765793217794  0.2286847604371616  0.6990263696117224  1.0000
  H   H3        1.0  0.7038119371251529  0.9869605615714292  0.28009604512564573  1.0000
  H   H4        1.0  0.2961896458199647  0.013045301916186197  0.7199035729414118  1.0000
  H   H5        1.0  0.5706673635258072  0.9453631324253421  0.41147322522707697  1.0000
  H   H6        1.0  0.4293342270424675  0.054642740809839586  0.5885288053909008  1.0000
  H   H7        1.0  0.2055813998753919  0.1397467726793593  0.45316186049480206  1.0000
  H   H8        1.0  0.7944175532936131  0.8602622026165175  0.546839504183758  1.0000
  H   H9        1.0  0.6181093308267904  0.34401008714754505  0.4361041147861825  1.0000
  H   H10       1.0  0.3818912527299433  0.6559895949743718  0.5638949021137448  1.0000
  H   H11       1.0  0.769452662882891  0.5039430513413947  0.46745196799906086  1.0000
  H   H12       1.0  0.23054371917469052  0.4960597442162109  0.5325473070213248  1.0000
  H   H13       1.0  0.8240770896649892  0.25443486136651217  0.525235565412636  1.0000
  H   H14       1.0  0.17592036060987237  0.7455648370070234  0.474763691239758  1.0000
  H   H15       1.0  0.6744286573839915  0.35687359780403943  0.7591215480948674  1.0000
  H   H16       1.0  0.325571458351952  0.6431183511109495  0.24087605427028078  1.0000
  H   H17       1.0  0.9187862613793457  0.16485049600230176  0.6982792658880185  1.0000
  H   H18       1.0  0.08121595764723116  0.8351398994440158  0.3017190116005466  1.0000
  H   H19       1.0  0.9014577770738016  0.4338148264421378  0.7018167194268724  1.0000
  H   H20       1.0  0.09854287531183561  0.5661755771299964  0.2981816779379258  1.0000
  H   H21       1.0  0.38964399680696726  0.36926453169792955  0.9317122759244753  1.0000
  H   H22       1.0  0.6103534560089445  0.6307351699247971  0.06828778491156129  1.0000
  H   H23       1.0  0.4914142348545525  0.12500405948028256  0.905335322142683  1.0000
  H   H24       1.0  0.5085847871433488  0.874995637265826  0.09466542300075528  1.0000
  H   H25       1.0  0.6422701950707436  0.3296425030302856  0.17824792206896228  1.0000
  H   H26       1.0  0.35772985691840387  0.6703587309328467  0.8217519081985923  1.0000
  H   H27       1.0  0.5609588625454479  0.2956863513883121  0.06539571702862898  1.0000
  H   H28       1.0  0.4390417235523429  0.7043133339827887  0.9346041040549338  1.0000
  C   C1        1.0  0.5712621742150009  0.9350821679028553  0.32365864833035823  1.0000
  C   C2        1.0  0.4287394469561434  0.0649190611836516  0.6763418662446055  1.0000
  C   C3        1.0  0.3526254520181454  0.06078921952673259  0.2885046182758372  1.0000
  C   C4        1.0  0.6473751060178191  0.9392151132422268  0.7114975230343886  1.0000
  C   C5        1.0  0.17316747678417246  0.15640259028829456  0.369148909274621  1.0000
  C   C6        1.0  0.8268335771344085  0.8436048282897344  0.6308523263437138  1.0000
  C   C7        1.0  0.9508183942500426  0.2587374223563756  0.3529074612818092  1.0000
  C   C8        1.0  0.04918425691234777  0.7412653439471694  0.647092138417264  1.0000
  C   C9        1.0  0.7811844685268667  0.34277289366810487  0.4517750456517716  1.0000
  C   C10       1.0  0.2188134852537544  0.6572299002620737  0.5482257178596583  1.0000
  C   C11       1.0  0.935584403926768  0.2808892922453694  0.8552613111356492  1.0000
  C   C12       1.0  0.06441674942358588  0.7191042036342097  0.14473778890454264  1.0000
  C   C13       1.0  0.8561396240842285  0.3091177088378245  0.7458623907237436  1.0000
  C   C14       1.0  0.14385785679350246  0.6908773453870439  0.2541353498856295  1.0000
  O   O1        1.0  0.3445321639731347  0.06708322184593377  0.18587556317519469  1.0000
  O   O2        1.0  0.6554678905570698  0.93291801536639  0.8141250712760026  1.0000
  O   O3        1.0  0.8825161637964031  0.28653788233899746  0.2607844493598961  1.0000
  O   O4        1.0  0.11748599148337754  0.7134617981554783  0.7392160560310682  1.0000
  O   O5        1.0  0.9417785666116958  0.4379001330022305  0.9045137620162292  1.0000
  O   O6        1.0  0.05822361164780428  0.5620948935960115  0.09548281478079448  1.0000
  O   O7        1.0  0.9926636093650673  0.10235463489537722  0.8985864455006972  1.0000
  O   O8        1.0  0.007334914209174359  0.8976419727924634  0.10141440115099698  1.0000
  O   O9        1.0  0.4146041395338998  0.23037876059201773  0.964601450560181  1.0000
  O   O10       1.0  0.585394345814315  0.7696224814969309  0.0353984995836143  1.0000
  O   O11       1.0  0.6464698336432663  0.3652938666441301  0.10101444006381402  1.0000
  O   O12       1.0  0.35353128402211104  0.634704266885748  0.8989845676521211  1.0000
