data_image0
_chemical_formula_structural       Nd2H8C24O16F12
_chemical_formula_sum              "Nd2 H8 C24 O16 F12"
_cell_length_a       8.964731396275887
_cell_length_b       8.966788090768715
_cell_length_c       11.10732420165219
_cell_angle_alpha    109.0264914153896
_cell_angle_beta     108.89667525442482
_cell_angle_gamma    101.21760746636429

_space_group_name_H-M_alt    "P 1"
_space_group_IT_number       1

loop_
  _space_group_symop_operation_xyz
  'x, y, z'

loop_
  _atom_site_type_symbol
  _atom_site_label
  _atom_site_symmetry_multiplicity
  _atom_site_fract_x
  _atom_site_fract_y
  _atom_site_fract_z
  _atom_site_occupancy
  Nd  Nd1       1.0  0.12779563779036351  0.8322691460090326  0.9599904364317594  1.0000
  Nd  Nd2       1.0  0.8722039548904875  0.1677317452583438  0.040011615254655936  1.0000
  H   H1        1.0  0.31678048089969474  0.7149952758985877  0.7596628723207317  1.0000
  H   H2        1.0  0.9551292745908525  0.5569690087698902  0.24032941852907183  1.0000
  H   H3        1.0  0.6832169676643147  0.28499934076846506  0.24033519116047594  1.0000
  H   H4        1.0  0.044871067555632665  0.44303061179950726  0.759671605130336  1.0000
  H   H5        1.0  0.3980062219468934  0.9072358960373634  0.8479926784740214  1.0000
  H   H6        1.0  0.059084077064035505  0.5498706902882019  0.151982299846722  1.0000
  H   H7        1.0  0.60199208861534  0.0927612250358223  0.15200625977713852  1.0000
  H   H8        1.0  0.9409170091087374  0.45012766637571383  0.8480185964258451  1.0000
  C   C1        1.0  0.7576318218718257  0.7576573938249423  0.00023234135090891816  1.0000
  C   C2        1.0  0.2423616897481295  0.24234985395967362  0.9997715285537865  1.0000
  C   C3        1.0  0.624827569972787  0.6248119470095687  0.00020624161104617478  1.0000
  C   C4        1.0  0.3751712841211443  0.37519020137079206  0.99979503682205  1.0000
  C   C5        1.0  0.13480691455956162  0.140651434852316  0.2754497951965718  1.0000
  C   C6        1.0  0.8651897020161669  0.8593545120369939  0.7245527660372133  1.0000
  C   C7        1.0  0.2640673928291477  0.1371493184244343  0.4013757111259224  1.0000
  C   C8        1.0  0.7359341352214415  0.8628502768575571  0.5986238212512873  1.0000
  C   C9        1.0  0.22177904185773661  0.0340205992037284  0.46382947681986764  1.0000
  C   C10       1.0  0.5704766119084183  0.757890768112965  0.5360740004062734  1.0000
  C   C11       1.0  0.7782220606330978  0.965977737082703  0.536168717532199  1.0000
  C   C12       1.0  0.42952448514306235  0.24210757496595645  0.46392509458596004  1.0000
  C   C13       1.0  0.33696643337231785  0.0402364857878084  0.5864391022554329  1.0000
  C   C14       1.0  0.4540941081494551  0.7503041950117504  0.41340514840955217  1.0000
  C   C15       1.0  0.6630370137299477  0.959761833886283  0.41356061273307176  1.0000
  C   C16       1.0  0.5459084932726553  0.2496915998787301  0.5865909898884992  1.0000
  C   C17       1.0  0.5034372143642257  0.15062486209705386  0.6541281467221296  1.0000
  C   C18       1.0  0.4965658126176392  0.8493721917889799  0.3458693296010579  1.0000
  C   C19       1.0  0.6402393570074949  0.602269248124692  0.12093192602942081  1.0000
  C   C20       1.0  0.4818329189312962  0.519770018733922  0.8793255372274444  1.0000
  C   C21       1.0  0.3597605595792359  0.397729113449145  0.879067759604851  1.0000
  C   C22       1.0  0.5181665612169724  0.48022709742934216  0.12067461166201816  1.0000
  C   C23       1.0  0.6271280879141585  0.16165630511407156  0.7887940256345229  1.0000
  C   C24       1.0  0.37287387657490006  0.8383445355784929  0.2112050434874959  1.0000
  O   O1        1.0  0.8657036114071491  0.7094114544013835  0.9638716178981922  1.0000
  O   O2        1.0  0.7455070272043756  0.9019667744274642  0.03645851072031552  1.0000
  O   O3        1.0  0.134296977561938  0.2905956892062562  0.03612960879446091  1.0000
  O   O4        1.0  0.2544866685920936  0.0980342025219656  0.9635455935361037  1.0000
  O   O5        1.0  0.581578447033543  0.0685689935943046  0.8453686613700455  1.0000
  O   O6        1.0  0.2231795968934803  0.7363894105817363  0.1548077468223993  1.0000
  O   O7        1.0  0.4184235174555154  0.9314318470982598  0.15463040775197356  1.0000
  O   O8        1.0  0.776826430764089  0.2636164291032514  0.8451954931161155  1.0000
  O   O9        1.0  0.32540920220936437  0.8047513675309402  0.8423436329590642  1.0000
  O   O10       1.0  0.9622192554294244  0.48295701774265615  0.15762475239539944  1.0000
  O   O11       1.0  0.6745867474233761  0.19524579053206986  0.1576564865761654  1.0000
  O   O12       1.0  0.03777947525320257  0.5170413691185872  0.8423764245210705  1.0000
  O   O13       1.0  0.11054599174152459  0.0424107795839177  0.15276356296909196  1.0000
  O   O14       1.0  0.8894497791540557  0.9575926425217743  0.8472354215742471  1.0000
  O   O15       1.0  0.056459512390531985  0.24095720609191323  0.2973390855682609  1.0000
  O   O16       1.0  0.9435392074133871  0.7590411943543174  0.7026638926285358  1.0000
  F   F1        1.0  0.2798746363452621  0.9338272790675075  0.636313960359125  1.0000
  F   F2        1.0  0.2979761050389699  0.642896331032354  0.36336807559280976  1.0000
  F   F3        1.0  0.7201280721700769  0.06617229771957508  0.3636849813760533  1.0000
  F   F4        1.0  0.7020275588759475  0.3570956770515962  0.6366264699064176  1.0000
  F   F5        1.0  0.0649786358754341  0.9235949666506967  0.4043738986766385  1.0000
  F   F6        1.0  0.5195725221832036  0.6604782193894961  0.595523619839355  1.0000
  F   F7        1.0  0.9350233231742705  0.0764058808343648  0.5956260710855473  1.0000
  F   F8        1.0  0.48042825640175113  0.33952264659046694  0.4044769405648622  1.0000
  F   F9        1.0  0.7779833017524781  0.6994549214399939  0.2428321225188483  1.0000
  F   F10       1.0  0.4576248278831727  0.536083936720395  0.7576763064270082  1.0000
  F   F11       1.0  0.22201618927449826  0.3005421811382831  0.7571662250902733  1.0000
  F   F12       1.0  0.5423802198042368  0.46391563024684507  0.2423250565847682  1.0000
