data_image0
_chemical_formula_structural       Al2H12C18S2O12
_chemical_formula_sum              "Al2 H12 C18 S2 O12"
_cell_length_a       6.694282821090785
_cell_length_b       11.100564488866192
_cell_length_c       12.989412902214434
_cell_angle_alpha    75.10206245011075
_cell_angle_beta     71.90657970975357
_cell_angle_gamma    73.12189277435635

_space_group_name_H-M_alt    "P 1"
_space_group_IT_number       1

loop_
  _space_group_symop_operation_xyz
  'x, y, z'

loop_
  _atom_site_type_symbol
  _atom_site_label
  _atom_site_symmetry_multiplicity
  _atom_site_fract_x
  _atom_site_fract_y
  _atom_site_fract_z
  _atom_site_occupancy
  Al  Al1       1.0  0.5000004387084472  0.4999972636053657  0.5000035274204108  1.0000
  Al  Al2       1.0  7.169658644671454e-07  0.49999810587694793  0.49999899593201746  1.0000
  H   H1        1.0  0.2901273562900001  0.5821265721720864  0.36622625637969014  1.0000
  H   H2        1.0  0.7098795166356594  0.41787607111635355  0.6337755705229142  1.0000
  H   H3        1.0  0.6779661739475671  0.11042195402843187  0.5750397864813764  1.0000
  H   H4        1.0  0.32204865399045685  0.8895777425092181  0.4249535742659916  1.0000
  H   H5        1.0  0.91421727729584  0.9269806805118038  0.6269543468668246  1.0000
  H   H6        1.0  0.8270431168852707  0.7809424380720884  0.6617418358223759  1.0000
  H   H7        1.0  0.009373303253283824  0.8163921239921591  0.5345068816123941  1.0000
  H   H8        1.0  0.9906431775200629  0.1836030818430601  0.4654938688060142  1.0000
  H   H9        1.0  0.17296135855158914  0.21906215814595947  0.3382592797558814  1.0000
  H   H10       1.0  0.08578875310891476  0.0730238712891165  0.37304731480366377  1.0000
  H   H11       1.0  0.4636847676374955  0.5669508083643039  0.8736862289692198  1.0000
  H   H12       1.0  0.5363158329068439  0.4330411999070094  0.12631739020228142  1.0000
  C   C1        1.0  0.8659082991009299  0.5006583284254589  0.30362002998532495  1.0000
  C   C2        1.0  0.6440326040459821  0.7290095131939011  0.49478060339836827  1.0000
  C   C3        1.0  0.1340971525092344  0.499340661525295  0.6963802508407397  1.0000
  C   C4        1.0  0.3559742449979382  0.27098291623331505  0.5052189252915512  1.0000
  C   C5        1.0  0.5751849124552845  0.8683517946840171  0.5001522055308811  1.0000
  C   C6        1.0  0.4248195534138191  0.1316428870850146  0.4998434744094382  1.0000
  C   C7        1.0  0.6815183885768832  0.9284653813210325  0.544077315184012  1.0000
  C   C8        1.0  0.3184847991968809  0.07153186380453748  0.4559212543333899  1.0000
  C   C9        1.0  0.6012920338358967  0.05981467058860088  0.5421553225714248  1.0000
  C   C10       1.0  0.39872011258378137  0.940184310233157  0.457835459894909  1.0000
  C   C11       1.0  0.20132489362859465  0.5283875952136939  0.8711289040581178  1.0000
  C   C12       1.0  0.7986643054233294  0.47161988926197307  0.12887097062345998  1.0000
  C   C13       1.0  0.07654933982689016  0.5031742124715706  0.8141219537379741  1.0000
  C   C14       1.0  0.9234445599137187  0.4968338872832164  0.18587171565716432  1.0000
  C   C15       1.0  0.9009907143871912  0.4829608805660682  0.014172573913775553  1.0000
  C   C16       1.0  0.09899155833539905  0.5170547570787036  0.9858309555330251  1.0000
  C   C17       1.0  0.8682014273492056  0.8599847254992741  0.5942794579282022  1.0000
  C   C18       1.0  0.13180996368149775  0.14001149299052426  0.4057203559537755  1.0000
  S   S1        1.0  0.8374008753871248  0.46447168194784183  0.9011315731908456  1.0000
  S   S2        1.0  0.16258338072081094  0.535543106729662  0.09887101625162135  1.0000
  O   O1        1.0  0.6699259384921417  0.5006079844398175  0.35360054308952743  1.0000
  O   O2        1.0  0.8407278266230164  0.6735124301017238  0.4924553435206676  1.0000
  O   O3        1.0  0.9883839987048686  0.49491597765162965  0.6540118481867908  1.0000
  O   O4        1.0  0.49786975751316487  0.3237986983045147  0.5097854514817968  1.0000
  O   O5        1.0  0.3300803556389197  0.4993890969984491  0.6463999029686464  1.0000
  O   O6        1.0  0.15928484250302688  0.32648122503153587  0.5075415807842347  1.0000
  O   O7        1.0  0.011618177110612703  0.505086125210731  0.34599539964594334  1.0000
  O   O8        1.0  0.5021301616229152  0.6762018094387585  0.490218516329648  1.0000
  O   O9        1.0  0.2538777472003772  0.5586785831854543  0.44594567635012083  1.0000
  O   O10       1.0  0.7461227340055456  0.44131742225286535  0.5540558053804504  1.0000
  O   O11       1.0  0.3927408648609116  0.5602315347803993  0.8205696172472231  1.0000
  O   O12       1.0  0.6072670200279902  0.43974032882079667  0.17943675948188806  1.0000
