data_image0
_chemical_formula_structural       Zn2H62C59N2O13
_chemical_formula_sum              "Zn2 H62 C59 N2 O13"
_cell_length_a       10.754888945199601
_cell_length_b       14.008360829214924
_cell_length_c       15.155270710203126
_cell_angle_alpha    91.93543381698836
_cell_angle_beta     91.85250667078739
_cell_angle_gamma    90.25905272623363

_space_group_name_H-M_alt    "P 1"
_space_group_IT_number       1

loop_
  _space_group_symop_operation_xyz
  'x, y, z'

loop_
  _atom_site_type_symbol
  _atom_site_label
  _atom_site_symmetry_multiplicity
  _atom_site_fract_x
  _atom_site_fract_y
  _atom_site_fract_z
  _atom_site_occupancy
  Zn  Zn1       1.0  0.5072852664902  0.6061890122946139  0.5059164178787228  1.0000
  Zn  Zn2       1.0  0.5090305536567641  0.39698403272739563  0.496479537432954  1.0000
  H   H1        1.0  0.1196782966727881  0.6191144507468636  0.5711231254671318  1.0000
  H   H2        1.0  0.09704066397756608  0.34941616667277486  0.4345226327415972  1.0000
  H   H3        1.0  0.7927821862528787  0.6220006051086671  0.9205430538269823  1.0000
  H   H4        1.0  0.6764833692771219  0.5818037400052559  0.7768195799616677  1.0000
  H   H5        1.0  0.3438325559978068  0.41093953358105756  0.7748368002286697  1.0000
  H   H6        1.0  0.2475563869633888  0.37125296307044653  0.9173528734722894  1.0000
  H   H7        1.0  0.25148341613552117  0.3806646161014271  0.0809930097220715  1.0000
  H   H8        1.0  0.6059772419328908  0.7616645385507823  0.6121039438808397  1.0000
  H   H9        1.0  0.6048771606077211  0.2550503795745911  0.6104894526595147  1.0000
  H   H10       1.0  0.2748424280367913  0.08393361316322508  0.33438026139133836  1.0000
  H   H11       1.0  0.25344080281009695  0.9112249479269323  0.3469488318446352  1.0000
  H   H12       1.0  0.9313942847287393  0.4919688130762978  0.6460369312693004  1.0000
  H   H13       1.0  0.916543582325744  0.3621352141145449  0.5769880116856498  1.0000
  H   H14       1.0  0.1148047045279128  0.6049955671161057  0.4153330263989545  1.0000
  H   H15       1.0  0.1005453240314367  0.4926706992846022  0.359543241649085  1.0000
  H   H16       1.0  0.8989664935037568  0.6141828425970742  0.4251285521184158  1.0000
  H   H17       1.0  0.8847225858521314  0.5066724564498911  0.3641890729009987  1.0000
  H   H18       1.0  0.3580843783402301  0.42985973249292186  0.222679101860507  1.0000
  H   H19       1.0  0.701681116282714  0.58936846799638  0.2248876187221498  1.0000
  H   H20       1.0  0.2738109242589529  0.6187533865308267  0.2395296466714214  1.0000
  H   H21       1.0  0.18700774461998995  0.7243318893967228  0.2203329510089631  1.0000
  H   H22       1.0  0.31562948325379375  0.6944997477529  0.1539246333508686  1.0000
  H   H23       1.0  0.375018592139611  0.8241477200139542  0.2676668035677139  1.0000
  H   H24       1.0  0.4624277114434463  0.7193260229920638  0.2837097144907261  1.0000
  H   H25       1.0  0.32177137654178267  0.6678492029636232  0.3997053966755715  1.0000
  H   H26       1.0  0.22810530078005803  0.7691318624390673  0.38491741924365636  1.0000
  H   H27       1.0  0.4336895680719053  0.2380287003621717  0.1525129559412264  1.0000
  H   H28       1.0  0.5590887294875911  0.31102604127846684  0.1934576375982573  1.0000
  H   H29       1.0  0.5888165444523922  0.19661042994806618  0.1449234647713027  1.0000
  H   H30       1.0  0.6104325227952997  0.19918317362832735  0.3114997243025215  1.0000
  H   H31       1.0  0.49863813572341087  0.115778845511521  0.2697406299798359  1.0000
  H   H32       1.0  0.32673704685308275  0.22405795082138266  0.3120610366155531  1.0000
  H   H33       1.0  0.4343274911157806  0.3163987967429875  0.3423017428627518  1.0000
  H   H34       1.0  0.7647343408932131  0.7596160270970883  0.8178509443382254  1.0000
  H   H35       1.0  0.8002889257944544  0.8687272456725451  0.8763285669398897  1.0000
  H   H36       1.0  0.6731498118153282  0.7973566206809719  0.9076698304282117  1.0000
  H   H37       1.0  0.5976961353803887  0.9383745019028426  0.8199937952069052  1.0000
  H   H38       1.0  0.558735684965299  0.828861969350818  0.7651983340816244  1.0000
  H   H39       1.0  0.7462671196142736  0.8427231752620443  0.6724894706650845  1.0000
  H   H40       1.0  0.7880864753152111  0.9504849162961831  0.7273122997721515  1.0000
  H   H41       1.0  0.8380001772335673  0.28879846932314024  0.7460991306001716  1.0000
  H   H42       1.0  0.9165126639668414  0.19302568678627816  0.7973726098114966  1.0000
  H   H43       1.0  0.9834267129020515  0.24978668062911427  0.7067964628423127  1.0000
  H   H44       1.0  0.8869632303170077  0.09227481506835739  0.6554296451588826  1.0000
  H   H45       1.0  0.8101958456164838  0.18815426652071204  0.6054825772458516  1.0000
  H   H46       1.0  0.6487008034172845  0.18240166615714057  0.7259469981670748  1.0000
  H   H47       1.0  0.7222017440395944  0.08077783468777258  0.7661773751426892  1.0000
  H   H48       1.0  0.06569599669889929  0.6039814234500865  0.7524806628059366  1.0000
  H   H49       1.0  0.20233125088441278  0.6528897766933497  0.7055618752815109  1.0000
  H   H50       1.0  0.21699540344818757  0.5594687406495564  0.7830898377685644  1.0000
  H   H51       1.0  0.18076117828444177  0.21525852282435656  0.4807302835427691  1.0000
  H   H52       1.0  0.04369022547462719  0.19663766948932695  0.5423518846647113  1.0000
  H   H53       1.0  0.19462185710005997  0.1956009879227167  0.5968864078496239  1.0000
  H   H54       1.0  0.9950646993733867  0.7143971842000668  0.537277169418232  1.0000
  H   H55       1.0  0.902118216548999  0.7723950187081742  0.617454767837252  1.0000
  H   H56       1.0  0.828571243218292  0.7133718661263658  0.5222545543548875  1.0000
  H   H57       1.0  0.9438953141658571  0.3498474810642873  0.33437712048561247  1.0000
  H   H58       1.0  0.780507174584159  0.373623749669555  0.3477422912222892  1.0000
  H   H59       1.0  0.8342385123308275  0.25386369923407404  0.3346044398890626  1.0000
  H   H60       1.0  0.8909001023657553  0.5192691353530492  0.1589948218534545  1.0000
  H   H61       1.0  0.9892979768427138  0.6228682688463465  0.154322935830379  1.0000
  H   H62       1.0  0.9656253312097647  0.5457696511599437  0.0581230465931739  1.0000
  C   C1        1.0  0.49993374167749494  0.5010732114033587  0.6692853554290821  1.0000
  C   C2        1.0  0.930090725824691  0.539977857517961  0.4233472243178085  1.0000
  C   C3        1.0  0.43164286998658236  0.46353278535769243  0.1863799900187217  1.0000
  C   C4        1.0  0.5310893508394087  0.5083424293177146  0.2327775489001525  1.0000
  C   C5        1.0  0.6263390902608635  0.5520459453281888  0.18806452391483933  1.0000
  C   C6        1.0  0.6253823511003204  0.5486099962091017  0.0953676009300466  1.0000
  C   C7        1.0  0.5242143527878868  0.5022939253588846  0.047130242817687004  1.0000
  C   C8        1.0  0.4257523849165494  0.45994917943755104  0.09382623080501422  1.0000
  C   C9        1.0  0.7229089598142266  0.590603762424351  0.0460793946222964  1.0000
  C   C10       1.0  0.7181663480355526  0.5885512924858742  0.955788955357221  1.0000
  C   C11       1.0  0.6165255531489536  0.5439708542071102  0.9065066121719312  1.0000
  C   C12       1.0  0.27106756751014416  0.4886232879358587  0.4920494325531166  1.0000
  C   C13       1.0  0.5203345143220517  0.4987520583543414  0.953250915437323  1.0000
  C   C14       1.0  0.42006677367595563  0.45076090867701174  0.9055627984882406  1.0000
  C   C15       1.0  0.3236436703124994  0.407764770031079  0.9542959927314956  1.0000
  C   C16       1.0  0.3258385670770352  0.4129964758984386  0.04449410171765321  1.0000
  C   C17       1.0  0.6069130972284853  0.5446369817978933  0.8139831264665672  1.0000
  C   C18       1.0  0.5087886080320346  0.4973861073808904  0.7678912018135264  1.0000
  C   C19       1.0  0.4181354627175935  0.44848434624488936  0.8128425723367342  1.0000
  C   C20       1.0  0.4027477998905481  0.7989610611109582  0.4492761130742338  1.0000
  C   C21       1.0  0.4424547887556258  0.19811015795625764  0.42804067951323094  1.0000
  C   C22       1.0  0.549609717569183  0.8049045826648822  0.5678914415807199  1.0000
  C   C23       1.0  0.5576011687491514  0.20673412054325271  0.5625249677742659  1.0000
  C   C24       1.0  0.5514350099367463  0.9051861713865322  0.5753308338534993  1.0000
  C   C25       1.0  0.5554837303625105  0.1073909050830224  0.5724239525114996  1.0000
  C   C26       1.0  0.5325395805903739  0.5086734105285019  0.3318115168540672  1.0000
  C   C27       1.0  0.47450744746326734  0.9530420662500916  0.5129204845525521  1.0000
  C   C28       1.0  0.47971358719062357  0.054027786497279406  0.5098031091153388  1.0000
  C   C29       1.0  0.3974696900385836  0.8998414426580441  0.4510721963294273  1.0000
  C   C30       1.0  0.4155867756789533  0.1008500789045996  0.4404983909282549  1.0000
  C   C31       1.0  0.6280964321633675  0.959918534560771  0.6396520444763709  1.0000
  C   C32       1.0  0.6272088671430113  0.058864117587333495  0.6397770281621364  1.0000
  C   C33       1.0  0.33122777387780633  0.046940057577060684  0.3833059129706413  1.0000
  C   C34       1.0  0.3198172591861308  0.9505427078926588  0.3900766578271373  1.0000
  C   C35       1.0  0.7448763856173458  0.4978062644971359  0.5133531693597817  1.0000
  C   C36       1.0  0.0911447047223888  0.5447845261494706  0.5824171670636886  1.0000
  C   C37       1.0  0.07677134344794469  0.38296820568420736  0.49958005185430915  1.0000
  C   C38       1.0  0.9484947259399515  0.5397124187703142  0.5914648786638352  1.0000
  C   C39       1.0  0.933493106358526  0.3856613184839404  0.5099743002267516  1.0000
  C   C40       1.0  0.0727823206194316  0.5336498659661473  0.4188891718825545  1.0000
  C   C41       1.0  0.1300777165075147  0.48483386032535236  0.5011348255479504  1.0000
  C   C42       1.0  0.8858073096752435  0.4907827402317367  0.5063134374659697  1.0000
  C   C43       1.0  0.3245107081415383  0.7427619976309787  0.3819749927989875  1.0000
  C   C44       1.0  0.3683967318244968  0.7491049512500326  0.28642924519446217  1.0000
  C   C45       1.0  0.2812790890441049  0.6938368554132738  0.2214044535607016  1.0000
  C   C46       1.0  0.42146130307144597  0.23896232368412026  0.3387655747366765  1.0000
  C   C47       1.0  0.5186276371195788  0.1928507076709707  0.2773427092300409  1.0000
  C   C48       1.0  0.5251221094313366  0.23713021923214225  0.1871588863154443  1.0000
  C   C49       1.0  0.7073167185954289  0.9065735457779738  0.7052884470739897  1.0000
  C   C50       1.0  0.6378720062422046  0.8751062085573196  0.7867006944546233  1.0000
  C   C51       1.0  0.7233779185458715  0.8224439754722895  0.8508406354966098  1.0000
  C   C52       1.0  0.703641383877759  0.119739021441319  0.705499650127777  1.0000
  C   C53       1.0  0.8276793613118585  0.15464231599565886  0.6693827540072945  1.0000
  C   C54       1.0  0.8954354024766146  0.22526998772809745  0.7333966705380845  1.0000
  C   C55       1.0  0.15920731661587692  0.5868210751326899  0.7287317081993339  1.0000
  C   C56       1.0  0.13762757290285776  0.22900851841566808  0.5451614941357478  1.0000
  C   C57       1.0  0.9061501591797594  0.7104456833113418  0.5712570967630415  1.0000
  C   C58       1.0  0.8574236135844514  0.324798988789567  0.36392184955503387  1.0000
  C   C59       1.0  0.9216735980240999  0.5771541258011581  0.1170222391944549  1.0000
  N   N1        1.0  0.4802178194682226  0.7543136209616748  0.5066125114114683  1.0000
  N   N2        1.0  0.5065995396039894  0.2492377511880832  0.4916429598763656  1.0000
  O   O1        1.0  0.528564442226994  0.5810232523093504  0.637105838143306  1.0000
  O   O2        1.0  0.4651264061055968  0.4252733628290883  0.6269261536229963  1.0000
  O   O3        1.0  0.32246306613991743  0.5682939508869964  0.5132308905378835  1.0000
  O   O4        1.0  0.3254755932769625  0.4155610142377952  0.4599056495327574  1.0000
  O   O5        1.0  0.5024137974668008  0.5862214834386281  0.3704697042196301  1.0000
  O   O6        1.0  0.5607739040324874  0.43087140346020897  0.3681957009486609  1.0000
  O   O7        1.0  0.6955824695264924  0.5766838556071292  0.4927551712746236  1.0000
  O   O8        1.0  0.6875563203107404  0.4248636445788278  0.5392821599495221  1.0000
  O   O9        1.0  0.1553116590396186  0.5144899179003346  0.6603488026515976  1.0000
  O   O10       1.0  0.13563246708830687  0.32835975404319134  0.5668010110565689  1.0000
  O   O11       1.0  0.8964728376178923  0.6279481405664171  0.623286315005835  1.0000
  O   O12       1.0  0.8714471519912408  0.31247054474730607  0.4563932829457969  1.0000
  O   O13       1.0  0.8197720177282123  0.6376191511478383  0.0922078040790026  1.0000
