data_image0
_chemical_formula_structural       Mn2H20C12S4N4O12
_chemical_formula_sum              "Mn2 H20 C12 S4 N4 O12"
_cell_length_a       5.963087357161785
_cell_length_b       8.796893279865815
_cell_length_c       11.526749705699181
_cell_angle_alpha    111.64391620331403
_cell_angle_beta     89.99926656280282
_cell_angle_gamma    89.99987905288397

_space_group_name_H-M_alt    "P 1"
_space_group_IT_number       1

loop_
  _space_group_symop_operation_xyz
  'x, y, z'

loop_
  _atom_site_type_symbol
  _atom_site_label
  _atom_site_symmetry_multiplicity
  _atom_site_fract_x
  _atom_site_fract_y
  _atom_site_fract_z
  _atom_site_occupancy
  Mn  Mn1       1.0  9.148640173999993e-07  0.5000033606351482  7.480493451628239e-07  1.0000
  Mn  Mn2       1.0  0.5000012128551815  0.9999944606747416  2.551268209935733e-06  1.0000
  H   H1        1.0  0.33986090604797425  0.6543267026219582  0.18607406531010892  1.0000
  H   H2        1.0  0.8398656155551689  0.8456753598015824  0.813923125702246  1.0000
  H   H3        1.0  0.6601356549763436  0.34567250876944666  0.8139248489034049  1.0000
  H   H4        1.0  0.1601342994147714  0.15432387759454974  0.18607753081654727  1.0000
  H   H5        1.0  0.3589667230306262  0.6735343012128895  0.05334196239871157  1.0000
  H   H6        1.0  0.8589732250193832  0.8264664224604559  0.9466538674614428  1.0000
  H   H7        1.0  0.6410331919441249  0.3264661461004509  0.946658157970248  1.0000
  H   H8        1.0  0.14103004391664342  0.17353524776795137  0.05334658790352622  1.0000
  H   H9        1.0  0.7083097068906881  0.5729040679731698  0.43389739116325654  1.0000
  H   H10       1.0  0.2083081418493222  0.9270988194475295  0.5661087073805506  1.0000
  H   H11       1.0  0.2916918850906002  0.42709392048060835  0.566101188020248  1.0000
  H   H12       1.0  0.7916884191581275  0.0729016278748347  0.4338914130020158  1.0000
  H   H13       1.0  0.4786253402033295  0.3698171239627258  0.2960238975868777  1.0000
  H   H14       1.0  0.9786216986925425  0.13018623905171015  0.7039869553907039  1.0000
  H   H15       1.0  0.521376251782776  0.6301820744082606  0.703974145446793  1.0000
  H   H16       1.0  0.021378216254504402  0.8698154571994793  0.2960152423067442  1.0000
  H   H17       1.0  0.6798822231079171  0.21581853212769184  0.28286900665140996  1.0000
  H   H18       1.0  0.17987901920019314  0.2841887542955704  0.7171362279891866  1.0000
  H   H19       1.0  0.3201193688950569  0.7841794303123282  0.7171278302132151  1.0000
  H   H20       1.0  0.8201225727413471  0.7158129289442315  0.2828650985420183  1.0000
  C   C1        1.0  0.960066981365422  0.4276586499181506  0.4433447728483345  1.0000
  C   C2        1.0  0.46006337852912077  0.0723398042062797  0.5566570501908998  1.0000
  C   C3        1.0  0.039934610594187306  0.5723393645493857  0.5566555486540495  1.0000
  C   C4        1.0  0.5399331824783291  0.9276606431160842  0.4433430701916593  1.0000
  C   C5        1.0  0.6587670845462839  0.3416081578241049  0.28654835549770047  1.0000
  C   C6        1.0  0.15876435550720203  0.15839800629410664  0.713455844246326  1.0000
  C   C7        1.0  0.34123283045617103  0.6583910405513863  0.7134496875427704  1.0000
  C   C8        1.0  0.8412338824610117  0.8416048998788028  0.2865458173080882  1.0000
  C   C9        1.0  0.7347125108352301  0.3483833720704724  0.16134203207378314  1.0000
  C   C10       1.0  0.23471843128847783  0.15161503278685023  0.8386586703905224  1.0000
  C   C11       1.0  0.2652890810834165  0.6516207700243725  0.8386608356360769  1.0000
  C   C12       1.0  0.7652848376608148  0.8483817587520833  0.16134131609545949  1.0000
  S   S1        1.0  0.1043064764483077  0.2513608805509407  0.3927089673794201  1.0000
  S   S2        1.0  0.6043031985878003  0.24863581925946934  0.6072947363633858  1.0000
  S   S3        1.0  0.8956934385445194  0.7486358979901413  0.6072901479607254  1.0000
  S   S4        1.0  0.39569168538662314  0.7513659030190211  0.39270920367334844  1.0000
  N   N1        1.0  0.7719452079195079  0.45559343538417363  0.3935873094799122  1.0000
  N   N2        1.0  0.27194380819299374  0.0444072800145747  0.6064181168193201  1.0000
  N   N3        1.0  0.2280547070733192  0.5444033431569083  0.6064118058602335  1.0000
  N   N4        1.0  0.7280527528036201  0.9555931803146722  0.3935828747226824  1.0000
  O   O1        1.0  0.31410532052547785  0.5981303992018426  0.09583992763360534  1.0000
  O   O2        1.0  0.8141092943148818  0.9018717888156972  0.9041566011374516  1.0000
  O   O3        1.0  0.6858945944492733  0.40187004811149757  0.9041601927353542  1.0000
  O   O4        1.0  0.18589062066589424  0.0981274355735593  0.09584318422190563  1.0000
  O   O5        1.0  0.877842890068415  0.45518542786641814  0.16234752895581295  1.0000
  O   O6        1.0  0.37785586898125706  0.044814691611165414  0.8376552959824225  1.0000
  O   O7        1.0  0.12215702490031083  0.544816242371013  0.8376529264227557  1.0000
  O   O8        1.0  0.6221457229783526  0.955183322856371  0.16234502551996152  1.0000
  O   O9        1.0  0.6430549753592629  0.24647161792159275  0.06435774182416765  1.0000
  O   O10       1.0  0.14306488395058642  0.25352976503183566  0.9356469875970532  1.0000
  O   O11       1.0  0.35694829357555596  0.7535324851481064  0.9356425124005627  1.0000
  O   O12       1.0  0.8569450929092  0.7464719181854067  0.0643543389001452  1.0000
