data_image0
_chemical_formula_structural       Zn2H32C62N4Cl8O18
_chemical_formula_sum              "Zn2 H32 C62 N4 Cl8 O18"
_cell_length_a       16.507974662121228
_cell_length_b       17.609019743576244
_cell_length_c       23.477192398142456
_cell_angle_alpha    90.36536566669565
_cell_angle_beta     89.51790110911502
_cell_angle_gamma    89.22945826995542

_space_group_name_H-M_alt    "P 1"
_space_group_IT_number       1

loop_
  _space_group_symop_operation_xyz
  'x, y, z'

loop_
  _atom_site_type_symbol
  _atom_site_label
  _atom_site_symmetry_multiplicity
  _atom_site_fract_x
  _atom_site_fract_y
  _atom_site_fract_z
  _atom_site_occupancy
  Zn  Zn1       1.0  0.41145561843581646  0.4917718029170218  0.5062793753451729  1.0000
  Zn  Zn2       1.0  0.5820411994489091  0.48813687285893087  0.5037089189565832  1.0000
  H   H1        1.0  0.28567819674429973  0.4280338609305829  0.43199258176329636  1.0000
  H   H2        1.0  0.6302352149895681  0.7265431418103887  0.4849209929623868  1.0000
  H   H3        1.0  0.1334612243976139  0.4285753303742439  0.426483061491119  1.0000
  H   H4        1.0  0.8574554416370147  0.5778589091937646  0.5720089255156963  1.0000
  H   H5        1.0  0.12907979530569946  0.5686036295791297  0.5787883951458355  1.0000
  H   H6        1.0  0.8662944123200944  0.41767234910049206  0.4313166529022538  1.0000
  H   H7        1.0  0.5205006569864704  0.36344083987417974  0.36363426651404757  1.0000
  H   H8        1.0  0.5151413729144068  0.3198401850674485  0.2943573028605542  1.0000
  H   H9        1.0  0.4413318089826318  0.2979306078801329  0.34839216166626125  1.0000
  H   H10       1.0  0.5500437578520233  0.7283696714236997  0.6906922054914802  1.0000
  H   H11       1.0  0.4755519489240427  0.6985443480236526  0.6400028714919301  1.0000
  H   H12       1.0  0.7053077175356108  0.5680009222752744  0.570310961007273  1.0000
  H   H13       1.0  0.5747000723786754  0.7246459755196638  0.6161161204406866  1.0000
  H   H14       1.0  0.3263866341791795  0.8550913496244377  0.38144868027733736  1.0000
  H   H15       1.0  0.36982045265110486  0.9458429753715406  0.39858449335594065  1.0000
  H   H16       1.0  0.2674596074126042  0.9262595883322506  0.4187916980582926  1.0000
  H   H17       1.0  0.6338567265427457  0.030772764600364204  0.5234841261633747  1.0000
  H   H18       1.0  0.6884085840928476  0.11732253149702392  0.5359708381659658  1.0000
  H   H19       1.0  0.7332563637960304  0.041968304004271303  0.4937644523715932  1.0000
  H   H20       1.0  0.3025322349314763  0.127489521105332  0.5260095468513413  1.0000
  H   H21       1.0  0.3496368776377849  0.0355789672972051  0.5144412015698022  1.0000
  H   H22       1.0  0.25559412065934584  0.0587477101166485  0.480562080131726  1.0000
  H   H23       1.0  0.28144284824219307  0.5596916392289799  0.5785892358893888  1.0000
  H   H24       1.0  0.6145082648041934  0.927956255039291  0.3822422481573184  1.0000
  H   H25       1.0  0.6690391984469669  0.8395275246838452  0.3714488936018014  1.0000
  H   H26       1.0  0.7195670648906328  0.9211643693039381  0.39985738946110416  1.0000
  H   H27       1.0  0.7139551322899108  0.4150546722320386  0.43585163009009165  1.0000
  H   H28       1.0  0.44199331099014927  0.43564139897047477  0.20465945845474207  1.0000
  H   H29       1.0  0.5740844352509384  0.6474032473968236  0.7653318525915224  1.0000
  H   H30       1.0  0.36928503874118224  0.7306778455222088  0.4941576599809422  1.0000
  H   H31       1.0  0.6303080658119311  0.24897008701134382  0.4752619500503456  1.0000
  H   H32       1.0  0.3695416472146675  0.25529324168383744  0.4688761187849337  1.0000
  C   C1        1.0  0.5011073315909584  0.3435380138096136  0.4880764916347218  1.0000
  C   C2        1.0  0.5378081061582805  0.5760554652711745  0.6947920691699706  1.0000
  C   C3        1.0  0.4654209846601843  0.47837724473060916  0.23366580798742828  1.0000
  C   C4        1.0  0.5440318679357786  0.5955277553838769  0.75230981223784  1.0000
  C   C5        1.0  0.4999517674083262  0.5441482185561953  0.21266719688355104  1.0000
  C   C6        1.0  0.5132082635152244  0.5473725451039615  0.7934733089457282  1.0000
  C   C7        1.0  0.4247626233770774  0.8356100581734582  0.47033116701337  1.0000
  C   C8        1.0  0.5731779640430972  0.1419402628243489  0.4591897690378275  1.0000
  C   C9        1.0  0.42575797320932196  0.145565907510445  0.4553715389751288  1.0000
  C   C10       1.0  0.5725682934321482  0.8331210908858183  0.4650088824559262  1.0000
  C   C11       1.0  0.42604359167056316  0.7599108238152399  0.4868001695036668  1.0000
  C   C12       1.0  0.4997282104638145  0.637793658028457  0.5060187995244689  1.0000
  C   C13       1.0  0.5732220335607963  0.2195695598022596  0.4699851148111591  1.0000
  C   C14       1.0  0.4263317440725131  0.22319447529243774  0.4664525783492904  1.0000
  C   C15       1.0  0.572973908045597  0.7575192642139612  0.481615552684481  1.0000
  C   C16       1.0  0.49977190885188333  0.7208446598992709  0.492728878494809  1.0000
  C   C17       1.0  0.4999147762549326  0.2602887130511036  0.47461273214875627  1.0000
  C   C18       1.0  0.4983573495322061  0.8746523170127248  0.46021069167930756  1.0000
  C   C19       1.0  0.4991469441113807  0.10270207380525422  0.4533070613051962  1.0000
  C   C20       1.0  0.49094893300972586  0.5066449281065745  0.39366596271321436  1.0000
  C   C21       1.0  0.49553914545460026  0.48980429001594666  0.6156541796772359  1.0000
  C   C22       1.0  0.49850573485754507  0.9536526137489929  0.45152133347176  1.0000
  C   C23       1.0  0.5304147609239677  0.5994079267101287  0.2495725572283902  1.0000
  C   C24       1.0  0.4986525134345995  0.022926238672575  0.4490294908357129  1.0000
  C   C25       1.0  0.1640469744458457  0.45841454920697816  0.4607061509710348  1.0000
  C   C26       1.0  0.8278314621233205  0.5412641100656117  0.5412239659931899  1.0000
  C   C27       1.0  0.16159900430048418  0.5366226532558258  0.5457881954735271  1.0000
  C   C28       1.0  0.8328087584497509  0.45175869199378144  0.4626280217933142  1.0000
  C   C29       1.0  0.24793970329479  0.4574871402462506  0.4637031543858043  1.0000
  C   C30       1.0  0.7440414026140587  0.5361393387085869  0.5405142059953575  1.0000
  C   C31       1.0  0.2455562468226447  0.5321409757964233  0.5458102029495251  1.0000
  C   C32       1.0  0.7488878259399454  0.450046850130562  0.4649426486566099  1.0000
  C   C33       1.0  0.11902548223102369  0.4986812250783574  0.5025719980538524  1.0000
  C   C34       1.0  0.4746935014786402  0.4797885921906939  0.7783129251097448  1.0000
  C   C35       1.0  0.8740575506747631  0.4981120890140218  0.5016602032445618  1.0000
  C   C36       1.0  0.0334419139499715  0.5002282873232673  0.5016122799409571  1.0000
  C   C37       1.0  0.9596008955602784  0.5002306259336395  0.50144034220191  1.0000
  C   C38       1.0  0.4625327646834093  0.6116655214030616  0.8783456631542208  1.0000
  C   C39       1.0  0.5745749336441648  0.5197824333958394  0.1256676241014958  1.0000
  C   C40       1.0  0.5872560547156809  0.5285270134539318  0.8803263213709656  1.0000
  C   C41       1.0  0.44719433529145647  0.5995049176449783  0.12625390656965146  1.0000
  C   C42       1.0  0.5911723268844397  0.5400094123743174  0.9430257699374562  1.0000
  C   C43       1.0  0.4544436972503191  0.6075669832340792  0.0632475280336777  1.0000
  C   C44       1.0  0.5244823089085243  0.5751222641520928  0.9725510222229232  1.0000
  C   C45       1.0  0.525948978288909  0.5872415627104389  0.3085966465209182  1.0000
  C   C46       1.0  0.5207812700900404  0.5721098952924495  0.033372482100809  1.0000
  C   C47       1.0  0.4625501073412791  0.6144047066284699  0.9418540581324848  1.0000
  C   C48       1.0  0.5841457097498192  0.5343763014613784  0.0636654220976709  1.0000
  C   C49       1.0  0.6578606927218756  0.5133052074951294  0.9737621145083181  1.0000
  C   C50       1.0  0.39721242045312266  0.650049118841267  0.0328509310851217  1.0000
  C   C51       1.0  0.6542959327337456  0.510270422794065  0.034462405096491  1.0000
  C   C52       1.0  0.4017029434347988  0.6540350280480995  0.9719949695799598  1.0000
  C   C53       1.0  0.47931264739430895  0.342616222400693  0.3305942853319408  1.0000
  C   C54       1.0  0.5404930956595776  0.6975419014346259  0.6504217525573779  1.0000
  C   C55       1.0  0.3282775604927293  0.9015645625114741  0.41301715789220583  1.0000
  C   C56       1.0  0.46912033479105725  0.46018824423421023  0.7203730163516512  1.0000
  C   C57       1.0  0.6764710527238477  0.07157368958682753  0.5049964107404604  1.0000
  C   C58       1.0  0.31360010054858367  0.08136531115662392  0.49483196856477457  1.0000
  C   C59       1.0  0.6623613002245747  0.8903474037186213  0.3988400973429762  1.0000
  C   C60       1.0  0.49262907981331233  0.5203651988256012  0.3302577890920162  1.0000
  C   C61       1.0  0.5007109952546713  0.5079562642000752  0.67842254820237  1.0000
  C   C62       1.0  0.4616117907260885  0.4662655349812042  0.2922429637935906  1.0000
  N   N1        1.0  0.5226398715585389  0.5651910768907416  0.8529443707471387  1.0000
  N   N2        1.0  0.5070926183367561  0.5545191001441836  0.1520936741216801  1.0000
  N   N3        1.0  0.2877456443628077  0.4933044565648501  0.5056176294863234  1.0000
  N   N4        1.0  0.7055650361600028  0.49126311658230293  0.5031299248599197  1.0000
  Cl  Cl1       1.0  0.7455729819945276  0.48394555047860166  0.9410722349944861  1.0000
  Cl  Cl2       1.0  0.32004183076014664  0.6991915714247695  0.0655914235156274  1.0000
  Cl  Cl3       1.0  0.7380464889939233  0.4770050340261849  0.0688352273636781  1.0000
  Cl  Cl4       1.0  0.33028250865372394  0.7085354192720815  0.9389018131350112  1.0000
  Cl  Cl5       1.0  0.5729694229484608  0.6801834247133912  0.22242538289496847  1.0000
  Cl  Cl6       1.0  0.4358089219544467  0.42218201367455077  0.8304003442775141  1.0000
  Cl  Cl7       1.0  0.5595193748333216  0.6560537925075848  0.3548697956617842  1.0000
  Cl  Cl8       1.0  0.42419099624972734  0.3764547792558375  0.7008348224312825  1.0000
  O   O1        1.0  0.43294675278716704  0.3779620204883827  0.49369457721597587  1.0000
  O   O2        1.0  0.6197089985442474  0.47892408136672054  0.15363910424935057  1.0000
  O   O3        1.0  0.6339087780728575  0.4878204250846637  0.8525681521549302  1.0000
  O   O4        1.0  0.3927230134491991  0.627102127761205  0.1558830095166428  1.0000
  O   O5        1.0  0.4246805305424601  0.40163220229664637  0.3117475929454939  1.0000
  O   O6        1.0  0.5701078765568608  0.6205194179559541  0.6526760943677488  1.0000
  O   O7        1.0  0.3506939273436842  0.8720232243378876  0.4678527070152042  1.0000
  O   O8        1.0  0.6454934564387357  0.10251265215379851  0.452838047311019  1.0000
  O   O9        1.0  0.35350766143981355  0.1097626767275912  0.44476182647523627  1.0000
  O   O10       1.0  0.6457416108553246  0.86814166310743  0.4566714789462836  1.0000
  O   O11       1.0  0.5683380552756319  0.6039596682350992  0.5083908712344821  1.0000
  O   O12       1.0  0.4310221362487709  0.6068081589830643  0.5124392906707271  1.0000
  O   O13       1.0  0.5704853916844568  0.3735470452976486  0.4927632373054109  1.0000
  O   O14       1.0  0.4222083565800432  0.5069323773405399  0.4178841067203293  1.0000
  O   O15       1.0  0.5625528884063442  0.47852873029521004  0.5901285095954804  1.0000
  O   O16       1.0  0.42535586498337347  0.48971556747016354  0.5940412446666058  1.0000
  O   O17       1.0  0.5595654799657623  0.49586556685935784  0.41649299338442347  1.0000
  O   O18       1.0  0.41297265040682163  0.6438263140847696  0.8479205611939306  1.0000
