data_image0
_chemical_formula_structural       Ni2H16C20N16
_chemical_formula_sum              "Ni2 H16 C20 N16"
_cell_length_a       6.915574948263784
_cell_length_b       9.397339896283691
_cell_length_c       10.323017841366779
_cell_angle_alpha    111.26151439335378
_cell_angle_beta     99.92393799273322
_cell_angle_gamma    105.5348923432048

_space_group_name_H-M_alt    "P 1"
_space_group_IT_number       1

loop_
  _space_group_symop_operation_xyz
  'x, y, z'

loop_
  _atom_site_type_symbol
  _atom_site_label
  _atom_site_symmetry_multiplicity
  _atom_site_fract_x
  _atom_site_fract_y
  _atom_site_fract_z
  _atom_site_occupancy
  Ni  Ni1       1.0  0.19747327836326184  0.4910568965429718  0.10673552300558241  1.0000
  Ni  Ni2       1.0  0.8025254499932757  0.5089516099974175  0.8932666108381114  1.0000
  H   H1        1.0  0.8283612921578226  0.1629449807060297  0.9363470264083633  1.0000
  H   H2        1.0  0.17163943646106364  0.8370585809537944  0.06365077694013613  1.0000
  H   H3        1.0  0.6667098158127659  0.9260640940776599  0.991715164622555  1.0000
  H   H4        1.0  0.333300201549278  0.07393443858033072  0.008274270633855002  1.0000
  H   H5        1.0  0.7793268824894425  0.9603272611484571  0.25021632713745123  1.0000
  H   H6        1.0  0.22068335328354746  0.0396626267456455  0.749772180299111  1.0000
  H   H7        1.0  0.03836619588941658  0.22690277818846033  0.4407137610509296  1.0000
  H   H8        1.0  0.9616318379798725  0.7730922014334496  0.5592798958883449  1.0000
  H   H9        1.0  0.2288748393000191  0.4718009380969974  0.5909826670066494  1.0000
  H   H10       1.0  0.7711162280118985  0.5281978132762931  0.40901726600169047  1.0000
  H   H11       1.0  0.49976583927704604  0.7469030424045755  0.7453916596822696  1.0000
  H   H12       1.0  0.5002304105090474  0.2530882082565497  0.2546102335604843  1.0000
  H   H13       1.0  0.648368899217786  0.9258498453514505  0.6250418965083427  1.0000
  H   H14       1.0  0.35164456315838777  0.0741435569524072  0.37497043577667455  1.0000
  H   H15       1.0  0.5193103588416436  0.8104083747129779  0.35194047659564387  1.0000
  H   H16       1.0  0.4806961929738022  0.1895950207864416  0.6480705310110013  1.0000
  C   C1        1.0  0.8693059431742468  0.1704578288855316  0.045963697213174656  1.0000
  C   C2        1.0  0.1306912777384853  0.8295445544518361  0.9540333107385667  1.0000
  C   C3        1.0  0.7793769032851541  0.041039759095298195  0.07828744839844859  1.0000
  C   C4        1.0  0.22062377513972822  0.9589576567217578  0.9217053882643428  1.0000
  C   C5        1.0  0.8420668982601923  0.0602971993088417  0.2213913695056321  1.0000
  C   C6        1.0  0.1579328654810652  0.9396953110916471  0.778597784975105  1.0000
  C   C7        1.0  0.9887172704573146  0.20944402668370543  0.3281402304858787  1.0000
  C   C8        1.0  0.011281086674493712  0.7905546580147983  0.6718527647486853  1.0000
  C   C9        1.0  0.07116637882425178  0.3346452839370144  0.2879594172402804  1.0000
  C   C10       1.0  0.9288267398367224  0.6653546800294593  0.7120392185073143  1.0000
  C   C11       1.0  0.2289712703924351  0.4966803742958704  0.39047298143081133  1.0000
  C   C12       1.0  0.7710253537428927  0.5033207389155977  0.6095312833416815  1.0000
  C   C13       1.0  0.2935438285558689  0.5508676505164304  0.5415628434278403  1.0000
  C   C14       1.0  0.7064477799831508  0.44912615535406536  0.4584364667815636  1.0000
  C   C15       1.0  0.4451129649286898  0.7062639029166108  0.6279491692671756  1.0000
  C   C16       1.0  0.5548882498133594  0.2937285034272251  0.3720536785785812  1.0000
  C   C17       1.0  0.527876058372982  0.8042205824328053  0.5619711668975784  1.0000
  C   C18       1.0  0.4721309849219395  0.19577172753654543  0.43803328449879336  1.0000
  C   C19       1.0  0.4574040688975813  0.7420643299644922  0.410695980089109  1.0000
  C   C20       1.0  0.5426001114307935  0.2579341885736  0.5893102194035933  1.0000
  N   N1        1.0  0.012518905232113313  0.313066805108356  0.14798109642386242  1.0000
  N   N2        1.0  0.9874677916694524  0.6869320316306544  0.8520154587888487  1.0000
  N   N3        1.0  0.3122670098027527  0.5923499052057225  0.3273823101196954  1.0000
  N   N4        1.0  0.6877328516483557  0.4076548619873464  0.6726225780862053  1.0000
  N   N5        1.0  0.025771085301805365  0.3861285016941308  0.8873124084580583  1.0000
  N   N6        1.0  0.974229102536327  0.6138800112839816  0.11268505096374778  1.0000
  N   N7        1.0  0.05947624431870221  0.3108920539325696  0.7768476703469249  1.0000
  N   N8        1.0  0.9405195686455129  0.6891164862563244  0.2231560785355313  1.0000
  N   N9        1.0  0.08569069246371441  0.2354255748440295  0.6672922231630098  1.0000
  N   N10       1.0  0.9143009698401627  0.764574423393185  0.33270431992708893  1.0000
  N   N11       1.0  0.4106267815585197  0.6787968192337246  0.09229585628325755  1.0000
  N   N12       1.0  0.5893743178387325  0.32121655845249825  0.9077120524000011  1.0000
  N   N13       1.0  0.5061793373837985  0.6560686154045712  0.00637264981944693  1.0000
  N   N14       1.0  0.49382522041831567  0.34393980639232064  0.9936291541236176  1.0000
  N   N15       1.0  0.3974812372316521  0.35793242761914  0.07945306426984897  1.0000
  N   N16       1.0  0.6025122020136918  0.6420712065309645  0.9205507101267971  1.0000
