data_image0
_chemical_formula_structural       La2CuH16C32N4O26
_chemical_formula_sum              "La2 Cu1 H16 C32 N4 O26"
_cell_length_a       9.929152640592818
_cell_length_b       10.46708913392475
_cell_length_c       11.076146258797396
_cell_angle_alpha    69.97871180020007
_cell_angle_beta     84.4564898710722
_cell_angle_gamma    70.50028202370657

_space_group_name_H-M_alt    "P 1"
_space_group_IT_number       1

loop_
  _space_group_symop_operation_xyz
  'x, y, z'

loop_
  _atom_site_type_symbol
  _atom_site_label
  _atom_site_symmetry_multiplicity
  _atom_site_fract_x
  _atom_site_fract_y
  _atom_site_fract_z
  _atom_site_occupancy
  La  La1       1.0  0.40241836690441335  0.9085904000294959  0.41001996004190744  1.0000
  La  La2       1.0  0.5975776270052221  0.091408394907937  0.589981507123703  1.0000
  Cu  Cu1       1.0  0.5000000208466348  0.4999994092834896  0.49999830022930075  1.0000
  H   H1        1.0  0.9158718311661076  0.8515358017427345  0.4846135668374602  1.0000
  H   H2        1.0  0.08412618917506622  0.14846298471250208  0.5153877303571193  1.0000
  H   H3        1.0  0.8154765688442822  0.4592572520144103  0.669659611441638  1.0000
  H   H4        1.0  0.1845309137865669  0.5407372214390306  0.33034043990369377  1.0000
  H   H5        1.0  0.2520661886249655  0.4517667731816175  0.6506897162608212  1.0000
  H   H6        1.0  0.7479379032483209  0.5482352213064345  0.34930824177354947  1.0000
  H   H7        1.0  0.461455530545578  0.8570253641069456  0.9805923865103028  1.0000
  H   H8        1.0  0.5385407993139495  0.14297555800710168  0.01941018400535202  1.0000
  H   H9        1.0  0.35212775103199323  0.47969555048445756  0.20451621778572368  1.0000
  H   H10       1.0  0.6478726245793851  0.5203054114967145  0.7954796753169404  1.0000
  H   H11       1.0  0.2811279308905554  0.6504172193641294  0.7936839801207897  1.0000
  H   H12       1.0  0.7188724440695466  0.34958691926493657  0.20631542120568014  1.0000
  H   H13       1.0  0.1086094564995008  0.08440394620184577  0.256333628638636  1.0000
  H   H14       1.0  0.8913899187380423  0.9155937459470704  0.7436697054616135  1.0000
  H   H15       1.0  0.19958537229394574  0.1875217897324646  0.18385892516449326  1.0000
  H   H16       1.0  0.8004139951811098  0.8124791358958631  0.8161415796886404  1.0000
  C   C1        1.0  0.09475148297136121  0.6602548834180411  0.5605264160339019  1.0000
  C   C2        1.0  0.9052489054819546  0.3397428044897737  0.4394768330808462  1.0000
  C   C3        1.0  0.9487320606692151  0.7368659605646996  0.5378683025682207  1.0000
  C   C4        1.0  0.05127001151913647  0.2631328170449265  0.4621317493313128  1.0000
  C   C5        1.0  0.8478629452182957  0.6652462146432541  0.5754576236396645  1.0000
  C   C6        1.0  0.15214047881876525  0.3347514930164194  0.4245417491065809  1.0000
  C   C7        1.0  0.8916917114710545  0.517936220468094  0.6428373503834522  1.0000
  C   C8        1.0  0.10831238410117552  0.48206257301570327  0.3571598154860851  1.0000
  C   C9        1.0  0.035865940233605946  0.4460019212738897  0.6733815130217309  1.0000
  C   C10       1.0  0.9641378234522833  0.5539947125581435  0.3266181709097182  1.0000
  C   C11       1.0  0.13960817347363266  0.5134593642853815  0.6307876549662695  1.0000
  C   C12       1.0  0.8603942403953225  0.4865383232590189  0.3692145188244567  1.0000
  C   C13       1.0  0.19723822293551047  0.7398647406859167  0.5007051364876176  1.0000
  C   C14       1.0  0.8027608038748254  0.2601372668888402  0.49929415182731424  1.0000
  C   C15       1.0  0.6953261116919405  0.743909670667918  0.5345508428852952  1.0000
  C   C16       1.0  0.3046752936760697  0.2560848119945404  0.4654515290790968  1.0000
  C   C17       1.0  0.37600836270660654  0.7618910790047408  0.874412536859687  1.0000
  C   C18       1.0  0.6239862726077233  0.23811201124326695  0.12558768556507263  1.0000
  C   C19       1.0  0.4173787310563881  0.7725017265183494  0.9872399215633935  1.0000
  C   C20       1.0  0.5826179296735816  0.22750136336625804  0.012759225537358537  1.0000
  C   C21       1.0  0.4076746967953967  0.6716535170684848  0.10637289437308084  1.0000
  C   C22       1.0  0.5923263564464705  0.3283484820240829  0.8936262239708271  1.0000
  C   C23       1.0  0.3533485714126742  0.562344557946595  0.11325905199412033  1.0000
  C   C24       1.0  0.6466501167647253  0.43765851533702  0.8867408304885843  1.0000
  C   C25       1.0  0.30174320614001016  0.5608467404567888  0.0015665230074617261  1.0000
  C   C26       1.0  0.6982551491351642  0.4391541812938441  0.998434972184171  1.0000
  C   C27       1.0  0.31384106084695423  0.6579070640064728  0.8812570647991507  1.0000
  C   C28       1.0  0.6861562812124474  0.342093861985262  0.11874451537799764  1.0000
  C   C29       1.0  0.4078347205006311  0.8554247924010455  0.7448523340520267  1.0000
  C   C30       1.0  0.5921585602819377  0.1445825606823874  0.2551502650438522  1.0000
  C   C31       1.0  0.45506169955935166  0.6750951696116514  0.2297261040218644  1.0000
  C   C32       1.0  0.544935986863706  0.3249014734293921  0.7702759005286525  1.0000
  N   N1        1.0  0.07986773828938709  0.2908343978391414  0.7468548891855208  1.0000
  N   N2        1.0  0.9201410847287332  0.7091654401480199  0.253142445924226  1.0000
  N   N3        1.0  0.23668599914402222  0.45086937220769124  0.011984854210155032  1.0000
  N   N4        1.0  0.7633062660263973  0.5491348328253167  0.9880116055884685  1.0000
  O   O1        1.0  0.33061766007715226  0.6727531053560154  0.48993564262879374  1.0000
  O   O2        1.0  0.6693833978795426  0.3272456846135015  0.5100635889032645  1.0000
  O   O3        1.0  0.1519804833953131  0.8755704515258954  0.4574516797715162  1.0000
  O   O4        1.0  0.8480222627245907  0.12443256419938106  0.5425523895340874  1.0000
  O   O5        1.0  0.64568010658121  0.8784060611954629  0.5195935987367194  1.0000
  O   O6        1.0  0.3543172479555139  0.1215884221938097  0.4804109238757093  1.0000
  O   O7        1.0  0.6199368088762822  0.6785980759612826  0.510494590871005  1.0000
  O   O8        1.0  0.3800639043521484  0.3214018284298206  0.4894998027108883  1.0000
  O   O9        1.0  0.9837423338891823  0.23720545531283221  0.7910069881799373  1.0000
  O   O10       1.0  0.016267509455921876  0.7627943216017101  0.2089965994152224  1.0000
  O   O11       1.0  0.20935590457024492  0.22313800970817962  0.7586122733461168  1.0000
  O   O12       1.0  0.7906502140212411  0.7768576311206842  0.2413775929166277  1.0000
  O   O13       1.0  0.3671483291304653  0.8408635764743976  0.6467212697368154  1.0000
  O   O14       1.0  0.6328547593213186  0.15913517253776624  0.3532814132361751  1.0000
  O   O15       1.0  0.478119188632327  0.9372626853285838  0.744711775311835  1.0000
  O   O16       1.0  0.5218673298590489  0.06275004186100118  0.2552915034915415  1.0000
  O   O17       1.0  0.4483106199019175  0.7930682409683172  0.24012652319490263  1.0000
  O   O18       1.0  0.5516921305682061  0.20692839710481076  0.7598732457220623  1.0000
  O   O19       1.0  0.4982358650727433  0.550351932412667  0.315840347480311  1.0000
  O   O20       1.0  0.5017672250462084  0.4496436318328135  0.6841597326218648  1.0000
  O   O21       1.0  0.23872884868541178  0.3596219791104716  0.12061541895761253  1.0000
  O   O22       1.0  0.7612610551194693  0.6403800991093361  0.8793810128149817  1.0000
  O   O23       1.0  0.1825698437995554  0.45362955619424383  0.9147396141217143  1.0000
  O   O24       1.0  0.8174224183231974  0.5463746731951316  0.0852541296179369  1.0000
  O   O25       1.0  0.2040524481532699  0.092489835439018  0.2453443508509849  1.0000
  O   O26       1.0  0.7959465854036694  0.9075089467751173  0.7546568613580787  1.0000
