data_image0
_chemical_formula_structural       Sm4H28C32N4O32
_chemical_formula_sum              "Sm4 H28 C32 N4 O32"
_cell_length_a       7.5439832448722
_cell_length_b       9.914111290017216
_cell_length_c       14.87321443291812
_cell_angle_alpha    89.99984090845342
_cell_angle_beta     97.90479138593045
_cell_angle_gamma    90.0001641382492

_space_group_name_H-M_alt    "P 1"
_space_group_IT_number       1

loop_
  _space_group_symop_operation_xyz
  'x, y, z'

loop_
  _atom_site_type_symbol
  _atom_site_label
  _atom_site_symmetry_multiplicity
  _atom_site_fract_x
  _atom_site_fract_y
  _atom_site_fract_z
  _atom_site_occupancy
  Sm  Sm1       1.0  0.1436674232381066  0.042840332150390695  0.8570952965666337  1.0000
  Sm  Sm2       1.0  0.3563253806672579  0.5428414514823102  0.6429028472423539  1.0000
  Sm  Sm3       1.0  0.856328489508137  0.9571585453062426  0.14290351801411566  1.0000
  Sm  Sm4       1.0  0.6436678555606576  0.4571574259718003  0.3570957738841046  1.0000
  H   H1        1.0  0.3927793541750548  0.28389572726690193  0.02077202956284911  1.0000
  H   H2        1.0  0.10722284345578711  0.7838959053656821  0.479231528006828  1.0000
  H   H3        1.0  0.6072272310594473  0.7161041588560763  0.979230918197068  1.0000
  H   H4        1.0  0.8927850531718422  0.21610599807947034  0.5207742039688696  1.0000
  H   H5        1.0  0.16915096008494152  0.6159295510919519  0.8561779874362047  1.0000
  H   H6        1.0  0.3308447151287339  0.11592771489528528  0.6438249348422006  1.0000
  H   H7        1.0  0.8308449257935991  0.3840703350223221  0.1438235146339935  1.0000
  H   H8        1.0  0.6691525023016354  0.8840782231985143  0.3561773358228209  1.0000
  H   H9        1.0  0.21063680140653676  0.6181682894203461  0.1483225656981091  1.0000
  H   H10       1.0  0.28937691239832464  0.11816852051205727  0.3516801145752169  1.0000
  H   H11       1.0  0.7893764751221187  0.3818305880456662  0.8516808656983416  1.0000
  H   H12       1.0  0.7106350325885131  0.8818303569541044  0.6483225482215218  1.0000
  H   H13       1.0  0.03262222498990042  0.27203302978548993  0.7064967347870309  1.0000
  H   H14       1.0  0.4673806579884641  0.7720307375747452  0.7935064189004493  1.0000
  H   H15       1.0  0.9673816770106003  0.7279678649968275  0.29350669139034846  1.0000
  H   H16       1.0  0.5326245956975414  0.22796511389525875  0.20649576026301733  1.0000
  H   H17       1.0  0.9204173114468831  0.13657663267923673  0.6792238388602811  1.0000
  H   H18       1.0  0.5795853687187459  0.6365764031578321  0.8207780472250903  1.0000
  H   H19       1.0  0.0795866039849642  0.8634222447793429  0.32077824357359935  1.0000
  H   H20       1.0  0.4204185534254421  0.3634194483123137  0.1792233633386644  1.0000
  H   H21       1.0  0.7516895934283598  0.05060683088136389  0.792793812286412  1.0000
  H   H22       1.0  0.7483141136899931  0.5506034104695487  0.707210996926193  1.0000
  H   H23       1.0  0.2483143018547977  0.9493940638995395  0.20721028576353012  1.0000
  H   H24       1.0  0.25168842988263423  0.4493873976744851  0.2927943481498901  1.0000
  H   H25       1.0  0.7846144559961987  0.9420986165211361  0.8691596957412743  1.0000
  H   H26       1.0  0.71538787658055  0.44209859894675674  0.6308436155818241  1.0000
  H   H27       1.0  0.21539079097580333  0.05789925227401939  0.1308431552931282  1.0000
  H   H28       1.0  0.284610685811309  0.5578982611802061  0.36915807994510896  1.0000
  C   C1        1.0  0.3308864892123183  0.38301197124838626  0.013741446633403608  1.0000
  C   C2        1.0  0.1691187464473103  0.8830102382473156  0.4862587848804126  1.0000
  C   C3        1.0  0.6691174396575548  0.6169889235395657  0.9862592920537097  1.0000
  C   C4        1.0  0.8308851757068895  0.11699166520251225  0.5137426256784537  1.0000
  C   C5        1.0  0.280888231155565  0.4378661612806382  0.9275171810315256  1.0000
  C   C6        1.0  0.2191112058532241  0.9378612220945252  0.5724833989110891  1.0000
  C   C7        1.0  0.7191116829384897  0.5621357421668093  0.0724832674733378  1.0000
  C   C8        1.0  0.7808860182844769  0.06213866402100619  0.4275181998862507  1.0000
  C   C9        1.0  0.20599846155047893  0.5668610122046615  0.9216684655261602  1.0000
  C   C10       1.0  0.29399705131651643  0.06685735140966637  0.5783345360370973  1.0000
  C   C11       1.0  0.793997410896708  0.4331408912333499  0.07833438028754361  1.0000
  C   C12       1.0  0.7060001526724945  0.9331445520281956  0.4216690783763184  1.0000
  C   C13       1.0  0.1767849267559144  0.6324744303341775  0.001406885933612002  1.0000
  C   C14       1.0  0.3232154182000144  0.13247311348133914  0.4985981633169558  1.0000
  C   C15       1.0  0.8232176101177233  0.36752747310450923  0.9985991310060742  1.0000
  C   C16       1.0  0.6767857938441326  0.8675257639690697  0.5014064131529068  1.0000
  C   C17       1.0  0.2299326695940138  0.5687005699994713  0.08479237103095022  1.0000
  C   C18       1.0  0.270071512731839  0.06870049356093938  0.41520971208097984  1.0000
  C   C19       1.0  0.7700725841003334  0.4313003247869247  0.9152098081284378  1.0000
  C   C20       1.0  0.7299324094190283  0.9312993925623301  0.5847916984795206  1.0000
  C   C21       1.0  0.30965444461663355  0.3582666939649286  0.8448934296659516  1.0000
  C   C22       1.0  0.19033269813153456  0.8582573121309875  0.6551050646051024  1.0000
  C   C23       1.0  0.690337466806831  0.6417442874500807  0.155103750978455  1.0000
  C   C24       1.0  0.8096578615680414  0.14173551334091877  0.3448933630719608  1.0000
  C   C25       1.0  0.0916005498267936  0.7695163087380904  0.9987099255700187  1.0000
  C   C26       1.0  0.40840095298111834  0.26951523751596074  0.5012964948186038  1.0000
  C   C27       1.0  0.9084059883896459  0.23048559470156954  0.0012977252962330067  1.0000
  C   C28       1.0  0.5916015973255286  0.7304856572622711  0.4987081783767735  1.0000
  C   C29       1.0  0.5447725204051181  0.968011730038377  0.9611786320456234  1.0000
  C   C30       1.0  0.9552153584193521  0.4680095960545074  0.5388054328517242  1.0000
  C   C31       1.0  0.45521685554587077  0.03198815610765139  0.03880424582956011  1.0000
  C   C32       1.0  0.0447713275769601  0.531989281422895  0.46117859531511846  1.0000
  N   N1        1.0  0.3085557022971274  0.4469025352718247  0.0908261967824728  1.0000
  N   N2        1.0  0.19145107629071845  0.9469031903601955  0.4091747000967985  1.0000
  N   N3        1.0  0.6914509098067472  0.553097350856788  0.9091740634871786  1.0000
  N   N4        1.0  0.8085555089471228  0.05309871308934077  0.5908282476614914  1.0000
  O   O1        1.0  0.3348814992187954  0.23178234451967936  0.8541101659718535  1.0000
  O   O2        1.0  0.16511201710580542  0.7317699199470978  0.645878938218253  1.0000
  O   O3        1.0  0.6651131760534595  0.7682316629060251  0.1458784737810319  1.0000
  O   O4        1.0  0.8348933977914401  0.2682229055669153  0.3541071160060625  1.0000
  O   O5        1.0  0.30546228669363984  0.42089474745185357  0.7705993792053505  1.0000
  O   O6        1.0  0.19451166050577484  0.9208790126073437  0.7294000622246912  1.0000
  O   O7        1.0  0.6945135387554874  0.5791192599321844  0.22939932820115422  1.0000
  O   O8        1.0  0.8054614883783062  0.07910675220236388  0.27059845175033814  1.0000
  O   O9        1.0  0.03245703149509181  0.8078947940450616  0.070234531463008  1.0000
  O   O10       1.0  0.46755323477295735  0.3078860114015143  0.42977359893524897  1.0000
  O   O11       1.0  0.9675561711594656  0.19211417003823067  0.9297762905235205  1.0000
  O   O12       1.0  0.5324546551173059  0.6921037880828818  0.5702328049227958  1.0000
  O   O13       1.0  0.0851860457349289  0.83654313743299  0.9258130972326627  1.0000
  O   O14       1.0  0.41482104530432207  0.3365427845696231  0.5741922580190177  1.0000
  O   O15       1.0  0.9148218508910376  0.16345775734888685  0.07419263474385221  1.0000
  O   O16       1.0  0.5851855399335194  0.6634591188799064  0.4258106897392723  1.0000
  O   O17       1.0  0.44762301462068893  0.9465121223120434  0.886232544312918  1.0000
  O   O18       1.0  0.0523645477410852  0.4465168623023955  0.6137530417838237  1.0000
  O   O19       1.0  0.5523676727134232  0.0534837291764845  0.11375311778293451  1.0000
  O   O20       1.0  0.9476221046818555  0.5534900844741841  0.38623434573933935  1.0000
  O   O21       1.0  0.7102434232100238  0.9408425203094026  0.9788429045260116  1.0000
  O   O22       1.0  0.7897469952313543  0.4408461496009721  0.5211461008280764  1.0000
  O   O23       1.0  0.2897472305340259  0.05915131384552548  0.021146116934303908  1.0000
  O   O24       1.0  0.21024366524005705  0.5591537365350374  0.4788422487547876  1.0000
  O   O25       1.0  0.9964851203688811  0.18604347305875985  0.7306929868796034  1.0000
  O   O26       1.0  0.5035163717594174  0.6860402658209778  0.7693100662992195  1.0000
  O   O27       1.0  0.003516105116631301  0.8139594390475863  0.269310245841865  1.0000
  O   O28       1.0  0.4964862054049279  0.3139535683199454  0.23069191941159062  1.0000
  O   O29       1.0  0.8256610758214792  0.9722436926005  0.8114985758644906  1.0000
  O   O30       1.0  0.674341356484952  0.47224031837723845  0.6885046867538662  1.0000
  O   O31       1.0  0.17434416444152132  0.027759219509633195  0.1885049470384033  1.0000
  O   O32       1.0  0.3256598824185631  0.5277525070991443  0.3114972022306119  1.0000
