data_image0
_chemical_formula_structural       Al4H36C60S16N4O76
_chemical_formula_sum              "Al4 H36 C60 S16 N4 O76"
_cell_length_a       6.5863215653476885
_cell_length_b       20.399487636203606
_cell_length_c       22.385111172449374
_cell_angle_alpha    89.95577357475818
_cell_angle_beta     89.908946331428
_cell_angle_gamma    92.80888481431775

_space_group_name_H-M_alt    "P 1"
_space_group_IT_number       1

loop_
  _space_group_symop_operation_xyz
  'x, y, z'

loop_
  _atom_site_type_symbol
  _atom_site_label
  _atom_site_symmetry_multiplicity
  _atom_site_fract_x
  _atom_site_fract_y
  _atom_site_fract_z
  _atom_site_occupancy
  Al  Al1       1.0  0.9927671010704416  0.30946896540542224  0.5002398702187064  1.0000
  Al  Al2       1.0  0.0005374685582779684  0.6866995257217567  0.9994319165163505  1.0000
  Al  Al3       1.0  0.4860384326757413  0.3101138138925634  0.49682076765429173  1.0000
  Al  Al4       1.0  0.5055599039167048  0.6853093380644282  0.9954390969115322  1.0000
  H   H1        1.0  0.03399081528250037  0.5016493169257642  0.0538476656587719  1.0000
  H   H2        1.0  0.9605954238981268  0.4930044988735672  0.5519312978986619  1.0000
  H   H3        1.0  0.5054880964119234  0.19418219235536333  0.34658311190342056  1.0000
  H   H4        1.0  0.4880364878844219  0.8062240090646571  0.8472295776329517  1.0000
  H   H5        1.0  0.054254427367986593  0.8931301998504112  0.24335132594215741  1.0000
  H   H6        1.0  0.9480954665028989  0.116020256287257  0.7502082814178055  1.0000
  H   H7        1.0  0.9640888006949665  0.017710720275488298  0.358784603126729  1.0000
  H   H8        1.0  0.04014445228791168  0.9788087345367129  0.8656597905177962  1.0000
  H   H9        1.0  0.8032017495902009  0.18323346947887834  0.25500208080418224  1.0000
  H   H10       1.0  0.21163468996726917  0.8207046032529632  0.7491202212321968  1.0000
  H   H11       1.0  0.6200761112377079  0.992546335190276  0.09811960616363538  1.0000
  H   H12       1.0  0.49134496091306074  0.9660269389763484  0.6666927499902542  1.0000
  H   H13       1.0  0.7402067527635409  0.8268579493602105  0.08226200629373182  1.0000
  H   H14       1.0  0.4826571429164515  0.9932586804652671  0.5564716975974022  1.0000
  H   H15       1.0  0.8157138310951736  0.0853144844101692  0.43101245665801  1.0000
  H   H16       1.0  0.18181768289019118  0.9055828994327227  0.9381954301189523  1.0000
  H   H17       1.0  0.8640961655986954  0.682879391930669  0.1734041797950212  1.0000
  H   H18       1.0  0.09918996447005668  0.3255301018832171  0.6740680047605424  1.0000
  H   H19       1.0  0.45342125355131907  0.3176207110613234  0.20192335911830378  1.0000
  H   H20       1.0  0.5497154481301861  0.6779207945709089  0.7336784737182073  1.0000
  H   H21       1.0  0.8748724299292334  0.3168104675082759  0.1224474159458282  1.0000
  H   H22       1.0  0.06498829931449279  0.6826448695200398  0.6072286246809497  1.0000
  H   H23       1.0  0.42620323282687167  0.7008334864218781  0.1276629373418743  1.0000
  H   H24       1.0  0.5426188769070279  0.3005400860964614  0.6304403150236767  1.0000
  H   H25       1.0  0.3289197008361029  0.5141473837139187  0.47972308171545563  1.0000
  H   H26       1.0  0.6780176706086677  0.483116356673797  0.9713654230502087  1.0000
  H   H27       1.0  0.6895403022875256  0.49813371531899975  0.22159076483804802  1.0000
  H   H28       1.0  0.32239016623931593  0.5138171685029107  0.7149367841590931  1.0000
  H   H29       1.0  0.8614281344588405  0.5860413536493141  0.2950232425770166  1.0000
  H   H30       1.0  0.3679436813552854  0.34312357588464687  0.8352519517742608  1.0000
  H   H31       1.0  0.9184776018186155  0.2680397996923959  0.3170716396471889  1.0000
  H   H32       1.0  0.08195854847681969  0.7323063296103953  0.8110458440479817  1.0000
  H   H33       1.0  0.7425709805616733  0.2832065890989597  0.42781712882730727  1.0000
  H   H34       1.0  0.2483121394023015  0.7114669429703183  0.9258224431256039  1.0000
  H   H35       1.0  0.2361444194290172  0.2716395280111215  0.5689783927394174  1.0000
  H   H36       1.0  0.7419862812252376  0.6556162378477312  0.0711513847069938  1.0000
  C   C1        1.0  0.7323607631455501  0.3947501935538611  0.5712538725444248  1.0000
  C   C2        1.0  0.2575292872094508  0.6015175713154477  0.07117817665548638  1.0000
  C   C3        1.0  0.7451800443809871  0.22046857258717978  0.5737039748062642  1.0000
  C   C4        1.0  0.24857186234581258  0.7780241317461858  0.0716397189461944  1.0000
  C   C5        1.0  0.23333129166187652  0.22133891770538844  0.42733615388345203  1.0000
  C   C6        1.0  0.7566627184910999  0.7754389283237445  0.9288392304820192  1.0000
  C   C7        1.0  0.23867091608924074  0.39959230742823587  0.4264709314268842  1.0000
  C   C8        1.0  0.7566558033418571  0.5976990622217784  0.9236316589719562  1.0000
  C   C9        1.0  0.055779430394593967  0.44492119126969937  0.1339687694756435  1.0000
  C   C10       1.0  0.9387860147929387  0.5533768774276098  0.6296049255340747  1.0000
  C   C11       1.0  0.24508589838184497  0.5469476142651217  0.11608222735575419  1.0000
  C   C12       1.0  0.7472468399525525  0.45048309347755844  0.6151468474457857  1.0000
  C   C13       1.0  0.416717872307025  0.5026352655029099  0.3970852927966392  1.0000
  C   C14       1.0  0.5747487500888012  0.4965877545851427  0.8915772369676347  1.0000
  C   C15       1.0  0.5572320608209579  0.5315702982887202  0.35597691885931226  1.0000
  C   C16       1.0  0.4242511434772923  0.47458339089580903  0.8503771325386469  1.0000
  C   C17       1.0  0.5409809026820297  0.5136082685909712  0.2959267671015838  1.0000
  C   C18       1.0  0.4477910500181607  0.49392079642776565  0.7904757337303536  1.0000
  C   C19       1.0  0.3556871927753206  0.4846859747261973  0.27412036403344325  1.0000
  C   C20       1.0  0.6422223790920254  0.5179597217598656  0.7707133761360225  1.0000
  C   C21       1.0  0.22712400286309986  0.4472256647819818  0.316942743241988  1.0000
  C   C22       1.0  0.7744832918283604  0.5528020998165032  0.8137397534176641  1.0000
  C   C23       1.0  0.289312034966386  0.4919928704796065  0.21252524824189578  1.0000
  C   C24       1.0  0.7085002742547247  0.5088308677801976  0.7096932889044395  1.0000
  C   C25       1.0  0.1559807261314035  0.4393352837618353  0.1898896616060881  1.0000
  C   C26       1.0  0.8445924695667272  0.5603199199648329  0.6862539342855528  1.0000
  C   C27       1.0  0.1024778860658202  0.3863811729104398  0.22937821687755644  1.0000
  C   C28       1.0  0.9034942549733457  0.6127464766084854  0.7257979514453723  1.0000
  C   C29       1.0  0.0905513722909816  0.39847406307426075  0.29064458766894324  1.0000
  C   C30       1.0  0.9155141432540289  0.6001149898783709  0.7871365641694794  1.0000
  C   C31       1.0  0.33032228799481084  0.5471781870944598  0.17312301817442233  1.0000
  C   C32       1.0  0.6603462283087822  0.45299287244662884  0.6719070115892478  1.0000
  C   C33       1.0  0.11023839974608758  0.4962936968067595  0.0965046733803661  1.0000
  C   C34       1.0  0.8843935765591482  0.5001822589742773  0.5943998691365451  1.0000
  C   C35       1.0  0.2703135089313733  0.4536107870289641  0.3790729523574967  1.0000
  C   C36       1.0  0.72769566100785  0.5448834360109273  0.8754959122880308  1.0000
  C   C37       1.0  0.2598465734347712  0.836625497840743  0.1132299037316145  1.0000
  C   C38       1.0  0.742461815112904  0.16348483567183078  0.6171967339960887  1.0000
  C   C39       1.0  0.1314289094354564  0.8389388080003644  0.16406933635509088  1.0000
  C   C40       1.0  0.8697195298964219  0.1650318585296873  0.668722898100718  1.0000
  C   C41       1.0  0.1525708109465356  0.891113959247342  0.2042715061833462  1.0000
  C   C42       1.0  0.8527515274183982  0.1146545945162529  0.710499729884404  1.0000
  C   C43       1.0  0.2946089859757847  0.9426720391919402  0.19506068600025367  1.0000
  C   C44       1.0  0.7186964456917124  0.060251135887398284  0.701383980458914  1.0000
  C   C45       1.0  0.42450365596087636  0.9430812660877661  0.1443415885612751  1.0000
  C   C46       1.0  0.601679707164429  0.055554565382095696  0.6486275658510509  1.0000
  C   C47       1.0  0.4037752969133378  0.8894229134861646  0.1037294990200195  1.0000
  C   C48       1.0  0.6137552635352677  0.10771038950654342  0.6072315147164816  1.0000
  C   C49       1.0  0.391488677058426  0.10272093724847761  0.3090066375060728  1.0000
  C   C50       1.0  0.6103890948019027  0.898440500818083  0.8125403797079258  1.0000
  C   C51       1.0  0.38413051981041246  0.1562005541244815  0.34715274716287325  1.0000
  C   C52       1.0  0.6117995791609941  0.843347287261537  0.849090050950636  1.0000
  C   C53       1.0  0.23539254895641185  0.05208667430063941  0.314429278788154  1.0000
  C   C54       1.0  0.769796571324683  0.9480977375230067  0.8194686882374569  1.0000
  C   C55       1.0  0.22478244995728863  0.1630423116875406  0.3877530387723808  1.0000
  C   C56       1.0  0.7686788310796544  0.8341029017652984  0.8897552007092173  1.0000
  C   C57       1.0  0.06798763460123779  0.113578502088842  0.3919107387254072  1.0000
  C   C58       1.0  0.9276026497748902  0.8825472154291135  0.8959340233047614  1.0000
  C   C59       1.0  0.0805065918822905  0.05751622550036469  0.35643216647719095  1.0000
  C   C60       1.0  0.9214042336022316  0.9399463546687488  0.8618277359079511  1.0000
  S   S1        1.0  0.6003924457038464  0.09937657160068619  0.25816971984041  1.0000
  S   S2        1.0  0.39975389169984504  0.9073089843855866  0.7641725437742722  1.0000
  S   S3        1.0  0.5488388853084059  0.8965258755413782  0.035925064794696496  1.0000
  S   S4        1.0  0.47226475144751834  0.0949806162293925  0.5390292432939462  1.0000
  S   S5        1.0  0.9131980709589199  0.7868771172868636  0.18386071634073178  1.0000
  S   S6        1.0  0.0857007560518994  0.22109564328901843  0.6837353741041312  1.0000
  S   S7        1.0  0.12233424817139138  0.3038761341849963  0.20449366745302913  1.0000
  S   S8        1.0  0.8707896924442552  0.6959005735634137  0.70463573634904  1.0000
  S   S9        1.0  0.7960159448674701  0.41740934541629576  0.1166724178393963  1.0000
  S   S10       1.0  0.18780512759718693  0.5867854886302694  0.608087970456957  1.0000
  S   S11       1.0  0.4722814771100587  0.6224794124312183  0.1951828732789664  1.0000
  S   S12       1.0  0.5006903711705917  0.3810420032422711  0.6951526873295178  1.0000
  S   S13       1.0  0.759982635851024  0.5849823188936936  0.38582243126632687  1.0000
  S   S14       1.0  0.21130274067850505  0.4220072215571875  0.8736191123028049  1.0000
  S   S15       1.0  0.8466316399196356  0.36794255515656726  0.32079236265212785  1.0000
  S   S16       1.0  0.15315801114866184  0.6325943836931955  0.8181428651931454  1.0000
  N   N1        1.0  0.30863745587348024  0.999090308242934  0.2309037889805197  1.0000
  N   N2        1.0  0.6974027082586857  0.005329236350497999  0.738215093275457  1.0000
  N   N3        1.0  0.21953027904343964  0.9939776360775948  0.2807678974197144  1.0000
  N   N4        1.0  0.7970356760456383  0.0064984213735642  0.7864696649992453  1.0000
  O   O1        1.0  0.5809639959316044  0.25068864653240297  0.5662686782233166  1.0000
  O   O2        1.0  0.41217115421206063  0.7465893101112754  0.0645016900560691  1.0000
  O   O3        1.0  0.8988380707078676  0.36847620950270965  0.5606703491475784  1.0000
  O   O4        1.0  0.09063865870302117  0.6270005960794477  0.0594739425189275  1.0000
  O   O5        1.0  0.0709175697390663  0.38637088743833203  0.45237532196812674  1.0000
  O   O6        1.0  0.9245380930446884  0.6106261341335966  0.9494809655952635  1.0000
  O   O7        1.0  0.9144277722332459  0.23509036385642187  0.5502954820535138  1.0000
  O   O8        1.0  0.07769416442002348  0.7622055081692665  0.04989936750150999  1.0000
  O   O9        1.0  0.06854676906526438  0.2469061734543345  0.4417885907237959  1.0000
  O   O10       1.0  0.9188530238504596  0.7484133993075374  0.9429095484353667  1.0000
  O   O11       1.0  0.5617011598271091  0.38268774448252435  0.54696260122045  1.0000
  O   O12       1.0  0.4279523084484537  0.6138746521854728  0.04646451916604379  1.0000
  O   O13       1.0  0.7407452246295633  0.3072784359801802  0.46526913182241  1.0000
  O   O14       1.0  0.25120297786752127  0.6891108684744509  0.964175866757408  1.0000
  O   O15       1.0  0.4105782535735471  0.24272166689245006  0.4429254907562382  1.0000
  O   O16       1.0  0.5793043506178536  0.7553442450587724  0.9454188029334958  1.0000
  O   O17       1.0  0.4026045086868493  0.37151128981197  0.4372475399783795  1.0000
  O   O18       1.0  0.5916604624540014  0.6256386982845542  0.9348266428376701  1.0000
  O   O19       1.0  0.2421538514709169  0.30514124165946294  0.537251710455017  1.0000
  O   O20       1.0  0.749976883611616  0.6846541485272581  0.036620235653941804  1.0000
  O   O21       1.0  0.6982444058744617  0.03841775549024361  0.26586407594732014  1.0000
  O   O22       1.0  0.5528786488158487  0.1251142633683955  0.20014827652735792  1.0000
  O   O23       1.0  0.7528338341179718  0.15557644292670858  0.2883697234582741  1.0000
  O   O24       1.0  0.29909455860443757  0.9659552483616524  0.779245518752532  1.0000
  O   O25       1.0  0.44372722264162684  0.8934151864746482  0.7016273268667916  1.0000
  O   O26       1.0  0.2548541070456878  0.8454002455258305  0.7850999075460976  1.0000
  O   O27       1.0  0.556289868488136  0.9938008745352819  0.1387502336311286  1.0000
  O   O28       1.0  0.48232210136320924  0.0020142601767077  0.6361987384737091  1.0000
  O   O29       1.0  0.42177304252789577  0.8749728680235549  0.9868475537151724  1.0000
  O   O30       1.0  0.6340614397387653  0.9637059752686453  0.0318330631142487  1.0000
  O   O31       1.0  0.7290717567311942  0.8508538389223401  0.041676820456842706  1.0000
  O   O32       1.0  0.2590816083255802  0.0970736769088774  0.551653498085436  1.0000
  O   O33       1.0  0.5673065821473813  0.13379889418909838  0.4925380520963074  1.0000
  O   O34       1.0  0.5273953384750527  0.021569056123617297  0.5223038940547369  1.0000
  O   O35       1.0  0.9173862671698315  0.1217183366513339  0.43127871945587504  1.0000
  O   O36       1.0  0.07240815098998607  0.8715478357709117  0.9358847347667378  1.0000
  O   O37       1.0  0.8718894355128481  0.7951895448305066  0.24615786950980828  1.0000
  O   O38       1.0  0.7436691246424939  0.7999657502205151  0.143892157050594  1.0000
  O   O39       1.0  0.9825672412648386  0.7158878333314435  0.17060964601176917  1.0000
  O   O40       1.0  0.15060326861534176  0.20838281351831964  0.7437933818586514  1.0000
  O   O41       1.0  0.23632396024146363  0.2169391165753182  0.6367189672479013  1.0000
  O   O42       1.0  0.989262101571498  0.29018560405570787  0.6797620283039407  1.0000
  O   O43       1.0  0.003108788937041104  0.25760897688230244  0.24051857523216566  1.0000
  O   O44       1.0  0.11064021227661407  0.2991012103280609  0.13992502553247022  1.0000
  O   O45       1.0  0.34791850383293615  0.2918055499725511  0.22429414680785698  1.0000
  O   O46       1.0  0.015817153205205166  0.7423136688095155  0.7321383756440981  1.0000
  O   O47       1.0  0.8342748557108166  0.7004817282526118  0.6411270800902428  1.0000
  O   O48       1.0  0.6673953703234332  0.7095520720115688  0.7397563149936489  1.0000
  O   O49       1.0  0.6699827157886914  0.45170624818694455  0.15841092097974044  1.0000
  O   O50       1.0  0.76461401895979  0.427532839990178  0.05400389356632471  1.0000
  O   O51       1.0  0.7536694565567501  0.34287638442188495  0.1329179118520543  1.0000
  O   O52       1.0  0.33209222135877775  0.5635501171463771  0.6510728791899679  1.0000
  O   O53       1.0  0.21642047388095878  0.5710304743657487  0.5462278464959739  1.0000
  O   O54       1.0  0.1976378980600017  0.6634028530817702  0.6169220865514332  1.0000
  O   O55       1.0  0.4440978635352976  0.632142873112798  0.25771150088908706  1.0000
  O   O56       1.0  0.6766745175071873  0.6216051818494107  0.1693822173278932  1.0000
  O   O57       1.0  0.35734528944973926  0.6770260510249885  0.16246651378628477  1.0000
  O   O58       1.0  0.5219403568296171  0.37209526532173237  0.7584816562671081  1.0000
  O   O59       1.0  0.30130992346239077  0.386000181172342  0.6686139533687978  1.0000
  O   O60       1.0  0.6088205736785212  0.3226550417055024  0.6659834566979869  1.0000
  O   O61       1.0  0.45158389304470586  0.5167874520391605  0.4548367835309223  1.0000
  O   O62       1.0  0.5521858221337581  0.4766500114734598  0.948509451519172  1.0000
  O   O63       1.0  0.7031247231628656  0.5242330528797086  0.2591330602606731  1.0000
  O   O64       1.0  0.2923317796507447  0.48869652313249645  0.7522104645953221  1.0000
  O   O65       1.0  0.6724549130594041  0.6363679306648252  0.41907647737933473  1.0000
  O   O66       1.0  0.9072176890002409  0.5444094059825842  0.4128377260262753  1.0000
  O   O67       1.0  0.8534003107872364  0.6190502560228737  0.3272336927980888  1.0000
  O   O68       1.0  0.15414351989597458  0.4357008396870583  0.9339080995512176  1.0000
  O   O69       1.0  0.06125889636052758  0.4198785725691252  0.8271392125089818  1.0000
  O   O70       1.0  0.32146156203553733  0.3537600726732961  0.876003999259133  1.0000
  O   O71       1.0  0.7915167811415953  0.4112884984580204  0.3670514951185808  1.0000
  O   O72       1.0  0.7163883011878197  0.3586787354893701  0.2693610388725745  1.0000
  O   O73       1.0  0.8811291044176242  0.2983638796984849  0.3495161229949559  1.0000
  O   O74       1.0  0.2065420239617453  0.5910691444232157  0.8659833339998074  1.0000
  O   O75       1.0  0.2908733578338314  0.6426738043963524  0.7680659207960759  1.0000
  O   O76       1.0  0.11213794708881145  0.7030433131065122  0.8451761834858189  1.0000
