data_image0
_chemical_formula_structural       La4B10H14C8O28
_chemical_formula_sum              "La4 B10 H14 C8 O28"
_cell_length_a       6.4655191359353354
_cell_length_b       10.993993588601855
_cell_length_c       11.536093107622781
_cell_angle_alpha    61.56317392453949
_cell_angle_beta     89.66706712532428
_cell_angle_gamma    89.2988719428494

_space_group_name_H-M_alt    "P 1"
_space_group_IT_number       1

loop_
  _space_group_symop_operation_xyz
  'x, y, z'

loop_
  _atom_site_type_symbol
  _atom_site_label
  _atom_site_symmetry_multiplicity
  _atom_site_fract_x
  _atom_site_fract_y
  _atom_site_fract_z
  _atom_site_occupancy
  La  La1       1.0  0.824628900752984  0.38387412796271286  0.48557960694845553  1.0000
  La  La2       1.0  0.32469040009735295  0.8694749723737659  0.51438775111167  1.0000
  La  La3       1.0  0.6603556624796669  0.7902099856479835  0.13400716647132774  1.0000
  La  La4       1.0  0.1603750117545674  0.9243556575680146  0.8660655860423814  1.0000
  B   B1        1.0  0.3139306686437848  0.5859174359779757  0.4169539722119069  1.0000
  B   B2        1.0  0.813963935333071  0.002935096148100253  0.5831050723440611  1.0000
  B   B3        1.0  0.20921657950285072  0.7815447662203069  0.19455731445997765  1.0000
  B   B4        1.0  0.7092089485091297  0.9762999216395514  0.8055438009445128  1.0000
  B   B5        1.0  0.9653400583447154  0.6915640605536382  0.3842089838264897  1.0000
  B   B6        1.0  0.46531668657025455  0.07584041946611109  0.615858268875705  1.0000
  B   B7        1.0  0.3623468146860277  0.327087699237083  0.48213615494632484  1.0000
  B   B8        1.0  0.8624069318630988  0.8092036975022266  0.5179512676961266  1.0000
  B   B9        1.0  0.6248575738323012  0.6370136540782098  0.5130863448800015  1.0000
  B   B10       1.0  0.12480826687598781  0.15010495795799278  0.48694449126056577  1.0000
  H   H1        1.0  0.059686575468170106  0.348896156932355  0.19315295436839364  1.0000
  H   H2        1.0  0.5599865382282233  0.5424863744832322  0.8065643486504187  1.0000
  H   H3        1.0  0.25305671132206703  0.4801795439323796  0.1401329285799093  1.0000
  H   H4        1.0  0.7531679581618463  0.6209099445737111  0.8596341295201667  1.0000
  H   H5        1.0  0.09368892376217992  0.46988134399254716  0.02120907425884159  1.0000
  H   H6        1.0  0.5940773680478345  0.49149627418420033  0.9785248617115129  1.0000
  H   H7        1.0  0.7413086160779445  0.24922831994175  0.11323242640369101  1.0000
  H   H8        1.0  0.2414744979486869  0.3627177726206624  0.886768099834157  1.0000
  H   H9        1.0  0.676240406743183  0.19098096418894533  0.2827712463833478  1.0000
  H   H10       1.0  0.17631139469988713  0.47397385999764924  0.7171661685421924  1.0000
  H   H11       1.0  0.47795658599689267  0.2503130810596375  0.15958400437702383  1.0000
  H   H12       1.0  0.9781640702277985  0.4101602850926582  0.8404305672828087  1.0000
  H   H13       1.0  0.802883652716112  0.49941350381020316  0.6717926575231274  1.0000
  H   H14       1.0  0.30276209236604507  0.17118382556162012  0.32815815315706937  1.0000
  C   C1        1.0  0.9487360063611948  0.5576643376345487  0.13173465878293206  1.0000
  C   C2        1.0  0.44864497719578383  0.689570429334978  0.8682145489063514  1.0000
  C   C3        1.0  0.09594183124053053  0.4558127116048354  0.1219725715341653  1.0000
  C   C4        1.0  0.5961578378539231  0.5782126185836562  0.8777932446309862  1.0000
  C   C5        1.0  0.5988532912439055  0.048504746305653226  0.21121190256307185  1.0000
  C   C6        1.0  0.09881631592212163  0.25998148297353657  0.7887730252638363  1.0000
  C   C7        1.0  0.6267551102132672  0.1941195865004488  0.19034458669719356  1.0000
  C   C8        1.0  0.12700072341252883  0.3847384692752983  0.8096064408761093  1.0000
  O   O1        1.0  0.4279231176401482  0.45652582187124563  0.4489559428915157  1.0000
  O   O2        1.0  0.927972137234271  0.905443634550764  0.5512000171880372  1.0000
  O   O3        1.0  0.3499894058262144  0.6790047418772075  0.27407479747340363  1.0000
  O   O4        1.0  0.8500452942645682  0.9533836948536206  0.7259567743895518  1.0000
  O   O5        1.0  0.09105233560760691  0.5642563306238344  0.44092936356422296  1.0000
  O   O6        1.0  0.5910633213555203  0.005160628612252181  0.559192791451835  1.0000
  O   O7        1.0  0.27998947353781745  0.8741617433799432  0.07500226648993194  1.0000
  O   O8        1.0  0.779931557508384  0.9491393736560667  0.925178694439907  1.0000
  O   O9        1.0  0.010973915112522511  0.7802801207788903  0.24198463092018596  1.0000
  O   O10       1.0  0.510968775385365  0.022500079249610425  0.758086627022486  1.0000
  O   O11       1.0  0.5109284919417689  0.22656650508947968  0.5460112441374321  1.0000
  O   O12       1.0  0.010952909842892204  0.7725355901181317  0.45404354812634307  1.0000
  O   O13       1.0  0.7443397730703085  0.6593411157764207  0.39283064138809454  1.0000
  O   O14       1.0  0.2442930556958629  0.05223968843188221  0.6072230437877977  1.0000
  O   O15       1.0  0.6745219763218914  0.7457974069261936  0.5516883474359204  1.0000
  O   O16       1.0  0.1744701379075337  0.2974367058366596  0.44836061254481047  1.0000
  O   O17       1.0  0.6850586145160166  0.49710475259010417  0.6210970896954607  1.0000
  O   O18       1.0  0.18511375984421363  0.11809996085948883  0.37896893167022944  1.0000
  O   O19       1.0  0.404356721602703  0.6474340319311054  0.4934300048184212  1.0000
  O   O20       1.0  0.9042711771981475  0.14089035472910894  0.5065580439287274  1.0000
  O   O21       1.0  0.9521372495896048  0.6838423012983126  0.04214885588655899  1.0000
  O   O22       1.0  0.45211090304157153  0.7261493180713217  0.9578572027069046  1.0000
  O   O23       1.0  0.8213550571910279  0.5180506442770039  0.22878926165101632  1.0000
  O   O24       1.0  0.32106390371047416  0.7468919521505343  0.7712661427360743  1.0000
  O   O25       1.0  0.6934199869955934  0.011873382934545899  0.1371208186873147  1.0000
  O   O26       1.0  0.19296784358127186  0.1491317574203209  0.8630310732430074  1.0000
  O   O27       1.0  0.47823787780462373  0.9678535339245752  0.3044965013059696  1.0000
  O   O28       1.0  0.9784020253128178  0.2727079459567818  0.6953651271980518  1.0000
