data_image0
_chemical_formula_structural       Ag6H36C24N18
_chemical_formula_sum              "Ag6 H36 C24 N18"
_cell_length_a       7.370115721312899
_cell_length_b       11.940752335629478
_cell_length_c       11.940697693821155
_cell_angle_alpha    63.56931749532852
_cell_angle_beta     71.98543533070745
_cell_angle_gamma    71.98553059682003

_space_group_name_H-M_alt    "P 1"
_space_group_IT_number       1

loop_
  _space_group_symop_operation_xyz
  'x, y, z'

loop_
  _atom_site_type_symbol
  _atom_site_label
  _atom_site_symmetry_multiplicity
  _atom_site_fract_x
  _atom_site_fract_y
  _atom_site_fract_z
  _atom_site_occupancy
  Ag  Ag1       1.0  0.8781320751126955  0.8414478103657291  0.9979057089541922  1.0000
  Ag  Ag2       1.0  0.2823707773039879  0.9978175161892509  0.8413733884832197  1.0000
  Ag  Ag3       1.0  0.37813284529953956  0.4979078685762344  0.3414487640521884  1.0000
  Ag  Ag4       1.0  0.7823719591909108  0.34137490583214  0.49781974179288807  1.0000
  Ag  Ag5       1.0  0.9187513153720914  0.08166110330411411  0.0811657402809232  1.0000
  Ag  Ag6       1.0  0.4187479345549649  0.5811628409162424  0.5816663579256911  1.0000
  H   H1        1.0  0.8601945902095448  0.6415763825743638  0.8693974082121444  1.0000
  H   H2        1.0  0.6290602293916406  0.8692948270415853  0.6415748722822129  1.0000
  H   H3        1.0  0.36019619065724834  0.3694000918863126  0.1415731123734574  1.0000
  H   H4        1.0  0.12905807791989318  0.14158194673773045  0.3692896618518731  1.0000
  H   H5        1.0  0.05647062628656137  0.5101905851754084  0.9094609156724259  1.0000
  H   H6        1.0  0.5241338622641721  0.9095311273968391  0.5102075515301648  1.0000
  H   H7        1.0  0.5564738208173238  0.4094639132016554  0.0101892983795295  1.0000
  H   H8        1.0  0.024139904845910058  0.010214684475286602  0.409527670802035  1.0000
  H   H9        1.0  0.012188489245182694  0.5795348007048062  0.7526308602387317  1.0000
  H   H10       1.0  0.655848221368153  0.7526141001808639  0.5794903673772609  1.0000
  H   H11       1.0  0.5121833433905748  0.2526373848244675  0.07952882721517078  1.0000
  H   H12       1.0  0.15585177058289185  0.07949380356453158  0.2526113436347615  1.0000
  H   H13       1.0  0.8627781617894926  0.37015514685830925  0.8563515970286985  1.0000
  H   H14       1.0  0.910261972139196  0.8567658600394097  0.3698098880505967  1.0000
  H   H15       1.0  0.3627755159768143  0.3563486297641206  0.870161266130509  1.0000
  H   H16       1.0  0.41026556625318  0.8698087789892311  0.3567639686172157  1.0000
  H   H17       1.0  0.6949125032179566  0.44142566147838375  0.7507292205009719  1.0000
  H   H18       1.0  0.11224228508064023  0.7510419216879568  0.4412970694886482  1.0000
  H   H19       1.0  0.19490681862060194  0.25072756840592814  0.9414287751074254  1.0000
  H   H20       1.0  0.6122484207001266  0.9413002533686309  0.2510388525085148  1.0000
  H   H21       1.0  0.94867662966697  0.4118122620632506  0.6884181977568957  1.0000
  H   H22       1.0  0.950437155265483  0.6888057140868681  0.41166912169983044  1.0000
  H   H23       1.0  0.44867246383996934  0.18841351855964925  0.9118212376815081  1.0000
  H   H24       1.0  0.4504424086635552  0.9116674655822904  0.18880296816798386  1.0000
  H   H25       1.0  0.9294581548734515  0.9712967517506642  0.6407708895669941  1.0000
  H   H26       1.0  0.45896190585467134  0.6405374948170532  0.9713833630887194  1.0000
  H   H27       1.0  0.42945825332487436  0.1407717009583749  0.4712992251851631  1.0000
  H   H28       1.0  0.958960260582032  0.471383582857939  0.1405355842290419  1.0000
  H   H29       1.0  0.7035618193236317  0.0762222088014682  0.6055125843893733  1.0000
  H   H30       1.0  0.6148807640373304  0.6054045979335856  0.0763314941860855  1.0000
  H   H31       1.0  0.20356254636406135  0.10551193440644381  0.5762221680622444  1.0000
  H   H32       1.0  0.11487670972018565  0.5763312494367907  0.10540290001834052  1.0000
  H   H33       1.0  0.7090006449147168  0.9379633316212048  0.7514040456824418  1.0000
  H   H34       1.0  0.6020659656486625  0.751168487512814  0.9379756703050502  1.0000
  H   H35       1.0  0.2090034684286763  0.25140250368994543  0.43796519829847813  1.0000
  H   H36       1.0  0.10206165728135372  0.43797640314345176  0.2511658359672424  1.0000
  C   C1        1.0  0.14034386944170066  0.6917555442589316  0.7924239950810587  1.0000
  C   C2        1.0  0.3755343042670843  0.7924214064706305  0.6918068947611643  1.0000
  C   C3        1.0  0.640335967985571  0.2924239616562118  0.1917530709353059  1.0000
  C   C4        1.0  0.8755299845708179  0.19180874880360224  0.2924193106710362  1.0000
  C   C5        1.0  0.009862570987280498  0.6012664955088454  0.8332402586832616  1.0000
  C   C6        1.0  0.5558054891333621  0.8332432481832371  0.6012769303082095  1.0000
  C   C7        1.0  0.5098600467469725  0.3332447282471662  0.10126453515251649  1.0000
  C   C8        1.0  0.05580684526701417  0.10128394336188513  0.33323824366208743  1.0000
  C   C9        1.0  0.8335178464624204  0.3740267846546318  0.7699456133221076  1.0000
  C   C10       1.0  0.022002842210604123  0.7702229018665319  0.3738840626069688  1.0000
  C   C11       1.0  0.3335141733311812  0.2699398800259091  0.8740341879987454  1.0000
  C   C12       1.0  0.5220079805213728  0.8738823822333404  0.27022156631007027  1.0000
  C   C13       1.0  0.785144129254256  0.01527635100832477  0.6819758449947599  1.0000
  C   C14       1.0  0.5178745199866623  0.6818398743165164  0.015294283876031002  1.0000
  C   C15       1.0  0.2851443204705362  0.1819753253384563  0.5152782098522549  1.0000
  C   C16       1.0  0.01787335782535149  0.5152913292482211  0.1818386787569537  1.0000
  C   C17       1.0  0.8023367467801422  0.09109128278380044  0.7470843557804798  1.0000
  C   C18       1.0  0.3595067692806636  0.7470507643364214  0.0910387408068374  1.0000
  C   C19       1.0  0.30233891271233654  0.247084306486741  0.5910931094607008  1.0000
  C   C20       1.0  0.8595044058699841  0.5910411367610423  0.24704619055476226  1.0000
  C   C21       1.0  0.8253627417557323  0.245052162492378  0.7859318473751741  1.0000
  C   C22       1.0  0.14343173320258967  0.7860065702464568  0.24501694728680692  1.0000
  C   C23       1.0  0.3253654538140367  0.2859291309274922  0.7450571497661826  1.0000
  C   C24       1.0  0.6434393958318906  0.7450172845777915  0.2860050775300778  1.0000
  N   N1        1.0  0.30225460222089134  0.6978622332174425  0.6976509673374095  1.0000
  N   N2        1.0  0.8022506528262169  0.19765302829153336  0.19786049503778708  1.0000
  N   N3        1.0  0.11491920998857104  0.7771155330537951  0.8425756329779616  1.0000
  N   N4        1.0  0.2655496514877171  0.8422177861482824  0.7775139495603864  1.0000
  N   N5        1.0  0.6149159781890747  0.3425762608139778  0.2771198988311028  1.0000
  N   N6        1.0  0.7655507199149839  0.27751138581048446  0.3422182095330086  1.0000
  N   N7        1.0  0.8054710169240168  0.21767163474097376  0.6917016949319432  1.0000
  N   N8        1.0  0.2849107479351362  0.6916557981464136  0.21762160667196181  1.0000
  N   N9        1.0  0.30546976731752556  0.19170130027793414  0.7176761565912315  1.0000
  N   N10       1.0  0.7849113351324561  0.7176195470663913  0.19165764082868003  1.0000
  N   N11       1.0  0.8189032578005706  0.04247597640687669  0.8687660476142937  1.0000
  N   N12       1.0  0.2700573093606024  0.8688065167728923  0.04246087003500779  1.0000
  N   N13       1.0  0.3189038892661385  0.3687663629435889  0.5424791823148638  1.0000
  N   N14       1.0  0.7700540108913576  0.5424610299535643  0.3688049336138377  1.0000
  N   N15       1.0  0.83419434952777  0.1408591972912134  0.8941996080284441  1.0000
  N   N16       1.0  0.1308113303817464  0.8942992444698631  0.14085336340631474  1.0000
  N   N17       1.0  0.33419944580221983  0.39419617017459524  0.6408643031086996  1.0000
  N   N18       1.0  0.630813499881043  0.6408536618591896  0.39430115563981616  1.0000
