data_image0
_chemical_formula_structural       K4B4H24C24N24O16
_chemical_formula_sum              "K4 B4 H24 C24 N24 O16"
_cell_length_a       6.153900373573057
_cell_length_b       7.702944025035328
_cell_length_c       23.067950267403997
_cell_angle_alpha    90.0023084557353
_cell_angle_beta     90.00013885779013
_cell_angle_gamma    92.86109581561314

_space_group_name_H-M_alt    "P 1"
_space_group_IT_number       1

loop_
  _space_group_symop_operation_xyz
  'x, y, z'

loop_
  _atom_site_type_symbol
  _atom_site_label
  _atom_site_symmetry_multiplicity
  _atom_site_fract_x
  _atom_site_fract_y
  _atom_site_fract_z
  _atom_site_occupancy
  K   K1        1.0  0.8068998452695552  0.7288201624334788  0.4453887197253436  1.0000
  K   K2        1.0  0.1930950495348327  0.7712517733321534  0.9454133946938864  1.0000
  K   K3        1.0  0.19308556689540518  0.2711986792917713  0.5545753756244167  1.0000
  K   K4        1.0  0.8069125725127934  0.22880258416612526  0.05460402202564298  1.0000
  B   B1        1.0  0.2333120553123464  0.7930014524588815  0.37094469204298963  1.0000
  B   B2        1.0  0.7667166117109332  0.7069647972563405  0.8709577592131977  1.0000
  B   B3        1.0  0.7666614118895793  0.20694572315961324  0.6290501809510116  1.0000
  B   B4        1.0  0.2333365536559384  0.2930372476713218  0.12905402174870054  1.0000
  H   H1        1.0  0.361307941367386  0.40123896381664553  0.40384815296835785  1.0000
  H   H2        1.0  0.6386661728580377  0.09874661243144801  0.9038614483505608  1.0000
  H   H3        1.0  0.6385754349525002  0.5987388372893891  0.5961220099823165  1.0000
  H   H4        1.0  0.3613541071662851  0.9012430737036898  0.09613039107571807  1.0000
  H   H5        1.0  0.09374827129505549  0.14275398286952884  0.35404836356767777  1.0000
  H   H6        1.0  0.9062072186906603  0.35719665404974427  0.8540555082305655  1.0000
  H   H7        1.0  0.906177394114522  0.8571714393145059  0.6459261341386335  1.0000
  H   H8        1.0  0.09379354327935371  0.6427926336279131  0.14593373000342774  1.0000
  H   H9        1.0  0.6036779797380446  0.6311490415733302  0.19953375842109003  1.0000
  H   H10       1.0  0.3963292145142177  0.8688711689889249  0.6995527988616032  1.0000
  H   H11       1.0  0.3963292082143681  0.3688910224018969  0.8004637170317253  1.0000
  H   H12       1.0  0.6037076447076046  0.13112924455769104  0.3004689524765708  1.0000
  H   H13       1.0  0.24823806618501007  0.7937622542153735  0.2460026557441067  1.0000
  H   H14       1.0  0.7518034517885893  0.7062490107279304  0.7460137015776807  1.0000
  H   H15       1.0  0.7517632499757525  0.20624522513754334  0.7539974202660031  1.0000
  H   H16       1.0  0.24821150966861436  0.29372628250624183  0.25399981271789324  1.0000
  H   H17       1.0  0.05818075103646691  0.8125657827471572  0.3486804301473114  1.0000
  H   H18       1.0  0.9418365172411357  0.6873881912140406  0.8486940073730194  1.0000
  H   H19       1.0  0.9417760939865404  0.18736936621645134  0.6513127085411766  1.0000
  H   H20       1.0  0.058225257343593705  0.3126296125222226  0.1513138723435077  1.0000
  H   H21       1.0  0.22670880018395684  0.6981763246493033  0.4130117890995918  1.0000
  H   H22       1.0  0.7733055936427603  0.8018058889424609  0.9130234082404413  1.0000
  H   H23       1.0  0.7732393165707449  0.30179240955153835  0.5869869854480995  1.0000
  H   H24       1.0  0.22673959787952208  0.1982011875666387  0.08698750570768957  1.0000
  C   C1        1.0  0.5404051635245181  0.16569733054067376  0.42965843875748516  1.0000
  C   C2        1.0  0.45959951056133963  0.3343165524586028  0.9296829721144348  1.0000
  C   C3        1.0  0.4595068952753892  0.8343148194582001  0.5703125918784693  1.0000
  C   C4        1.0  0.5404424677803235  0.6656917570346934  0.07032620781232878  1.0000
  C   C5        1.0  0.37457950997125516  0.2616321531530588  0.40490429894907704  1.0000
  C   C6        1.0  0.6254077256093424  0.23836539515831842  0.9049190578439192  1.0000
  C   C7        1.0  0.6253430221459695  0.7383503430395493  0.5950654309106865  1.0000
  C   C8        1.0  0.37462580440467963  0.761632353026265  0.09507538281243907  1.0000
  C   C9        1.0  0.2406207746542677  0.1333430685956216  0.3795403505982973  1.0000
  C   C10       1.0  0.7593619784709559  0.3666319068704027  0.8795528808755929  1.0000
  C   C11       1.0  0.7592748197268194  0.8666090101496594  0.6204354476705303  1.0000
  C   C12       1.0  0.24068416712574253  0.6333531129275017  0.12044069273411398  1.0000
  C   C13       1.0  0.6645581449867705  0.5911506352746868  0.2941963221417936  1.0000
  C   C14       1.0  0.33547448466193697  0.9088339479276473  0.794214815205869  1.0000
  C   C15       1.0  0.3354294851566095  0.40883448859788984  0.7057976844432686  1.0000
  C   C16       1.0  0.664594072604018  0.09119308448602231  0.20580303522886814  1.0000
  C   C17       1.0  0.5577353757948059  0.648548943661112  0.2443294758249905  1.0000
  C   C18       1.0  0.44228657942328914  0.8514476107319311  0.7443450150807676  1.0000
  C   C19       1.0  0.44228002413110795  0.3514406428875461  0.7556666985749344  1.0000
  C   C20       1.0  0.557732666157797  0.14856153336081956  0.255672834688994  1.0000
  C   C21       1.0  0.3799899996230068  0.7287538194744415  0.2667703854897353  1.0000
  C   C22       1.0  0.6200449788966225  0.7712563452634812  0.7667871572296504  1.0000
  C   C23       1.0  0.6199979476730276  0.2712416996186207  0.7332257887355806  1.0000
  C   C24       1.0  0.37998232049103814  0.22875036602081883  0.2332263575639287  1.0000
  N   N1        1.0  0.3262967939934073  0.9759532417440371  0.3901458472636107  1.0000
  N   N2        1.0  0.6737245507845843  0.5240274498430324  0.8901640044223809  1.0000
  N   N3        1.0  0.673660488712635  0.02404944281941111  0.6098381887204238  1.0000
  N   N4        1.0  0.3263494819949031  0.47596593091169853  0.10984560911166599  1.0000
  N   N5        1.0  0.5107981875810026  0.993174555052619  0.4208461597007656  1.0000
  N   N6        1.0  0.48923971715583287  0.5068394299299542  0.9208675010440854  1.0000
  N   N7        1.0  0.4891509228502641  0.0068266640894734006  0.5791374426896211  1.0000
  N   N8        1.0  0.510841257618594  0.4931683770772609  0.07914688125091367  1.0000
  N   N9        1.0  0.7253888430461329  0.23012708986697566  0.46138586907827056  1.0000
  N   N10       1.0  0.2746022791520062  0.26990000925342633  0.9613981097154319  1.0000
  N   N11       1.0  0.2745060371236434  0.7699080841574358  0.538593398221998  1.0000
  N   N12       1.0  0.7254495381788003  0.7301110982415937  0.038607168817527786  1.0000
  N   N13       1.0  0.38874303142329575  0.7167781615976383  0.3259398568085388  1.0000
  N   N14       1.0  0.6112867132031495  0.7831964811551732  0.8259537304458389  1.0000
  N   N15       1.0  0.6112406315454422  0.28318350664654457  0.6740537159501441  1.0000
  N   N16       1.0  0.388787397809267  0.21679949845500354  0.17406542016244228  1.0000
  N   N17       1.0  0.5628354717341465  0.6323487381704853  0.3435158550262897  1.0000
  N   N18       1.0  0.4371959802614711  0.8676041442598291  0.8435343016318267  1.0000
  N   N19       1.0  0.437146207469283  0.3676012022679913  0.6564790180758209  1.0000
  N   N20       1.0  0.5628705930357468  0.13241116035783312  0.15648658315387814  1.0000
  N   N21       1.0  0.8560911940251258  0.49448597872338257  0.2965078585823732  1.0000
  N   N22       1.0  0.1439458317287503  0.005509555424431801  0.7965255392106483  1.0000
  N   N23       1.0  0.143933805817646  0.5054986094692425  0.7034930843633873  1.0000
  N   N24       1.0  0.8560968185090516  0.9945208440103104  0.20350574959038426  1.0000
  O   O1        1.0  0.870285047032489  0.1285783483993939  0.4739509784016675  1.0000
  O   O2        1.0  0.1297270470054031  0.37148703889187124  0.973981312608643  1.0000
  O   O3        1.0  0.1296622812726227  0.8715241242825229  0.5260092161169394  1.0000
  O   O4        1.0  0.8703380992599961  0.6285347294740903  0.026030035202204288  1.0000
  O   O5        1.0  0.7340059097702748  0.38670412668265197  0.47581221585977557  1.0000
  O   O6        1.0  0.2658957831081281  0.11332657153268144  0.9758005047611673  1.0000
  O   O7        1.0  0.265775785351444  0.613350813025491  0.5241878587534784  1.0000
  O   O8        1.0  0.7341334223204682  0.8866892686776283  0.02419783759586379  1.0000
  O   O9        1.0  0.9159038588598493  0.4362747408127207  0.3441530071771125  1.0000
  O   O10       1.0  0.08410330298409009  0.0636949731668253  0.8441701741493756  1.0000
  O   O11       1.0  0.08405945197399231  0.5637124838422309  0.6558470682408809  1.0000
  O   O12       1.0  0.9159702906147159  0.9362841143073626  0.15586284830675365  1.0000
  O   O13       1.0  0.9533736228645964  0.4715801111077127  0.2498853260429995  1.0000
  O   O14       1.0  0.04671718716792841  0.02843395627842681  0.7499000822375163  1.0000
  O   O15       1.0  0.04667656768198471  0.5284309631958592  0.7501221199843187  1.0000
  O   O16       1.0  0.9533370859702119  0.9716044720288581  0.2501385762992853  1.0000
