data_image0
_chemical_formula_structural       Cd6H60C84N12O30
_chemical_formula_sum              "Cd6 H60 C84 N12 O30"
_cell_length_a       11.063518124492406
_cell_length_b       15.905342199651956
_cell_length_c       15.909062088063836
_cell_angle_alpha    114.79801328466748
_cell_angle_beta     103.42471402701018
_cell_angle_gamma    103.41291083402467

_space_group_name_H-M_alt    "P 1"
_space_group_IT_number       1

loop_
  _space_group_symop_operation_xyz
  'x, y, z'

loop_
  _atom_site_type_symbol
  _atom_site_label
  _atom_site_symmetry_multiplicity
  _atom_site_fract_x
  _atom_site_fract_y
  _atom_site_fract_z
  _atom_site_occupancy
  Cd  Cd1       1.0  0.8521049838028462  0.626009243483317  0.3849213288573311  1.0000
  Cd  Cd2       1.0  0.4672256251677141  0.615002303166378  0.24091143332584875  1.0000
  Cd  Cd3       1.0  0.22631101465907488  0.7589159123803811  0.3739423388502915  1.0000
  Cd  Cd4       1.0  0.14788960617001126  0.37398333174734705  0.6150751467248912  1.0000
  Cd  Cd5       1.0  0.5327747408464987  0.3849925117992258  0.7590787449328857  1.0000
  Cd  Cd6       1.0  0.7736867381145771  0.2410774096605053  0.6260537048317332  1.0000
  H   H1        1.0  0.04374886629275204  0.7764615599185661  0.7340113705403655  1.0000
  H   H2        1.0  0.30966602664224757  0.2657322190322872  0.04231420706157248  1.0000
  H   H3        1.0  0.26692534761518516  0.9574927158573985  0.2231587168848178  1.0000
  H   H4        1.0  0.9562500114105462  0.22353773353916043  0.2659905004561622  1.0000
  H   H5        1.0  0.690338245914667  0.7342685679541318  0.957687906480615  1.0000
  H   H6        1.0  0.7330753887491567  0.04250657787149239  0.7768434552881659  1.0000
  H   H7        1.0  0.19026051792641857  0.8124031046836749  0.9010786004616096  1.0000
  H   H8        1.0  0.28913156917690946  0.09865233680150708  0.9111955197322815  1.0000
  H   H9        1.0  0.37756419760845716  0.08857217832779443  0.18720573658929857  1.0000
  H   H10       1.0  0.8097394709456156  0.18759469617252478  0.09892345363969919  1.0000
  H   H11       1.0  0.7108671288143428  0.9013484493275854  0.08880443334627597  1.0000
  H   H12       1.0  0.6224356094253666  0.9114271152655178  0.8127962849954571  1.0000
  H   H13       1.0  0.35780074641105847  0.7322423447689915  0.9096183612624034  1.0000
  H   H14       1.0  0.44810323566327537  0.0901836664922371  0.8225165769249756  1.0000
  H   H15       1.0  0.6253689125091312  0.17729109751884656  0.2674402131806417  1.0000
  H   H16       1.0  0.6422001760438434  0.267755456091308  0.09038007262428498  1.0000
  H   H17       1.0  0.5518906262479958  0.9098148797087832  0.1774803970581759  1.0000
  H   H18       1.0  0.37463071481263904  0.8227096887458315  0.7325598904861366  1.0000
  H   H19       1.0  0.37841644115629697  0.6172603836113739  0.7534382821596496  1.0000
  H   H20       1.0  0.6249276994879908  0.24645151460242684  0.8637394242917935  1.0000
  H   H21       1.0  0.7609584790977236  0.13617282590987403  0.3825400830693937  1.0000
  H   H22       1.0  0.6215829974467937  0.3827381633812336  0.24655896688570786  1.0000
  H   H23       1.0  0.3750678309481827  0.7535447926415202  0.13625625318067594  1.0000
  H   H24       1.0  0.239043007593807  0.8638279606040554  0.6174596933066924  1.0000
  H   H25       1.0  0.175737515904956  0.48736350535389067  0.3839902121659834  1.0000
  H   H26       1.0  0.7914360002444172  0.6162491001684458  0.1034203690768366  1.0000
  H   H27       1.0  0.6877250457087029  0.8965399144980779  0.5125925055059284  1.0000
  H   H28       1.0  0.82426006950012  0.5126387734205623  0.6160108147420686  1.0000
  H   H29       1.0  0.2085606482409544  0.3837494464831578  0.8965783136052751  1.0000
  H   H30       1.0  0.31227514514097976  0.10346385744214359  0.48740956911738925  1.0000
  H   H31       1.0  0.23440193910517598  0.395566104343061  0.23740200370849615  1.0000
  H   H32       1.0  0.9970941923233241  0.7628140325955854  0.1584603876083151  1.0000
  H   H33       1.0  0.8383361054477517  0.8415932152787136  0.6041637995183464  1.0000
  H   H34       1.0  0.7655962022386263  0.6044354281196719  0.762598800518383  1.0000
  H   H35       1.0  0.0029041301499716727  0.23718600715195487  0.8415410776022514  1.0000
  H   H36       1.0  0.1616627826796275  0.15840981007862354  0.3958377512473419  1.0000
  H   H37       1.0  0.3791216570848093  0.2993192095463755  0.2488411004927116  1.0000
  H   H38       1.0  0.13064712648598945  0.7512736133441039  0.050998280305066084  1.0000
  H   H39       1.0  0.07940844504469162  0.9492214353401636  0.7003135302473282  1.0000
  H   H40       1.0  0.6208770423238904  0.7006815765388908  0.7511575956515558  1.0000
  H   H41       1.0  0.8693530539396193  0.24872642669651404  0.9490041145490906  1.0000
  H   H42       1.0  0.9205913731219298  0.05078159013083901  0.29968754263943964  1.0000
  H   H43       1.0  0.46537949826456787  0.29476221260548396  0.4053677059234034  1.0000
  H   H44       1.0  0.06027623503301527  0.5946813146944052  0.8898916717753877  1.0000
  H   H45       1.0  0.1702511684554366  0.11039067684348682  0.704990819268474  1.0000
  H   H46       1.0  0.5346182703961729  0.70523857338803  0.5946320965669187  1.0000
  H   H47       1.0  0.939726178154139  0.40531947204276264  0.11011076905748496  1.0000
  H   H48       1.0  0.8297501349804296  0.8896116024513888  0.29501018152533487  1.0000
  H   H49       1.0  0.9047407254899297  0.5437212962914728  0.21420717594864416  1.0000
  H   H50       1.0  0.690523700175831  0.7859327930673885  0.3296309255814976  1.0000
  H   H51       1.0  0.3610043913764613  0.6704727719864608  0.45630181166753664  1.0000
  H   H52       1.0  0.09525983187108268  0.45627949008687824  0.7857924498392209  1.0000
  H   H53       1.0  0.30947722986825005  0.21406873978017418  0.67036970194291  1.0000
  H   H54       1.0  0.6389954192009738  0.3295265214972787  0.5436970675815118  1.0000
  H   H55       1.0  0.746241093414163  0.5207210975108724  0.17552850191832906  1.0000
  H   H56       1.0  0.5706701682772035  0.8245694134569491  0.345270839314644  1.0000
  H   H57       1.0  0.22555007506992555  0.6548887917183708  0.4793330124549655  1.0000
  H   H58       1.0  0.25375853390760744  0.47927968875380605  0.8244716017484495  1.0000
  H   H59       1.0  0.4293283381604809  0.17542913348773234  0.6547287730110584  1.0000
  H   H60       1.0  0.7744497333813385  0.3451105018311154  0.5206677521955072  1.0000
  C   C1        1.0  0.042539535668368  0.6629685145169263  0.5553418632732914  1.0000
  C   C2        1.0  0.4872708622909841  0.44454398659816263  0.10746990813102299  1.0000
  C   C3        1.0  0.3793725729655081  0.8923958706012984  0.3368268065251885  1.0000
  C   C4        1.0  0.9574599098151849  0.33703376448486466  0.4446582078769339  1.0000
  C   C5        1.0  0.5127328467380182  0.5554538147127133  0.8925302344546182  1.0000
  C   C6        1.0  0.6206309535165532  0.10760342346859632  0.6631739320110414  1.0000
  C   C7        1.0  0.13140047550573541  0.6808669362406407  0.65236816007252  1.0000
  C   C8        1.0  0.4789617494215507  0.3474290511562401  0.02835554281397631  1.0000
  C   C9        1.0  0.45021455226434176  0.9715418069401737  0.31890290858279263  1.0000
  C   C10       1.0  0.8685995259165439  0.3191345964494304  0.34763168839651837  1.0000
  C   C11       1.0  0.5210391730333441  0.6525687497040522  0.9716428910727118  1.0000
  C   C12       1.0  0.5497880441784774  0.0284574870160554  0.6810983078323503  1.0000
  C   C13       1.0  0.11916126114172688  0.7436248429116502  0.7405420642066431  1.0000
  C   C14       1.0  0.3785788074846579  0.25921115487420826  0.0029655825879331297  1.0000
  C   C15       1.0  0.3752267291940399  0.9968702476319323  0.25603515276605293  1.0000
  C   C16       1.0  0.8808391032482704  0.2563737043261085  0.2594584777626494  1.0000
  C   C17       1.0  0.6214254657809803  0.7407896320902979  0.9970359024871059  1.0000
  C   C18       1.0  0.6247749386269845  0.0031290461668050003  0.7439652845937275  1.0000
  C   C19       1.0  0.20011784114403502  0.7626475369285333  0.832907870835392  1.0000
  C   C20       1.0  0.36718137868584927  0.16685188180142066  0.9296345757471371  1.0000
  C   C21       1.0  0.4371644874400075  0.07016455964480882  0.23697937366379312  1.0000
  C   C22       1.0  0.7998840099326544  0.23735026408925824  0.16709134210665874  1.0000
  C   C23       1.0  0.6328188031572071  0.8331481581953643  0.07036656217274395  1.0000
  C   C24       1.0  0.5628343916807452  0.9298347337690914  0.7630212403984518  1.0000
  C   C25       1.0  0.2937599817446923  0.7174704006555359  0.8377728283346998  1.0000
  C   C26       1.0  0.4559533810017982  0.16203050054567575  0.8796062832209586  1.0000
  C   C27       1.0  0.5760436818336176  0.1202312671573083  0.2821799616615692  1.0000
  C   C28       1.0  0.7062418693319972  0.2825274003622554  0.1622263846073509  1.0000
  C   C29       1.0  0.5440430773474533  0.8379658068776763  0.12039080177401469  1.0000
  C   C30       1.0  0.4239563188799451  0.8797702655546759  0.7178205152746102  1.0000
  C   C31       1.0  0.3052094313025081  0.6525479158506259  0.7507419686231886  1.0000
  C   C32       1.0  0.5544365086153534  0.24911426147488666  0.9017159519880382  1.0000
  C   C33       1.0  0.6524290086825317  0.09817150317633862  0.34717554741074963  1.0000
  C   C34       1.0  0.6947903806923748  0.34745137758928013  0.24925565369157712  1.0000
  C   C35       1.0  0.44556459709520624  0.7508820466044739  0.09828125748092023  1.0000
  C   C36       1.0  0.34757303253027777  0.9018285370697046  0.6528252632184393  1.0000
  C   C37       1.0  0.22454400853941783  0.6339066426003369  0.6577710360545694  1.0000
  C   C38       1.0  0.5666803588690925  0.34207297957524235  0.9760225056401239  1.0000
  C   C39       1.0  0.5903401617685802  0.023905919171042504  0.36586132761465257  1.0000
  C   C40       1.0  0.7754556201998001  0.36609414362051507  0.342227810677926  1.0000
  C   C41       1.0  0.4333214914988731  0.6579248214644696  0.02397733576906804  1.0000
  C   C42       1.0  0.4096611340780997  0.9760926281365628  0.6341374795414368  1.0000
  C   C43       1.0  0.28924979714002325  0.4436416827165247  0.47604107774675  1.0000
  C   C44       1.0  0.8130820541285999  0.5241393298165918  0.9677684979783976  1.0000
  C   C45       1.0  0.8450651348922095  0.03233166822967351  0.5563129946387593  1.0000
  C   C46       1.0  0.7107483449125028  0.5563598497242951  0.5239590980129805  1.0000
  C   C47       1.0  0.1869177557401116  0.4758599636890608  0.032231009737785116  1.0000
  C   C48       1.0  0.1549356133136471  0.967671357355002  0.4436876003690885  1.0000
  C   C49       1.0  0.2405456802978776  0.44583955543397014  0.3876615667100368  1.0000
  C   C50       1.0  0.8527104505843326  0.6125353984989274  0.058319787744793065  1.0000
  C   C51       1.0  0.7941151764079278  0.9417026843285897  0.5540377661511331  1.0000
  C   C52       1.0  0.7594524624633722  0.5541619769849292  0.6123379805825524  1.0000
  C   C53       1.0  0.14728805656207558  0.38746314842384066  0.9416791961137676  1.0000
  C   C54       1.0  0.20588631858150563  0.0583018341506971  0.4459635753955311  1.0000
  C   C55       1.0  0.27153348790540127  0.39328530324898736  0.305898221520792  1.0000
  C   C56       1.0  0.965686708694058  0.6943027279252975  0.08766784185336016  1.0000
  C   C57       1.0  0.8777243911317855  0.9123879149201672  0.6064675653664865  1.0000
  C   C58       1.0  0.7284646534384009  0.6067162292137381  0.6941025827060799  1.0000
  C   C59       1.0  0.03431216971797108  0.3056965655105158  0.9123334006760262  1.0000
  C   C60       1.0  0.12227449416069901  0.0876151105248297  0.3935364992677607  1.0000
  C   C61       1.0  0.3527837888823981  0.3389774858110711  0.3122785327018818  1.0000
  C   C62       1.0  0.04074511457110221  0.6878572711388315  0.02714877368214273  1.0000
  C   C63       1.0  0.013346772921238469  0.973042012666561  0.6607293593294161  1.0000
  C   C64       1.0  0.6472121204085824  0.6610232999331914  0.6877215970791326  1.0000
  C   C65       1.0  0.9592546924627213  0.3121420224544805  0.9728532479026127  1.0000
  C   C66       1.0  0.9866521144974173  0.026961012712696707  0.3392728199034139  1.0000
  C   C67       1.0  0.4009889792680355  0.3362398802559882  0.3998362600779118  1.0000
  C   C68       1.0  0.0013900492016035526  0.6002822700638931  0.936860728243822  1.0000
  C   C69       1.0  0.06433567006625651  0.0633732142540069  0.6635354292906117  1.0000
  C   C70       1.0  0.5990076782239628  0.6637623983390527  0.6001633593076363  1.0000
  C   C71       1.0  0.9986119905937656  0.3997177702259762  0.06314133931964956  1.0000
  C   C72       1.0  0.9356667528362552  0.9366313044046921  0.3364673197785566  1.0000
  C   C73       1.0  0.36866820407614403  0.3868377073397867  0.48241879975051216  1.0000
  C   C74       1.0  0.8862772338744876  0.5176986447000759  0.9047051594178017  1.0000
  C   C75       1.0  0.9813730372788001  0.09545413086394211  0.6130453580143894  1.0000
  C   C76       1.0  0.631331241407409  0.6131645716620043  0.5175812713997132  1.0000
  C   C77       1.0  0.11372350390729484  0.48230064898498887  0.09529575582089224  1.0000
  C   C78       1.0  0.018627338243994936  0.9045481482515144  0.3869542352569156  1.0000
  C   C79       1.0  0.42435351350801653  0.38121280169505684  0.574228043122787  1.0000
  C   C80       1.0  0.8501442805431979  0.42587325209171933  0.807250464934697  1.0000
  C   C81       1.0  0.04279282703086549  0.192940518688367  0.6187666721551395  1.0000
  C   C82       1.0  0.57564295172169  0.6187872377374858  0.42577186397705447  1.0000
  C   C83       1.0  0.1498572054396092  0.5741275344441235  0.19274993990853065  1.0000
  C   C84       1.0  0.9572081037219391  0.8070610141372826  0.38123332690212663  1.0000
  N   N1        1.0  0.2498018174496011  0.578260682054278  0.5720799584696223  1.0000
  N   N2        1.0  0.6776810100437914  0.42781981948141373  0.006137769212507721  1.0000
  N   N3        1.0  0.6712241480003768  0.9938454410901372  0.42154324286950395  1.0000
  N   N4        1.0  0.7501959519198635  0.42174010391732253  0.42791921555355833  1.0000
  N   N5        1.0  0.32232102499728643  0.5721764887335254  0.9938595908446788  1.0000
  N   N6        1.0  0.32877789533860385  0.0061545990901593  0.5784556823582607  1.0000
  N   N7        1.0  0.2550232024939092  0.4955715409946676  0.5588171415260419  1.0000
  N   N8        1.0  0.6959924521700457  0.44131299805496127  0.936819496230527  1.0000
  N   N9        1.0  0.7589578026108514  0.06324037684969142  0.5043916152129952  1.0000
  N   N10       1.0  0.7449745668755554  0.504429244976933  0.4411820324971458  1.0000
  N   N11       1.0  0.3040079129286753  0.5586855491608845  0.06318041727162439  1.0000
  N   N12       1.0  0.2410427547501613  0.9367604095286525  0.4956080105748698  1.0000
  O   O1        1.0  0.9625435422018995  0.7096143514874811  0.5576004415490703  1.0000
  O   O2        1.0  0.4051184457439022  0.44236727792407754  0.15192311605308373  1.0000
  O   O3        1.0  0.2527422273238359  0.8477853855709158  0.2900917489582327  1.0000
  O   O4        1.0  0.037460368804751495  0.2903894209074238  0.44239972155858714  1.0000
  O   O5        1.0  0.5948852639938238  0.5576305233648853  0.8480763980654161  1.0000
  O   O6        1.0  0.7472618558056753  0.15221316216535286  0.7099081384296753  1.0000
  O   O7        1.0  0.047837913005046924  0.6016608344593734  0.4738334628554525  1.0000
  O   O8        1.0  0.5741314919878847  0.5260334092863843  0.12760430451775312  1.0000
  O   O9        1.0  0.4461463752602127  0.8723931559823868  0.39827819021380867  1.0000
  O   O10       1.0  0.9521581781241508  0.39833845854777655  0.5261666994421148  1.0000
  O   O11       1.0  0.4258712884193231  0.4739643918669928  0.8723950590125258  1.0000
  O   O12       1.0  0.5538577064518577  0.12760539179770092  0.6017229541083822  1.0000
  O   O13       1.0  0.3656493749240752  0.39396691136627027  0.6369356407521992  1.0000
  O   O14       1.0  0.7286828349329824  0.36306061663911743  0.7572591434440739  1.0000
  O   O15       1.0  0.9713805826342892  0.24292858239310539  0.6059370204758994  1.0000
  O   O16       1.0  0.6343483930279419  0.6060338746491638  0.36306479020527155  1.0000
  O   O17       1.0  0.27132013631907625  0.6369394237205909  0.24274118930620153  1.0000
  O   O18       1.0  0.028619047522376147  0.7570722037839203  0.3940605693223135  1.0000
  O   O19       1.0  0.5305395803561197  0.3632591225238926  0.5906530112078272  1.0000
  O   O20       1.0  0.9398863807195711  0.4095545417205174  0.7728562451355503  1.0000
  O   O21       1.0  0.1669918131211432  0.22731527216453884  0.636884600971392  1.0000
  O   O22       1.0  0.46945651219052575  0.6367401704394313  0.4093458941554645  1.0000
  O   O23       1.0  0.06011380324965649  0.5904454982105208  0.22714300738289955  1.0000
  O   O24       1.0  0.833008932958549  0.7726877534858827  0.3631178794378868  1.0000
  O   O25       1.0  0.8209768354050339  0.5245481318643499  0.22684147342873465  1.0000
  O   O26       1.0  0.5940912420724445  0.7732513106421097  0.2978226546389991  1.0000
  O   O27       1.0  0.2965138014392893  0.7023662573087394  0.47554301762369294  1.0000
  O   O28       1.0  0.1790229751724013  0.4754511616193895  0.7731574058203137  1.0000
  O   O29       1.0  0.40590745591880767  0.226749475486983  0.7021772984395513  1.0000
  O   O30       1.0  0.7034856350376374  0.29763228974960754  0.5244561168230889  1.0000
