data_image0
_chemical_formula_structural       Zn2H28C24N8O8F2
_chemical_formula_sum              "Zn2 H28 C24 N8 O8 F2"
_cell_length_a       9.709283706977395
_cell_length_b       10.807882409540333
_cell_length_c       11.003757975068789
_cell_angle_alpha    84.82709120141814
_cell_angle_beta     85.11712487089271
_cell_angle_gamma    77.48648111539676

_space_group_name_H-M_alt    "P 1"
_space_group_IT_number       1

loop_
  _space_group_symop_operation_xyz
  'x, y, z'

loop_
  _atom_site_type_symbol
  _atom_site_label
  _atom_site_symmetry_multiplicity
  _atom_site_fract_x
  _atom_site_fract_y
  _atom_site_fract_z
  _atom_site_occupancy
  Zn  Zn1       1.0  0.6458995130311536  0.5002434025292289  0.48902283925517753  1.0000
  Zn  Zn2       1.0  0.3535887175630918  0.4942142135679005  0.5229784178463605  1.0000
  H   H1        1.0  0.38969070511712545  0.13344247110020294  0.47251774786916206  1.0000
  H   H2        1.0  0.5883714948310226  0.8622811851295327  0.49142372399300177  1.0000
  H   H3        1.0  0.3856508941167788  0.6807665332496171  0.8791320215811069  1.0000
  H   H4        1.0  0.6562873888288366  0.31819724633069063  0.1234076218966749  1.0000
  H   H5        1.0  0.7363362076986917  0.9467864331524681  0.5333934620589319  1.0000
  H   H6        1.0  0.8912597931984366  0.9975962030745509  0.6696427156192686  1.0000
  H   H7        1.0  0.717845855179597  0.016944132571865105  0.7447846520219557  1.0000
  H   H8        1.0  0.7808581479578365  0.15197286547036984  0.6769683257852679  1.0000
  H   H9        1.0  0.24832199532738028  0.0439170796436272  0.4175288796370041  1.0000
  H   H10       1.0  0.023145399747569698  0.9933770681792498  0.4783828848071395  1.0000
  H   H11       1.0  0.12439282269644981  0.981845743029382  0.6090278176770738  1.0000
  H   H12       1.0  0.1137074993388865  0.8414208690443559  0.539257736170704  1.0000
  H   H13       1.0  0.8178970886155241  0.41188453382465434  0.29610436913521454  1.0000
  H   H14       1.0  0.9270570454807012  0.22411364186424274  0.21291192043110396  1.0000
  H   H15       1.0  0.9319586238786284  0.17926711386579092  0.37253437946423423  1.0000
  H   H16       1.0  0.08548075092490139  0.2155134366934135  0.2850662263787243  1.0000
  H   H17       1.0  0.9703288913596496  0.6986247366565052  0.7109166941329336  1.0000
  H   H18       1.0  0.04402602117133368  0.5001973113731283  0.8485539249791358  1.0000
  H   H19       1.0  0.13425152100744941  0.6259847353469398  0.8614633064734109  1.0000
  H   H20       1.0  0.2187609053451567  0.4971110717597682  0.7770365471793781  1.0000
  H   H21       1.0  0.33884836200146407  0.7859810795031308  0.0568754251316577  1.0000
  H   H22       1.0  0.12965043601062115  0.6962938005794826  0.1112976261683869  1.0000
  H   H23       1.0  0.16857031045221757  0.7863929255923169  0.22892621348648132  1.0000
  H   H24       1.0  0.21770497149424264  0.6180974747457313  0.24232757370961622  1.0000
  H   H25       1.0  0.7177856964730224  0.21831621853048944  0.9439984298768921  1.0000
  H   H26       1.0  0.9079218166061694  0.3393632169756486  0.9247770391504275  1.0000
  H   H27       1.0  0.8427754905205943  0.3998107600975376  0.7786813179483402  1.0000
  H   H28       1.0  0.9155453554574037  0.2347590327925461  0.8059673230005089  1.0000
  C   C1        1.0  0.5381809826550776  0.5101587585877071  0.7364326053419958  1.0000
  C   C2        1.0  0.506384701703965  0.48776807861574417  0.2662411044977659  1.0000
  C   C3        1.0  0.4003634098568013  0.7377445588139864  0.4751523892331023  1.0000
  C   C4        1.0  0.5695585762322535  0.25239991218105473  0.5301751607220028  1.0000
  C   C5        1.0  0.09458142804695761  0.4111021387265268  0.455820459689754  1.0000
  C   C6        1.0  0.8985576688258091  0.5940039310007776  0.543239454852376  1.0000
  C   C7        1.0  0.9587379812526321  0.43376156368700686  0.41025183444848073  1.0000
  C   C8        1.0  0.030248596674574833  0.565832661621265  0.5940611762610786  1.0000
  C   C9        1.0  0.3761383047350293  0.8795054377189047  0.4650321495264436  1.0000
  C   C10       1.0  0.5943124322694899  0.11132517943500632  0.5254727874496794  1.0000
  C   C11       1.0  0.48965149885696496  0.9318171588658046  0.4810532714694916  1.0000
  C   C12       1.0  0.48566697836650974  0.0626558670421602  0.4903708976135591  1.0000
  C   C13       1.0  0.44659521803300356  0.6016804556611604  0.9339754447149105  1.0000
  C   C14       1.0  0.5955640354251557  0.3977967244022125  0.06885505089136501  1.0000
  C   C15       1.0  0.42883664623499834  0.6012170023117916  0.06183291096389349  1.0000
  C   C16       1.0  0.6160809144058348  0.4000669297235504  0.9412891764616378  1.0000
  C   C17       1.0  0.5047505659004514  0.4947946007349416  0.1297944536280227  1.0000
  C   C18       1.0  0.5377387844042474  0.5046560346541256  0.8730230770754163  1.0000
  C   C19       1.0  0.7820328324774123  0.05186871844699681  0.6666594418080294  1.0000
  C   C20       1.0  0.11930849993231614  0.9414338297953934  0.5209204988091756  1.0000
  C   C21       1.0  0.970037214638829  0.2407509517163078  0.29752929904475434  1.0000
  C   C22       1.0  0.11588940130774718  0.5574237471463733  0.8003534177849899  1.0000
  C   C23       1.0  0.2076349297754803  0.7018193444639778  0.1774388814832761  1.0000
  C   C24       1.0  0.8518895226952167  0.3192394766217816  0.8475511773813624  1.0000
  N   N1        1.0  0.8606287879235881  0.5287063660013445  0.4612188520018635  1.0000
  N   N2        1.0  0.1304581824090221  0.4738851631312926  0.5419114673066474  1.0000
  N   N3        1.0  0.7281702850611467  0.0396398098948296  0.5487890823731263  1.0000
  N   N4        1.0  0.24309389816193772  0.9511909133456556  0.43770420721932635  1.0000
  N   N5        1.0  0.9201523622366351  0.3749240064703868  0.318573931644302  1.0000
  N   N6        1.0  0.05530078015876681  0.6285957173853306  0.6904207635450917  1.0000
  N   N7        1.0  0.3474861911981861  0.7085781704855734  0.118004277711961  1.0000
  N   N8        1.0  0.7095552257793543  0.2975195912404303  0.885003312076016  1.0000
  O   O1        1.0  0.6559334021277863  0.5007817935609822  0.6738067048869426  1.0000
  O   O2        1.0  0.3935783961939238  0.4844120974710294  0.33165788252100015  1.0000
  O   O3        1.0  0.4179832011932448  0.5251424094517603  0.692696402207311  1.0000
  O   O4        1.0  0.6275273696301156  0.4838695855155067  0.3064703305266647  1.0000
  O   O5        1.0  0.5290960347380465  0.6781843297798673  0.4737070075500753  1.0000
  O   O6        1.0  0.44100236065465026  0.309871323123474  0.5503321044892787  1.0000
  O   O7        1.0  0.2938655798921559  0.6845413055757633  0.4864773556243024  1.0000
  O   O8        1.0  0.6759568378758374  0.30490325057316175  0.5110743403165899  1.0000
  F   F1        1.0  0.1976603876855663  0.3204970211167861  0.4075388322032937  1.0000
  F   F2        1.0  0.8008705553284656  0.6936172133609588  0.5843422320563505  1.0000
