data_image0
_chemical_formula_structural       Zn6H21C46S7O45F7
_chemical_formula_sum              "Zn6 H21 C46 S7 O45 F7"
_cell_length_a       18.80369021672505
_cell_length_b       18.920530248924162
_cell_length_c       18.9742364413363
_cell_angle_alpha    109.0331107677121
_cell_angle_beta     109.6913203557036
_cell_angle_gamma    109.39550209935416

_space_group_name_H-M_alt    "P 1"
_space_group_IT_number       1

loop_
  _space_group_symop_operation_xyz
  'x, y, z'

loop_
  _atom_site_type_symbol
  _atom_site_label
  _atom_site_symmetry_multiplicity
  _atom_site_fract_x
  _atom_site_fract_y
  _atom_site_fract_z
  _atom_site_occupancy
  Zn  Zn1       1.0  0.9921481733538683  0.4459077288370281  0.9254222734326804  1.0000
  Zn  Zn2       1.0  0.9768807907046766  0.5573011057136058  0.046132951325994  1.0000
  Zn  Zn3       1.0  0.5772583220426668  0.0015755659470855024  0.0775921115774381  1.0000
  Zn  Zn4       1.0  0.4517566766767517  0.9917736059257437  0.9429434066889968  1.0000
  Zn  Zn5       1.0  0.553712205176673  0.5753588019821692  0.4877052209753856  1.0000
  Zn  Zn6       1.0  0.42780209200505237  0.44748052926243537  0.48741973448434806  1.0000
  H   H1        1.0  0.3284092529626008  0.5336550024411153  0.987131025152884  1.0000
  H   H2        1.0  0.44786971620090554  0.3161262234144289  0.23800920645411588  1.0000
  H   H3        1.0  0.04815345158667117  0.8543857860969412  0.9956959826645004  1.0000
  H   H4        1.0  0.29585179377512116  0.9528651284288261  0.0090272871181014  1.0000
  H   H5        1.0  0.43182725464028243  0.6313641961976869  0.9598967328683301  1.0000
  H   H6        1.0  0.2071273891749285  0.5530807706607134  0.991935277723151  1.0000
  H   H7        1.0  0.7736595794501258  0.3240978668715755  0.17360789413398695  1.0000
  H   H8        1.0  0.6308666349673332  0.2361204668204806  0.5888709918370054  1.0000
  H   H9        1.0  0.6795904214871414  0.8803720147616191  0.0314775176497406  1.0000
  H   H10       1.0  0.6573089807998542  0.2793803997210205  0.3968900666891103  1.0000
  H   H11       1.0  0.6989576283027007  0.42943096001000197  0.28216794970695963  1.0000
  H   H12       1.0  0.21250632373875072  0.45799056530397303  0.30582643101421064  1.0000
  H   H13       1.0  0.3902480152545137  0.02366545753893937  0.1845761000161943  1.0000
  H   H14       1.0  0.3713870208815848  0.7563512516027873  0.33779799188200604  1.0000
  H   H15       1.0  0.207625824479905  0.503376294137837  0.17054986968519606  1.0000
  H   H16       1.0  0.6449329741174169  0.20818117463714703  0.9486634418339364  1.0000
  H   H17       1.0  0.7078100370066666  0.5424302138612163  0.7085365028470179  1.0000
  H   H18       1.0  0.043642556286876244  0.7165360199997791  0.9749432449728914  1.0000
  H   H19       1.0  0.7313545925119486  0.5102637236672791  0.844859267156224  1.0000
  H   H20       1.0  0.44132558619559603  0.6339750312677738  0.6912565695083899  1.0000
  H   H21       1.0  0.5985864123288637  0.7856231334562553  0.7192205331785146  1.0000
  C   C1        1.0  0.1069662700038521  0.5360584363885296  0.1267160630550634  1.0000
  C   C2        1.0  0.2537590128792572  0.5978441679046966  0.9842998691633724  1.0000
  C   C3        1.0  0.28943833481982745  0.585245697696493  0.33847536201324147  1.0000
  C   C4        1.0  0.09797381627205223  0.6067589717528676  0.9682593032909425  1.0000
  C   C5        1.0  0.2785503166372862  0.512528305550724  0.3415201065147997  1.0000
  C   C6        1.0  0.21534176107687136  0.5863782238762951  0.2797441565479631  1.0000
  C   C7        1.0  0.17944040771785552  0.5408544419375974  0.1938894186283093  1.0000
  C   C8        1.0  0.7536573542742886  0.20609442726264157  0.024420945888287797  1.0000
  C   C9        1.0  0.6676102117533631  0.17676901488776742  0.9826398013242397  1.0000
  C   C10       1.0  0.8173680612186731  0.2835577032463591  0.0328418855110257  1.0000
  C   C11       1.0  0.8377023866933015  0.2785880970156498  0.9704753648425851  1.0000
  C   C12       1.0  0.1698213151470895  0.7538163621255479  0.9826198997145781  1.0000
  C   C13       1.0  0.6504104782426976  0.4116179212511992  0.6717835698557052  1.0000
  C   C14       1.0  0.6491211265395266  0.4795164763484863  0.6642808298872964  1.0000
  C   C15       1.0  0.729299154605343  0.4257940708757673  0.739681614300416  1.0000
  C   C16       1.0  0.8486231019852186  0.49852689766883895  0.8914669546285483  1.0000
  C   C17       1.0  0.7657559143374116  0.4793229814520643  0.8244365257569158  1.0000
  C   C18       1.0  0.5588339033831106  0.8871286139677678  0.9390886034296315  1.0000
  C   C19       1.0  0.37977135138248735  0.8774844916552668  0.9864883257762713  1.0000
  C   C20       1.0  0.532325201651652  0.11652530649547549  0.14302849462890785  1.0000
  C   C21       1.0  0.602340096172476  0.1080113924901197  0.9826821213918179  1.0000
  C   C22       1.0  0.531898540651575  0.6527007766737826  0.6131824428935104  1.0000
  C   C23       1.0  0.3084321470937255  0.8066998685497069  0.9816142403398516  1.0000
  C   C24       1.0  0.3482094496012991  0.49898559740528015  0.3905917020118608  1.0000
  C   C25       1.0  0.5104706736706675  0.42270512814823047  0.3685138188958064  1.0000
  C   C26       1.0  0.5797714139345373  0.479740341008366  0.5973277358625566  1.0000
  C   C27       1.0  0.4955158036027356  0.6997673618251099  0.725397851562569  1.0000
  C   C28       1.0  0.8921657670928269  0.3517525521015872  0.9639878925014429  1.0000
  C   C29       1.0  0.5463736705863482  0.7205334268062202  0.6917636799419569  1.0000
  C   C30       1.0  0.5007375290254857  0.7602536187846738  0.7997381296155837  1.0000
  C   C31       1.0  0.5697407691468328  0.8246335312213517  0.8779077006807938  1.0000
  C   C32       1.0  0.5743732097143877  0.338864675614559  0.30318765252503976  1.0000
  C   C33       1.0  0.5099703074274089  0.35639888963477523  0.2983324570110852  1.0000
  C   C34       1.0  0.3098591983470059  0.7307299978746046  0.9747364006513237  1.0000
  C   C35       1.0  0.5669588923505344  0.27049091085686433  0.23056236725035012  1.0000
  C   C36       1.0  0.5335590301170257  0.18733655976375727  0.2107865536207854  1.0000
  C   C37       1.0  0.09934777206578355  0.7674529387594475  0.9827530540164631  1.0000
  C   C38       1.0  0.10147072635247414  0.8438268339643289  0.9948922991898997  1.0000
  C   C39       1.0  0.17530004017341136  0.9103595919822854  0.007247574306759901  1.0000
  C   C40       1.0  0.2432626145435677  0.9008016527551065  0.004001037170589  1.0000
  C   C41       1.0  0.2415666768846947  0.8209781314736944  0.9891978057170832  1.0000
  C   C42       1.0  0.2435301158763252  0.6674695854779458  0.9778711692881146  1.0000
  C   C43       1.0  0.17191080347014773  0.6780255517682647  0.9763717852081369  1.0000
  C   C44       1.0  0.3733479245764146  0.7101843192019643  0.9638609711495577  1.0000
  C   C45       1.0  0.3807663370776099  0.6419191677166366  0.9675924425961497  1.0000
  C   C46       1.0  0.3212554079605782  0.586589483074718  0.9811428196710141  1.0000
  S   S1        1.0  0.8573721107338274  0.38206187007306625  0.1289576770092751  1.0000
  S   S2        1.0  0.5594354773806388  0.3028668558491674  0.5989611397472742  1.0000
  S   S3        1.0  0.6785267336714753  0.8422349948297807  0.9137612532599704  1.0000
  S   S4        1.0  0.6797027587909455  0.39969912072412234  0.3996240103884929  1.0000
  S   S5        1.0  0.608952255643409  0.30517240879483865  0.1666394044525958  1.0000
  S   S6        1.0  0.4896399074953096  0.15450366144089148  0.2730755414476961  1.0000
  S   S7        1.0  0.3942192836279617  0.6829016466382072  0.39808287459619146  1.0000
  O   O1        1.0  0.08644654503260092  0.4878608589323577  0.0497921396108865  1.0000
  O   O2        1.0  0.4735276058985679  0.575571513209546  0.5812554536734426  1.0000
  O   O3        1.0  0.42454657341290414  0.5424288990552242  0.4062394327580988  1.0000
  O   O4        1.0  0.07038849144795727  0.5792905919345303  0.14823345345182298  1.0000
  O   O5        1.0  0.32357759712002127  0.44129536226086696  0.4124249004332441  1.0000
  O   O6        1.0  0.560958497707155  0.5019291201536689  0.3950202113973944  1.0000
  O   O7        1.0  0.4575299979056738  0.3932329805500673  0.3918846834813579  1.0000
  O   O8        1.0  0.6067385686653637  0.5325877073991521  0.5728855838307823  1.0000
  O   O9        1.0  0.4998586212996941  0.4287298967527206  0.5708336219936285  1.0000
  O   O10       1.0  0.07160118095998774  0.5296167311641042  0.9118654076194589  1.0000
  O   O11       1.0  0.06669500475280901  0.6256357823596018  0.0167245510304213  1.0000
  O   O12       1.0  0.503383605390468  0.9076621841267355  0.9091089530080155  1.0000
  O   O13       1.0  0.8892602975633325  0.4620040083953325  0.8697352076378166  1.0000
  O   O14       1.0  0.8747680893455012  0.5527861052942526  0.9696703581284964  1.0000
  O   O15       1.0  0.9214827426115665  0.3344861389717266  0.9123650168583596  1.0000
  O   O16       1.0  0.9032403328031935  0.42419461954332877  0.0096957853284678  1.0000
  O   O17       1.0  0.6088733922035061  0.9192100225708023  0.021487036206742995  1.0000
  O   O18       1.0  0.9504124837335797  0.42980564729176535  0.1724037716293125  1.0000
  O   O19       1.0  0.8038606306215854  0.4194127007626563  0.10684645110517718  1.0000
  O   O20       1.0  0.8347665270152478  0.34238865337985663  0.1856197227956287  1.0000
  O   O21       1.0  0.4977705265921843  0.2921012362802671  0.6281656876150592  1.0000
  O   O22       1.0  0.5372281549166971  0.2833923375557604  0.5121024359957929  1.0000
  O   O23       1.0  0.4561069482680935  0.9148610783604173  0.0493130654668477  1.0000
  O   O24       1.0  0.6020029550734662  0.2467911591205763  0.6223528195094588  1.0000
  O   O25       1.0  0.6807638306079512  0.7696174419427352  0.8613361813215336  1.0000
  O   O26       1.0  0.7302186387079957  0.9268687888927901  0.9288773760082949  1.0000
  O   O27       1.0  0.6993889884410367  0.8425361209721987  0.0024135480932514  1.0000
  O   O28       1.0  0.7409627995857948  0.4523611231021931  0.3827444744218482  1.0000
  O   O29       1.0  0.67242069378419  0.43894578042173293  0.4733387635222499  1.0000
  O   O30       1.0  0.7043283576397671  0.32785899543130637  0.4003544853620511  1.0000
  O   O31       1.0  0.6723010632223919  0.27763233146541216  0.166416842568907  1.0000
  O   O32       1.0  0.5364547490905168  0.2780359293990529  0.08703814822484901  1.0000
  O   O33       1.0  0.6547493120566942  0.40554703577729617  0.2197396140104502  1.0000
  O   O34       1.0  0.3562244967128835  0.8982774220630461  0.9276642922080214  1.0000
  O   O35       1.0  0.5625520961404504  0.1876110439603025  0.3563381191073418  1.0000
  O   O36       1.0  0.4186706819828743  0.17040555222591539  0.264925989380643  1.0000
  O   O37       1.0  0.4528905203825957  0.05298092382056302  0.2256264191869306  1.0000
  O   O38       1.0  0.4295489197174689  0.7099308433551742  0.4877898881640519  1.0000
  O   O39       1.0  0.4419221327445371  0.6737951847401719  0.3534149581535432  1.0000
  O   O40       1.0  0.3637818820958003  0.7500708593689327  0.3844309588469343  1.0000
  O   O41       1.0  0.5885783980846072  0.09532578878643254  0.1732364754591558  1.0000
  O   O42       1.0  0.4758045660846193  0.08460915032662802  0.0659653915042284  1.0000
  O   O43       1.0  0.6264404454181474  0.08385928109241553  0.03707815202985639  1.0000
  O   O44       1.0  0.5218261748621913  0.07723952420273843  0.9268703123514612  1.0000
  O   O45       1.0  0.5817563648170677  0.677478459741572  0.5830886980290941  1.0000
  F   F1        1.0  0.18784296795694638  0.6359839892900395  0.3180117933934881  1.0000
  F   F2        1.0  0.7890194349340761  0.17011874875551322  0.0655961584238156  1.0000
  F   F3        1.0  0.8047929446588925  0.20015059695821685  0.903772142152029  1.0000
  F   F4        1.0  0.7660632437993444  0.3826966143984834  0.7080297118704095  1.0000
  F   F5        1.0  0.419672747441048  0.7451162148607863  0.7845115320792502  1.0000
  F   F6        1.0  0.17713909293423313  0.9864181798615949  0.0213621068842755  1.0000
  F   F7        1.0  0.42914969886378174  0.7606955564857785  0.9474676237500147  1.0000
