data_image0
_chemical_formula_structural       Co4H88C128N16O28
_chemical_formula_sum              "Co4 H88 C128 N16 O28"
_cell_length_a       10.031531191274265
_cell_length_b       14.69160402898365
_cell_length_c       25.018906334905626
_cell_angle_alpha    89.99610567231953
_cell_angle_beta     90.0016423422709
_cell_angle_gamma    105.11604868889232

_space_group_name_H-M_alt    "P 1"
_space_group_IT_number       1

loop_
  _space_group_symop_operation_xyz
  'x, y, z'

loop_
  _atom_site_type_symbol
  _atom_site_label
  _atom_site_symmetry_multiplicity
  _atom_site_fract_x
  _atom_site_fract_y
  _atom_site_fract_z
  _atom_site_occupancy
  Co  Co1       1.0  0.5282950066026829  0.639857330605437  0.9785662045680468  1.0000
  Co  Co2       1.0  0.4717110529398455  0.36013073086323294  0.0214292987851934  1.0000
  Co  Co3       1.0  0.9717247200645005  0.8601378009817751  0.4785736582601886  1.0000
  Co  Co4       1.0  0.0283151680238376  0.1398752536305565  0.521423443578442  1.0000
  H   H1        1.0  0.3102574847624097  0.6271892454144562  0.06254076178277762  1.0000
  H   H2        1.0  0.28667854360507766  0.6226162963343639  0.1615522409421146  1.0000
  H   H3        1.0  0.7269129584210816  0.6554959618492118  0.17129952195910647  1.0000
  H   H4        1.0  0.7315404102294564  0.6600994574887051  0.0717311553632314  1.0000
  H   H5        1.0  0.31495766840445316  0.6070890059864876  0.3110752345693228  1.0000
  H   H6        1.0  0.25401599233603633  0.6392152249323289  0.40338243901980053  1.0000
  H   H7        1.0  0.6848636510744868  0.7134014669349964  0.44728461296488586  1.0000
  H   H8        1.0  0.7467171639345268  0.6836531796486867  0.35421154546786227  1.0000
  H   H9        1.0  0.3998705335750472  0.7990193349283315  0.560369760629186  1.0000
  H   H10       1.0  0.4698941368164498  0.7722016604634162  0.6528147826551559  1.0000
  H   H11       1.0  0.6406546461064621  0.5492438334678056  0.5958964470884993  1.0000
  H   H12       1.0  0.57316000616364  0.5785204598631211  0.5029917380670241  1.0000
  H   H13       1.0  0.35107193076380844  0.7134295915636811  0.7939605360081501  1.0000
  H   H14       1.0  0.3673251631689495  0.7070042148739187  0.8931141715493354  1.0000
  H   H15       1.0  0.696398978836122  0.5875745609476084  0.8853758805515639  1.0000
  H   H16       1.0  0.6957193924705509  0.5885426166613783  0.785158447086495  1.0000
  H   H17       1.0  0.05715896245548885  0.37506376918003764  0.0555520336468973  1.0000
  H   H18       1.0  0.8166595155373174  0.3962754236266833  0.055867299369538194  1.0000
  H   H19       1.0  0.7030255681050052  0.1331777955221867  0.9794558330040033  1.0000
  H   H20       1.0  0.7160616441780691  0.9652910806501821  0.9671190405439206  1.0000
  H   H21       1.0  0.39325320936369224  0.6327769992510994  0.2430965773573277  1.0000
  H   H22       1.0  0.4340158784086086  0.6823378949732511  0.7128086000777288  1.0000
  H   H23       1.0  0.6897387930166303  0.37278255072352096  0.9374631354912141  1.0000
  H   H24       1.0  0.7133032297464369  0.3773735591440399  0.8384516558893792  1.0000
  H   H25       1.0  0.27307431083975336  0.344481332699253  0.8287071730381114  1.0000
  H   H26       1.0  0.2684385837644285  0.3398658019855673  0.9282727419426422  1.0000
  H   H27       1.0  0.6850451353233993  0.39289831190225744  0.6889238660597455  1.0000
  H   H28       1.0  0.7459808161238541  0.36078605092971117  0.5966142631105882  1.0000
  H   H29       1.0  0.315130212552873  0.2866587165675156  0.552707691299716  1.0000
  H   H30       1.0  0.2532869524570884  0.31639380192069666  0.6457859551886784  1.0000
  H   H31       1.0  0.6001200143841104  0.2009811586472026  0.4396353351334313  1.0000
  H   H32       1.0  0.5301041641195354  0.22778980995929735  0.3471883148427963  1.0000
  H   H33       1.0  0.3593629472787114  0.4507598139532476  0.4040918614606852  1.0000
  H   H34       1.0  0.4268308070223128  0.4214947739943041  0.49700216586695944  1.0000
  H   H35       1.0  0.6489201121753042  0.28656390482099425  0.2060273729001523  1.0000
  H   H36       1.0  0.6326986937471164  0.29300302113750815  0.10687733454579978  1.0000
  H   H37       1.0  0.3035993188783337  0.41241410387835475  0.1146028354409054  1.0000
  H   H38       1.0  0.30427540109155166  0.41144740689911424  0.2148182703703085  1.0000
  H   H39       1.0  0.9428580976373128  0.6249075906662398  0.9444598577086583  1.0000
  H   H40       1.0  0.18335953912731634  0.6036875411235766  0.944142593676048  1.0000
  H   H41       1.0  0.2969454448166076  0.8668182371262815  0.0205608539704016  1.0000
  H   H42       1.0  0.2839339176694438  0.03471508997778729  0.0329024427409266  1.0000
  H   H43       1.0  0.6067335805175987  0.3672213410199489  0.7569093178222631  1.0000
  H   H44       1.0  0.5659646362577533  0.3176456298788039  0.2871769107773048  1.0000
  H   H45       1.0  0.18971652347646986  0.8728188538914947  0.5625306571768078  1.0000
  H   H46       1.0  0.21331545455429787  0.8773810729115251  0.6615426225609653  1.0000
  H   H47       1.0  0.7730709781375112  0.8444808773303902  0.6712954922925221  1.0000
  H   H48       1.0  0.7684335556033021  0.8399079500659352  0.5717268561378219  1.0000
  H   H49       1.0  0.18504676819506474  0.8928469956249644  0.811072670517163  1.0000
  H   H50       1.0  0.2459809969312729  0.860765875269166  0.9033918409118301  1.0000
  H   H51       1.0  0.8151274004039523  0.7866508018292109  0.9472881650934184  1.0000
  H   H52       1.0  0.7532875582415958  0.8163408225235002  0.8541992193742018  1.0000
  H   H53       1.0  0.1001374783095272  0.7010034733143866  0.0603869212627544  1.0000
  H   H54       1.0  0.030141669764468276  0.7278000184463592  0.1528336748935288  1.0000
  H   H55       1.0  0.8594019451627376  0.9507837016236421  0.09592498950621578  1.0000
  H   H56       1.0  0.9268505054887086  0.921535740919097  0.0030134217729980003  1.0000
  H   H57       1.0  0.14892154757313136  0.7865769359677016  0.2939956252113021  1.0000
  H   H58       1.0  0.13269859051660388  0.7930064349744438  0.39314442298994123  1.0000
  H   H59       1.0  0.8035948914653661  0.9123997026825562  0.3854025189240389  1.0000
  H   H60       1.0  0.8042474378774571  0.9114396136804145  0.2851855311684162  1.0000
  H   H61       1.0  0.44285023072961144  0.12491856440689728  0.5555215169142188  1.0000
  H   H62       1.0  0.6833734274661084  0.10372715659278951  0.5558262794649522  1.0000
  H   H63       1.0  0.7969467300969343  0.3668212172861941  0.4794378481066133  1.0000
  H   H64       1.0  0.7839322294116684  0.53473446309971  0.4671217390262825  1.0000
  H   H65       1.0  0.10675275407859888  0.867221299625136  0.7430853511458365  1.0000
  H   H66       1.0  0.06598314991095583  0.8176440245628314  0.2128487006318451  1.0000
  H   H67       1.0  0.8102607269127234  0.12715550614876037  0.4374656456809447  1.0000
  H   H68       1.0  0.786671563464303  0.12259551718346269  0.3384552790988522  1.0000
  H   H69       1.0  0.22691255298866517  0.15551391272539655  0.32870840445063715  1.0000
  H   H70       1.0  0.2315517303810068  0.16008896784352084  0.4282730435956452  1.0000
  H   H71       1.0  0.8149670559425387  0.1071432697625809  0.18893362467500202  1.0000
  H   H72       1.0  0.7540047914477982  0.13923245187871194  0.0966196500305045  1.0000
  H   H73       1.0  0.1848491624354978  0.21338600283311848  0.0527133325863574  1.0000
  H   H74       1.0  0.24670976951415463  0.18367870512909684  0.14579308572038494  1.0000
  H   H75       1.0  0.8998372867073954  0.2989890997435579  0.939610980008773  1.0000
  H   H76       1.0  0.9698521225765121  0.27218999095237706  0.8471674241192348  1.0000
  H   H77       1.0  0.1406529699661903  0.0492323506820114  0.9040984924082311  1.0000
  H   H78       1.0  0.0731628593919638  0.07849521833991699  0.9970004668623459  1.0000
  H   H79       1.0  0.8510792702427563  0.2134271975197207  0.7060114690258743  1.0000
  H   H80       1.0  0.8672979670180253  0.20699413526293844  0.6068646697826381  1.0000
  H   H81       1.0  0.19639264308806054  0.0875923319047232  0.6145973809195482  1.0000
  H   H82       1.0  0.1957563788871326  0.08855894471256678  0.7148151680333044  1.0000
  H   H83       1.0  0.5571515824623959  0.8750799698390208  0.4444524025288388  1.0000
  H   H84       1.0  0.31663314538970866  0.8962735437714212  0.4441468405665816  1.0000
  H   H85       1.0  0.20303855595316375  0.6331757003801853  0.5205664483018566  1.0000
  H   H86       1.0  0.21607659522283737  0.46526415958327044  0.532874963225396  1.0000
  H   H87       1.0  0.8932282801946059  0.13278047586840097  0.256916546955253  1.0000
  H   H88       1.0  0.9340036314540046  0.1823458946752226  0.7871607919950776  1.0000
  C   C1        1.0  0.39988079757267764  0.6322893590703271  0.08808425334764539  1.0000
  C   C2        1.0  0.3877707284719635  0.6304416122490011  0.1432017384520492  1.0000
  C   C3        1.0  0.5059420865359102  0.6378735524751773  0.1749486548021437  1.0000
  C   C4        1.0  0.6327109776221747  0.648653669470761  0.1486094811251348  1.0000
  C   C5        1.0  0.6342483176696164  0.650383013808792  0.09315978937697621  1.0000
  C   C6        1.0  0.5885544655411296  0.6405518035880815  0.2696690395074555  1.0000
  C   C7        1.0  0.537949123637908  0.6474862653559368  0.3252885504680947  1.0000
  C   C8        1.0  0.3983739710353476  0.6337837888374336  0.3395816193690067  1.0000
  C   C9        1.0  0.36156307251368247  0.6496573924820478  0.39165131518947055  1.0000
  C   C10       1.0  0.4652213789576366  0.6793697818528626  0.43008184996450183  1.0000
  C   C11       1.0  0.6041078822399939  0.6905202957607697  0.4174755524132934  1.0000
  C   C12       1.0  0.6388460168363962  0.673902316312002  0.3652455808389092  1.0000
  C   C13       1.0  0.47847395758918043  0.6887820167413563  0.5269288968932174  1.0000
  C   C14       1.0  0.4512408747003676  0.7439434892257494  0.5691668989336875  1.0000
  C   C15       1.0  0.48909207317883835  0.7267034612909383  0.6207764285889823  1.0000
  C   C16       1.0  0.5551200159201102  0.6549553548551329  0.6311803677841894  1.0000
  C   C17       1.0  0.5870332309601238  0.60353086271882  0.5879450720806859  1.0000
  C   C18       1.0  0.548958230512504  0.6195940554210038  0.5360234006802997  1.0000
  C   C19       1.0  0.5920224978229669  0.6305538080278408  0.6861498938637283  1.0000
  C   C20       1.0  0.5229476559376992  0.6509369852184432  0.7810765052566424  1.0000
  C   C21       1.0  0.42947128871339396  0.6843569461961961  0.8125495045770066  1.0000
  C   C22       1.0  0.4376236469879302  0.680891305000891  0.8677067073576127  1.0000
  C   C23       1.0  0.6210961529494413  0.6144049995556101  0.8632892194854804  1.0000
  C   C24       1.0  0.6212119630030346  0.614858667553179  0.8077516115684062  1.0000
  C   C25       1.0  0.27520174123988284  0.4729516674807782  0.9985138060816325  1.0000
  C   C26       1.0  0.1334945487403658  0.4873057741191431  0.9994076364595941  1.0000
  C   C27       1.0  0.03073201139738293  0.42959504612909416  0.0315173717371522  1.0000
  C   C28       1.0  0.8979690716170552  0.44176437363466176  0.031994509214968  1.0000
  C   C29       1.0  0.6152804810846108  0.0739622675161726  0.9882354745045063  1.0000
  C   C30       1.0  0.6223025050671396  0.9814164065263069  0.9816440001964608  1.0000
  C   C31       1.0  0.5066396776827702  0.9070048305333388  0.9933439772099745  1.0000
  C   C32       1.0  0.5120012918339114  0.8076594514420347  0.9861642189093801  1.0000
  C   C33       1.0  0.6001059579681893  0.3676752980852384  0.9119176455257758  1.0000
  C   C34       1.0  0.6122175451657484  0.3695385023010472  0.856800559819675  1.0000
  C   C35       1.0  0.49404819029163605  0.3621065876361839  0.8250548425736639  1.0000
  C   C36       1.0  0.3672835508865688  0.35132161316700916  0.8513900193944154  1.0000
  C   C37       1.0  0.36572841910127357  0.3495787084629002  0.906838512218357  1.0000
  C   C38       1.0  0.4114613702966495  0.35944690841586885  0.7303344576437283  1.0000
  C   C39       1.0  0.4620617271478196  0.35253483804824265  0.6747165449993632  1.0000
  C   C40       1.0  0.6016298514067985  0.36622038357754855  0.6604166815344996  1.0000
  C   C41       1.0  0.6384379934305571  0.35034463946434596  0.6083473854387336  1.0000
  C   C42       1.0  0.534780212001877  0.32065611575140446  0.569912853213772  1.0000
  C   C43       1.0  0.39589221350631487  0.30951259989616625  0.5825207494079123  1.0000
  C   C44       1.0  0.36115283196262743  0.3261354753483232  0.6347531190639799  1.0000
  C   C45       1.0  0.5215158539809296  0.3112332044127513  0.4730630085466813  1.0000
  C   C46       1.0  0.5487429046259251  0.25604919902384177  0.4308334005732278  1.0000
  C   C47       1.0  0.5109054743593688  0.2732858945559684  0.37922227227182503  1.0000
  C   C48       1.0  0.4448890510635267  0.3450355526404821  0.3688035442953534  1.0000
  C   C49       1.0  0.41296732683404974  0.39646414625442356  0.41203923956639704  1.0000
  C   C50       1.0  0.45102431882739324  0.38042037116314026  0.46396730564090666  1.0000
  C   C51       1.0  0.4079823117181931  0.36943634322874164  0.3138348176021069  1.0000
  C   C52       1.0  0.47704914386233815  0.34905587014094414  0.2189142015756076  1.0000
  C   C53       1.0  0.5705230142695543  0.31564289446834687  0.18744160179954153  1.0000
  C   C54       1.0  0.5623974591317095  0.3191194044755576  0.1322843989549156  1.0000
  C   C55       1.0  0.37891192391699496  0.38559712275034735  0.1366974902490057  1.0000
  C   C56       1.0  0.3787865859237556  0.38513070183675774  0.19223389927282142  1.0000
  C   C57       1.0  0.7248353732879877  0.5270424047074654  0.0014888918877104997  1.0000
  C   C58       1.0  0.8665382912406016  0.512670700029247  0.0005982594179557001  1.0000
  C   C59       1.0  0.9692920539699585  0.5703707899442562  0.9684869255115487  1.0000
  C   C60       1.0  0.10204271796662569  0.5581949895788297  0.9680145844655783  1.0000
  C   C61       1.0  0.38471307764484647  0.926043877285309  0.0117896060489997  1.0000
  C   C62       1.0  0.3776837913902328  0.018588943859889195  0.0183770833542596  1.0000
  C   C63       1.0  0.4933483737523474  0.09300264726456932  0.0066811032856151  1.0000
  C   C64       1.0  0.4879900067619971  0.1923403494110403  0.013851668709960999  1.0000
  C   C65       1.0  0.10009298203584643  0.867724323913748  0.5880733314433186  1.0000
  C   C66       1.0  0.11221271039578799  0.8695632717967638  0.6431920801089887  1.0000
  C   C67       1.0  0.9940442306802028  0.8621204553266962  0.6749468381131933  1.0000
  C   C68       1.0  0.8672690382845261  0.8513389701487311  0.6486014546254566  1.0000
  C   C69       1.0  0.8657210245775958  0.8496156417830534  0.5931494159369848  1.0000
  C   C70       1.0  0.9114434093171795  0.8593918442232603  0.769662792716133  1.0000
  C   C71       1.0  0.9620464407041994  0.8524820577554449  0.8252803578998851  1.0000
  C   C72       1.0  0.10162936404537944  0.8661967531121771  0.8395807674613921  1.0000
  C   C73       1.0  0.13843757764518463  0.8503306703926651  0.8916535134624012  1.0000
  C   C74       1.0  0.03477470581350415  0.8206567634773803  0.9300920454468482  1.0000
  C   C75       1.0  0.8958922644845375  0.8095073277326106  0.9174791125533447  1.0000
  C   C76       1.0  0.8611517820031197  0.8260980916059778  0.865240489324492  1.0000
  C   C77       1.0  0.021526302215754294  0.8112535249316932  0.0269507606375186  1.0000
  C   C78       1.0  0.04876639605896564  0.7560755263219433  0.0691880742725886  1.0000
  C   C79       1.0  0.010929000771419296  0.773299478470463  0.12080048313654862  1.0000
  C   C80       1.0  0.9449020506850659  0.8450439647809631  0.1312113002414677  1.0000
  C   C81       1.0  0.9130025826895434  0.8964902715925473  0.08797239194709762  1.0000
  C   C82       1.0  0.9510502563182398  0.8804500336348436  0.0360465976706479  1.0000
  C   C83       1.0  0.9079789219923813  0.8694328330110036  0.18617703544799719  1.0000
  C   C84       1.0  0.9770403566761704  0.8490663190877754  0.281104046312926  1.0000
  C   C85       1.0  0.07053101824840265  0.8156567542967678  0.3125829418798745  1.0000
  C   C86       1.0  0.06240811808203254  0.8191299854924877  0.36773551703729623  1.0000
  C   C87       1.0  0.8789128478587076  0.8855880477888292  0.3633193832341632  1.0000
  C   C88       1.0  0.878774841877359  0.8851388545449904  0.3077813921682733  1.0000
  C   C89       1.0  0.22483452763592746  0.027028878650099793  0.49850014975727663  1.0000
  C   C90       1.0  0.36652221163357984  0.012670213037495198  0.4993913694100058  1.0000
  C   C91       1.0  0.4692877197802546  0.07037956272201029  0.5314941261000143  1.0000
  C   C92       1.0  0.6020388508162287  0.0582229915655148  0.5319631701880426  1.0000
  C   C93       1.0  0.8847131245564271  0.42604727147835314  0.48821572859240797  1.0000
  C   C94       1.0  0.8776830227419552  0.518591279645392  0.48163721776951013  1.0000
  C   C95       1.0  0.9933429416457573  0.5929980111870634  0.4933451385478023  1.0000
  C   C96       1.0  0.9879786046208493  0.6923399408444125  0.4861809445557697  1.0000
  C   C97       1.0  0.8998847991837167  0.13227951529813708  0.4119257687140276  1.0000
  C   C98       1.0  0.887757052422792  0.13043485101528055  0.3568070201166336  1.0000
  C   C99       1.0  0.0059350658392957915  0.137896034113993  0.3250566584756669  1.0000
  C   C100      1.0  0.13272527620902247  0.14867209798526196  0.351395247295578  1.0000
  C   C101      1.0  0.1342855571474075  0.15039347831039146  0.4068436888131686  1.0000
  C   C102      1.0  0.0885586726162089  0.1406242348185103  0.23034390159244114  1.0000
  C   C103      1.0  0.037964404248484074  0.14753343220127843  0.1747167437248649  1.0000
  C   C104      1.0  0.8983807248441809  0.13381381461690714  0.1604247279094295  1.0000
  C   C105      1.0  0.8615562262123717  0.14967056645342322  0.10835358079258131  1.0000
  C   C106      1.0  0.9652058462952058  0.17936325052885846  0.0699138492652764  1.0000
  C   C107      1.0  0.1040895459624451  0.1905190181816465  0.0825219856670216  1.0000
  C   C108      1.0  0.13885356990293474  0.1739327662032863  0.1347542137763398  1.0000
  C   C109      1.0  0.9784637521639895  0.18875397933353352  0.9730591313552992  1.0000
  C   C110      1.0  0.9512276531718982  0.24392080166275315  0.9308174212907048  1.0000
  C   C111      1.0  0.9890642865393604  0.22668631392753005  0.8792038135392063  1.0000
  C   C112      1.0  0.0551125240892958  0.15494560788412307  0.8688057868074209  1.0000
  C   C113      1.0  0.0870252895052701  0.10352543516025749  0.9120434955634593  1.0000
  C   C114      1.0  0.0489610968024508  0.11957247922873648  0.963966092028393  1.0000
  C   C115      1.0  0.09205192920794052  0.13055764983554496  0.813836054698136  1.0000
  C   C116      1.0  0.02296171394995381  0.1509385317332246  0.718910642173917  1.0000
  C   C117      1.0  0.9294740599444254  0.1843509420871284  0.687428548985551  1.0000
  C   C118      1.0  0.937585440408199  0.18087616019290206  0.6322735756070941  1.0000
  C   C119      1.0  0.12109422200139619  0.1144084467311188  0.636686911795401  1.0000
  C   C120      1.0  0.12123649117453542  0.1148640099708302  0.69222650154952  1.0000
  C   C121      1.0  0.7751632850333862  0.9729752178322568  0.5014809641112521  1.0000
  C   C122      1.0  0.6334773386877829  0.9873191698733662  0.5005813511093749  1.0000
  C   C123      1.0  0.5307308777904254  0.9296269054077441  0.46847699539638654  1.0000
  C   C124      1.0  0.39796522525838895  0.9417846939712715  0.4680127475741572  1.0000
  C   C125      1.0  0.11528744484402866  0.5739589646107817  0.5117805737628133  1.0000
  C   C126      1.0  0.12231128028884088  0.48140856084237527  0.518357086188864  1.0000
  C   C127      1.0  0.006649118601124778  0.40701232624711275  0.5066539615613266  1.0000
  C   C128      1.0  0.012015456042867424  0.30766761489700667  0.5138249504815562  1.0000
  N   N1        1.0  0.5209265608894498  0.6409499703461136  0.06265999742780082  1.0000
  N   N2        1.0  0.4901130892261775  0.635938929315415  0.23009250051563873  1.0000
  N   N3        1.0  0.5124926910852352  0.6563801068509817  0.7259276436083085  1.0000
  N   N4        1.0  0.5320969580516248  0.6465055175937593  0.8935591804316375  1.0000
  N   N5        1.0  0.47905268686250213  0.3590188017859076  0.937329910389046  1.0000
  N   N6        1.0  0.5098834653321235  0.36405883441921816  0.7699085983583062  1.0000
  N   N7        1.0  0.4875003505831047  0.3436105954027937  0.2740602653613706  1.0000
  N   N8        1.0  0.46792188252006656  0.35349323293998947  0.1064427179449723  1.0000
  N   N9        1.0  0.9790421311923295  0.8590639903275699  0.5626505379920985  1.0000
  N   N10       1.0  0.00989121246409737  0.8640404407336246  0.7300874923921938  1.0000
  N   N11       1.0  0.9875064207426408  0.8436091081903214  0.22595871859503805  1.0000
  N   N12       1.0  0.9679232183369139  0.853487823087107  0.3935836431717874  1.0000
  N   N13       1.0  0.0209456772657006  0.1409512049779522  0.43734536441419186  1.0000
  N   N14       1.0  0.9900965931790822  0.13597194747251248  0.2699112079541166  1.0000
  N   N15       1.0  0.012502404089218492  0.15638951376344318  0.7740511736816628  1.0000
  N   N16       1.0  0.03207659211380327  0.14651068394017122  0.60641905449679  1.0000
  O   O1        1.0  0.7098677770400813  0.6424692850265428  0.259578923117445  1.0000
  O   O2        1.0  0.4216483562842727  0.7038970619685825  0.4789513548143205  1.0000
  O   O3        1.0  0.6823819596722488  0.589387449633939  0.695415822358342  1.0000
  O   O4        1.0  0.2943549775774912  0.4013841214696257  0.0235250805715239  1.0000
  O   O5        1.0  0.3683807128429635  0.53080335736459  0.9721870927642513  1.0000
  O   O6        1.0  0.628816893753772  0.7886876261193906  0.9814164533625488  1.0000
  O   O7        1.0  0.40025831594174827  0.7415047395194206  0.9848966603083014  1.0000
  O   O8        1.0  0.2901676053398674  0.35754511539602857  0.7404181786687049  1.0000
  O   O9        1.0  0.5783389357286454  0.2961026885131872  0.5210485448741125  1.0000
  O   O10       1.0  0.31764140077778785  0.41062399023296325  0.3045784815342856  1.0000
  O   O11       1.0  0.7056663483305883  0.5985964161790276  0.9764728212049434  1.0000
  O   O12       1.0  0.6316506258764606  0.4691745021845292  0.027798018795316196  1.0000
  O   O13       1.0  0.3711713942692043  0.2113065227785214  0.018592639490933  1.0000
  O   O14       1.0  0.5997459946055913  0.25848680743255403  0.015112832385973702  1.0000
  O   O15       1.0  0.7901245167333856  0.8574550612039853  0.7595661757329424  1.0000
  O   O16       1.0  0.07833241234602176  0.7961217594583017  0.9789702187085538  1.0000
  O   O17       1.0  0.8176212467544275  0.9106052041600204  0.19542990195306942  1.0000
  O   O18       1.0  0.20564423491385503  0.09859321513734899  0.523532482302322  1.0000
  O   O19       1.0  0.13161309884304018  0.9691918230062697  0.4721699395267507  1.0000
  O   O20       1.0  0.8711716264971942  0.7113145090000896  0.481423498439959  1.0000
  O   O21       1.0  0.09972337270028214  0.7585043108580292  0.4849283114364695  1.0000
  O   O22       1.0  0.20986729821195374  0.14256018482641508  0.24043931944059693  1.0000
  O   O23       1.0  0.9216483709002431  0.20387931078624177  0.0210372751733416  1.0000
  O   O24       1.0  0.18243013251716894  0.0893813315269867  0.8045727962476832  1.0000
  O   O25       1.0  0.7943795992561179  0.9013915649186756  0.47646621879932377  1.0000
  O   O26       1.0  0.8683922641549771  0.03085026381928199  0.5278023802776133  1.0000
  O   O27       1.0  0.1288309490455006  0.28869455924149884  0.5185803981270567  1.0000
  O   O28       1.0  0.9002706908201503  0.24150605182809665  0.5150775835449295  1.0000
