data_image0
_chemical_formula_structural       Na4H28C28S4O24
_chemical_formula_sum              "Na4 H28 C28 S4 O24"
_cell_length_a       6.052217478184497
_cell_length_b       6.682665707422394
_cell_length_c       22.3229452429319
_cell_angle_alpha    89.98927911243503
_cell_angle_beta     90.00274973958261
_cell_angle_gamma    98.00962531706577

_space_group_name_H-M_alt    "P 1"
_space_group_IT_number       1

loop_
  _space_group_symop_operation_xyz
  'x, y, z'

loop_
  _atom_site_type_symbol
  _atom_site_label
  _atom_site_symmetry_multiplicity
  _atom_site_fract_x
  _atom_site_fract_y
  _atom_site_fract_z
  _atom_site_occupancy
  Na  Na1       1.0  0.697794961931983  0.415082866565136  0.21028200418976434  1.0000
  Na  Na2       1.0  0.8023667273653031  0.5849878306633799  0.7102931555758402  1.0000
  Na  Na3       1.0  0.3022051190335517  0.584925562949273  0.7897176075108091  1.0000
  Na  Na4       1.0  0.19762586612633018  0.4149918657699486  0.2897046645718362  1.0000
  H   H1        1.0  0.6189766368009942  0.6267270356852704  0.46102545647524085  1.0000
  H   H2        1.0  0.8809378147472272  0.3732487656371432  0.9609978733202451  1.0000
  H   H3        1.0  0.3810240055016294  0.3732512028752311  0.5389808752634548  1.0000
  H   H4        1.0  0.11905255412210637  0.6267837505191663  0.039000841878682  1.0000
  H   H5        1.0  0.18768688001427586  0.8560070021510738  0.3530662866497493  1.0000
  H   H6        1.0  0.31223600947025437  0.14373164696245058  0.853081652573685  1.0000
  H   H7        1.0  0.8122836658828733  0.1439574468034621  0.6469297414647527  1.0000
  H   H8        1.0  0.6877810515846293  0.8562799195458624  0.14691706344515856  1.0000
  H   H9        1.0  0.6493252313865554  0.6170333969099744  0.5699526498724409  1.0000
  H   H10       1.0  0.8506402030809567  0.38301187555050126  0.06991581718614269  1.0000
  H   H11       1.0  0.3506223697267218  0.382955044910176  0.4300474091673222  1.0000
  H   H12       1.0  0.1494520625612594  0.6169941744713796  0.9300788685580769  1.0000
  H   H13       1.0  0.4234037482457396  0.9125407888997256  0.44375616245869753  1.0000
  H   H14       1.0  0.0765211811056901  0.08733734831449881  0.9437777876957083  1.0000
  H   H15       1.0  0.5765918281927611  0.08742534457751822  0.5562358343563147  1.0000
  H   H16       1.0  0.9234627915632813  0.9126966325803921  0.05622227127248889  1.0000
  H   H17       1.0  0.18743491307452587  0.7889958569065454  0.5887396664385918  1.0000
  H   H18       1.0  0.3124740908521062  0.2111186958539548  0.08874011876375217  1.0000
  H   H19       1.0  0.8125413532078269  0.2110078833317601  0.41125098551430733  1.0000
  H   H20       1.0  0.6875650253160616  0.7888854721105717  0.9112653173170101  1.0000
  H   H21       1.0  0.8599837019246833  0.0730346504285961  0.2655949629724859  1.0000
  H   H22       1.0  0.6398406673834671  0.9266247613271404  0.7655713400208126  1.0000
  H   H23       1.0  0.13999985541213528  0.9269283770397791  0.7344050971267322  1.0000
  H   H24       1.0  0.36017373722770435  0.07341395874445308  0.2344287194228727  1.0000
  H   H25       1.0  0.013614451988693991  0.08330794370310456  0.21011052354317883  1.0000
  H   H26       1.0  0.4863834230787347  0.9163703447174713  0.7100630543209048  1.0000
  H   H27       1.0  0.9863937932126418  0.9166884659863754  0.789888192559097  1.0000
  H   H28       1.0  0.5136028799726091  0.08362289346123218  0.2899370053433046  1.0000
  C   C1        1.0  0.15683561382263628  0.7982054809326582  0.5042084508689442  1.0000
  C   C2        1.0  0.34310521925590354  0.20179279546949394  0.0042116542267223  1.0000
  C   C3        1.0  0.843176265627733  0.2018045414057283  0.4957875772633713  1.0000
  C   C4        1.0  0.6569119542573459  0.7982081993222178  0.9957987091725113  1.0000
  C   C5        1.0  0.926404099949231  0.7205422552756529  0.5093103386106604  1.0000
  C   C6        1.0  0.5735073302768825  0.2794681878950982  0.0092967981898866  1.0000
  C   C7        1.0  0.0735774527509676  0.2794751030230387  0.4906906165195508  1.0000
  C   C8        1.0  0.42651536088253283  0.7205253022993005  0.990702366190618  1.0000
  C   C9        1.0  0.7949349602911511  0.6882851278634234  0.4571872145432251  1.0000
  C   C10       1.0  0.7049814672211953  0.3116549840639777  0.9571735964312892  1.0000
  C   C11       1.0  0.20505454474600526  0.3116960553502039  0.5428137413115832  1.0000
  C   C12       1.0  0.2950439620708353  0.6883913626555794  0.0428210874550246  1.0000
  C   C13       1.0  0.8886316521746025  0.7350267855912378  0.40152794400366787  1.0000
  C   C14       1.0  0.6112562964408212  0.2648091520131004  0.9015312456529754  1.0000
  C   C15       1.0  0.1113332721466591  0.2649330969787016  0.5984653962648281  1.0000
  C   C16       1.0  0.38872612691608316  0.7352368909203831  0.09847732451535046  1.0000
  C   C17       1.0  0.1154881682819564  0.8165310958940851  0.3969594615891552  1.0000
  C   C18       1.0  0.3844313571593645  0.1832740881538868  0.8969645292416428  1.0000
  C   C19       1.0  0.8844875667384996  0.18341225120778396  0.6030441824406195  1.0000
  C   C20       1.0  0.6155662868432188  0.8167630043690934  0.10304000962005938  1.0000
  C   C21       1.0  0.829018370799588  0.6757243169160815  0.5674732133294283  1.0000
  C   C22       1.0  0.6709066218805759  0.3243471168489763  0.06745235638321388  1.0000
  C   C23       1.0  0.17090772826129808  0.3242639760234738  0.43252729329260114  1.0000
  C   C24       1.0  0.3291427540718317  0.675648070135523  0.9325409848493179  1.0000
  C   C25       1.0  0.24898520224653703  0.846736356683692  0.4474937072824402  1.0000
  C   C26       1.0  0.2509520139808004  0.15315048990664343  0.9474998321708764  1.0000
  C   C27       1.0  0.7510188624062764  0.1532313392656022  0.5525108328091832  1.0000
  C   C28       1.0  0.7490504862592288  0.8468745599186601  0.0525038110329419  1.0000
  S   S1        1.0  0.7266987402117593  0.7063170685442299  0.3348698383350808  1.0000
  S   S2        1.0  0.7732536475266302  0.29357649653372414  0.8348462825266976  1.0000
  S   S3        1.0  0.2733147989262221  0.2936703131830498  0.6651441089732585  1.0000
  S   S4        1.0  0.2267872313672257  0.7064397696384503  0.1651389947613993  1.0000
  O   O1        1.0  0.6992332539529683  0.9160895693172934  0.3183591919109006  1.0000
  O   O2        1.0  0.8005125058496461  0.08384351127428859  0.8183375358186424  1.0000
  O   O3        1.0  0.3006802745232449  0.0839031702316504  0.6816310111119391  1.0000
  O   O4        1.0  0.1995719048132756  0.9162334339534651  0.18165938849344335  1.0000
  O   O5        1.0  0.8634385267618612  0.6132189612223442  0.29111255941355546  1.0000
  O   O6        1.0  0.6365678124182709  0.3868649098787029  0.7911267503065106  1.0000
  O   O7        1.0  0.1365890124219362  0.38678513001165266  0.7088857089455656  1.0000
  O   O8        1.0  0.363404271422084  0.6131101103867634  0.20888316472277782  1.0000
  O   O9        1.0  0.5154773364196075  0.5816765628041765  0.3496895314031859  1.0000
  O   O10       1.0  0.9844585683891368  0.4180733331712218  0.8496956158331769  1.0000
  O   O11       1.0  0.48446421123325917  0.4182816462639209  0.6503087361337306  1.0000
  O   O12       1.0  0.015523090134259104  0.5819561023420262  0.15030578707471418  1.0000
  O   O13       1.0  0.28772320707753357  0.8260008374201394  0.5529436421630222  1.0000
  O   O14       1.0  0.2122031832158342  0.17408356203816308  0.0529515031022143  1.0000
  O   O15       1.0  0.7122499705609968  0.1740043889751988  0.4470514894057089  1.0000
  O   O16       1.0  0.7878465162101591  0.825925205581285  0.947058860761771  1.0000
  O   O17       1.0  0.9332988200788889  0.16925266657990792  0.23559153806976954  1.0000
  O   O18       1.0  0.5665292677050289  0.8304134001703716  0.7355840244903219  1.0000
  O   O19       1.0  0.06667745334356566  0.8307284263892781  0.7644067297292876  1.0000
  O   O20       1.0  0.43348701859914485  0.16960419704560079  0.26441961908293615  1.0000
  O   O21       1.0  0.9391891233532876  0.7015563999018469  0.6150594667021066  1.0000
  O   O22       1.0  0.5607764453878943  0.2985920304640146  0.11505022796225008  1.0000
  O   O23       1.0  0.0607601404771643  0.2984094112794294  0.38493700897440414  1.0000
  O   O24       1.0  0.4393143849154058  0.701415514865978  0.8849538650928533  1.0000
