data_image0
_chemical_formula_structural       Fe4Ag8H32C56N24Cl8
_chemical_formula_sum              "Fe4 Ag8 H32 C56 N24 Cl8"
_cell_length_a       9.095138855676526
_cell_length_b       12.153691350008481
_cell_length_c       15.90667814714209
_cell_angle_alpha    90.00011219793852
_cell_angle_beta     99.47164405834033
_cell_angle_gamma    90.00005836855844

_space_group_name_H-M_alt    "P 1"
_space_group_IT_number       1

loop_
  _space_group_symop_operation_xyz
  'x, y, z'

loop_
  _atom_site_type_symbol
  _atom_site_label
  _atom_site_symmetry_multiplicity
  _atom_site_fract_x
  _atom_site_fract_y
  _atom_site_fract_z
  _atom_site_occupancy
  Fe  Fe1       1.0  0.6518023600755285  0.4958877627387396  0.2380034334020351  1.0000
  Fe  Fe2       1.0  0.34819722319618046  0.9958888538352185  0.261995872705306  1.0000
  Fe  Fe3       1.0  0.34819387011187075  0.5041129803245212  0.7619952494763637  1.0000
  Fe  Fe4       1.0  0.651809039232802  0.004111066439499199  0.7380050112577693  1.0000
  Ag  Ag1       1.0  0.7349181642368379  0.2791126320483245  0.9781045033361764  1.0000
  Ag  Ag2       1.0  0.2650841272895335  0.7791113947606975  0.5218942230118628  1.0000
  Ag  Ag3       1.0  0.2650858689029718  0.7208881110221624  0.0218974282476481  1.0000
  Ag  Ag4       1.0  0.7349154469904207  0.22088770271450636  0.4781054031171266  1.0000
  Ag  Ag5       1.0  0.57511886882763  0.7298054716610313  0.49370017826453955  1.0000
  Ag  Ag6       1.0  0.42488357759002326  0.22980772116444828  0.0062983720716687005  1.0000
  Ag  Ag7       1.0  0.4248807054125264  0.27019362581335576  0.5062988191939368  1.0000
  Ag  Ag8       1.0  0.5751148818865487  0.7701921991030433  0.9936992631859738  1.0000
  H   H1        1.0  0.4137966524553106  0.47144387128149395  0.0855878817687881  1.0000
  H   H2        1.0  0.5861995427455681  0.9714447175425819  0.4144135838633574  1.0000
  H   H3        1.0  0.5861995776945221  0.5285593401668294  0.9144101724411441  1.0000
  H   H4        1.0  0.4138078343726335  0.028560139504442396  0.5855874049642935  1.0000
  H   H5        1.0  0.0425475843785463  0.3151736254229576  0.1766836973129955  1.0000
  H   H6        1.0  0.9574472137190072  0.8151704128920015  0.32331740405467  1.0000
  H   H7        1.0  0.9574475309679116  0.6848304088176604  0.8233123660255899  1.0000
  H   H8        1.0  0.0425545900475868  0.18482621620089654  0.6766843178047779  1.0000
  H   H9        1.0  0.1963067174024573  0.3211070522615387  0.3243481407742124  1.0000
  H   H10       1.0  0.8036869767727026  0.8211033397273653  0.17565349425225923  1.0000
  H   H11       1.0  0.8036861685730158  0.678895336387356  0.6756477128420499  1.0000
  H   H12       1.0  0.1963137123069103  0.1788908209790918  0.8243481227446595  1.0000
  H   H13       1.0  0.4488539671830338  0.4039239903784946  0.3439836267998615  1.0000
  H   H14       1.0  0.551143220678604  0.9039241442550648  0.1560178316126368  1.0000
  H   H15       1.0  0.5511411482790792  0.5960759298881015  0.6560143225468593  1.0000
  H   H16       1.0  0.4488585830496844  0.09607413042760267  0.8439832615776623  1.0000
  H   H17       1.0  0.8937549803242533  0.49292598741136123  0.38824164298103636  1.0000
  H   H18       1.0  0.1062479416913718  0.9929297942576129  0.11175860146411762  1.0000
  H   H19       1.0  0.1062412498601688  0.5070714644707408  0.611757039894634  1.0000
  H   H20       1.0  0.8937572061331875  0.0070709488134426  0.8882434349801827  1.0000
  H   H21       1.0  0.2785201000481052  0.6416475369834062  0.3068746947479894  1.0000
  H   H22       1.0  0.7214788430303827  0.14164556194615588  0.19312402333611797  1.0000
  H   H23       1.0  0.7214772448210666  0.3583499148992643  0.6931240929881567  1.0000
  H   H24       1.0  0.2785218462046756  0.858344484787082  0.806880108339449  1.0000
  H   H25       1.0  0.11903631658237397  0.6717681809044648  0.1640097591292431  1.0000
  H   H26       1.0  0.8809615663275351  0.1717683435761188  0.3359901614359231  1.0000
  H   H27       1.0  0.8809632576570435  0.3282300937746356  0.8359892383285441  1.0000
  H   H28       1.0  0.1190402375186324  0.828228285518392  0.664012817764558  1.0000
  H   H29       1.0  0.856532477308285  0.6029597121629138  0.1392130692469209  1.0000
  H   H30       1.0  0.1434663959765601  0.10296265446054778  0.36078747063300637  1.0000
  H   H31       1.0  0.14346486756088686  0.3970377397197567  0.8607857184892326  1.0000
  H   H32       1.0  0.856539866493705  0.8970389114055592  0.6392140420019459  1.0000
  C   C1        1.0  0.3620364494594456  0.43781545086006457  0.1369309169985584  1.0000
  C   C2        1.0  0.6379585702833452  0.9378170281560114  0.36307038795224866  1.0000
  C   C3        1.0  0.6379575513223729  0.5621894061776942  0.8630669274917792  1.0000
  C   C4        1.0  0.3620488068746468  0.062187828891822484  0.6369312295459082  1.0000
  C   C5        1.0  0.2185117378267094  0.3935555713727509  0.1219675955936026  1.0000
  C   C6        1.0  0.7814832018838301  0.8935515395862126  0.378033007212899  1.0000
  C   C7        1.0  0.7814822628770131  0.6064509312539741  0.8780289915570663  1.0000
  C   C8        1.0  0.2185230605856958  0.10644920348460833  0.6219685054213713  1.0000
  C   C9        1.0  0.154385131492063  0.34998450734651226  0.1884674821192363  1.0000
  C   C10       1.0  0.8456075001475938  0.8499820000290372  0.3115334673123442  1.0000
  C   C11       1.0  0.8456066398421669  0.6500219952790758  0.8115288953104809  1.0000
  C   C12       1.0  0.15439541826544456  0.1500162746541989  0.6884677307384308  1.0000
  C   C13       1.0  0.2389542026207607  0.35394640390117627  0.26947413476156606  1.0000
  C   C14       1.0  0.7610428948786208  0.8539444449147167  0.23052661201842287  1.0000
  C   C15       1.0  0.7610409127249511  0.6460568075441485  0.7305219285763442  1.0000
  C   C16       1.0  0.23895890888796598  0.14605218417817406  0.7694751098410249  1.0000
  C   C17       1.0  0.38081895877359523  0.39987161631586327  0.2812574151149931  1.0000
  C   C18       1.0  0.6191737629468648  0.8998728075016729  0.21874235978867773  1.0000
  C   C19       1.0  0.6191728125944777  0.6001283039482102  0.7187395909797728  1.0000
  C   C20       1.0  0.38082915546543455  0.1001246443862698  0.7812588382614152  1.0000
  C   C21       1.0  0.9467403906663276  0.5318112509029547  0.3396058623166951  1.0000
  C   C22       1.0  0.05325946872098088  0.03181278427608449  0.1603946643197247  1.0000
  C   C23       1.0  0.0532569542470966  0.4681911377522709  0.660393554094064  1.0000
  C   C24       1.0  0.9467423350898586  0.9681887815893546  0.839607686214336  1.0000
  C   C25       1.0  0.09665560227971069  0.5617121440743844  0.3560346947067146  1.0000
  C   C26       1.0  0.9033443111449414  0.0617134755838435  0.1439658815634957  1.0000
  C   C27       1.0  0.9033372840133322  0.4382894217856902  0.6439661882729907  1.0000
  C   C28       1.0  0.09665972199189099  0.9382839763054847  0.8560360500175931  1.0000
  C   C29       1.0  0.16241440681735497  0.6155303073834232  0.294277627190688  1.0000
  C   C30       1.0  0.8375867185505043  0.11552845535349124  0.20572314327276334  1.0000
  C   C31       1.0  0.837585167543665  0.3844704356839728  0.7057232562806988  1.0000
  C   C32       1.0  0.16241508525364878  0.8844657053543447  0.7942792072551441  1.0000
  C   C33       1.0  0.07356956929692869  0.6313599295282231  0.215182253668651  1.0000
  C   C34       1.0  0.9264315846825183  0.1313624643573164  0.284818543074806  1.0000
  C   C35       1.0  0.9264311196662831  0.3686375223569627  0.7848174773194572  1.0000
  C   C36       1.0  0.0735713338889354  0.8686349875338666  0.7151851696573458  1.0000
  C   C37       1.0  0.9270832317300803  0.5945681297909926  0.20081361170101536  1.0000
  C   C38       1.0  0.07292008508833449  0.09457085850663559  0.29918670502053857  1.0000
  C   C39       1.0  0.072916342550613  0.4054317904794971  0.7991860144286562  1.0000
  C   C40       1.0  0.9270861773428863  0.9054315301539474  0.700814178944583  1.0000
  C   C41       1.0  0.5894725479041582  0.6357466759956482  0.3888842844962994  1.0000
  C   C42       1.0  0.4105274990420398  0.1357516524477802  0.11111201397687148  1.0000
  C   C43       1.0  0.4105214530691796  0.3642499530932568  0.6111167033397891  1.0000
  C   C44       1.0  0.5894698457122233  0.8642507362042054  0.8888848877518285  1.0000
  C   C45       1.0  0.5853399673684763  0.6715798592590259  0.09918247439733109  1.0000
  C   C46       1.0  0.4146601444532791  0.17158229336327216  0.40081576956652754  1.0000
  C   C47       1.0  0.4146584921095808  0.3284217065990448  0.9008151608616757  1.0000
  C   C48       1.0  0.5853438884905486  0.8284217408843305  0.5991830186674534  1.0000
  C   C49       1.0  0.7276967758809079  0.36207146501440235  0.08838983312053729  1.0000
  C   C50       1.0  0.2723025656703514  0.8620679451913702  0.4116111368662986  1.0000
  C   C51       1.0  0.2723083718227953  0.6379276324636436  0.9116103173108527  1.0000
  C   C52       1.0  0.7276970086839754  0.13792539271841522  0.588389746598942  1.0000
  C   C53       1.0  0.7264683653948864  0.3135293735958413  0.3703104974071962  1.0000
  C   C54       1.0  0.273529773430063  0.8135292431202074  0.1296852577804586  1.0000
  C   C55       1.0  0.2735234061728775  0.6864713694675685  0.629689652040831  1.0000
  C   C56       1.0  0.7264787180110516  0.18647149994365722  0.8703101778696123  1.0000
  N   N1        1.0  0.4426549901847281  0.44046827633094665  0.2161998419824869  1.0000
  N   N2        1.0  0.5573433783274807  0.9404704095110289  0.2838005246127508  1.0000
  N   N3        1.0  0.5573401252796089  0.5595341123215151  0.7837981073662802  1.0000
  N   N4        1.0  0.4426628840632034  0.05953115635345801  0.7161997306811756  1.0000
  N   N5        1.0  0.862746749931027  0.5471323898519103  0.2623763204781752  1.0000
  N   N6        1.0  0.1372542517518696  0.0471358331102749  0.23762307911159303  1.0000
  N   N7        1.0  0.13725059497942738  0.45286670762214937  0.7376230959298553  1.0000
  N   N8        1.0  0.8627508959938552  0.9528657327544534  0.7623776999923636  1.0000
  N   N9        1.0  0.7013423759216763  0.3795783630955469  0.3160573710596992  1.0000
  N   N10       1.0  0.2986592270044497  0.8795841514367171  0.18394949575101546  1.0000
  N   N11       1.0  0.2986516250951681  0.6204223799706199  0.6839442454503128  1.0000
  N   N12       1.0  0.7013514945696215  0.12042481959655757  0.8160580943666389  1.0000
  N   N13       1.0  0.6027079967120271  0.6094835792910729  0.15653186383865147  1.0000
  N   N14       1.0  0.3972931176507117  0.10948420665631886  0.3434676392485726  1.0000
  N   N15       1.0  0.3972904628073053  0.39051963215838725  0.8434664000922467  1.0000
  N   N16       1.0  0.6027131445808108  0.8905173592049281  0.6565301013632876  1.0000
  N   N17       1.0  0.700263914396821  0.40940776705921433  0.14815723490023194  1.0000
  N   N18       1.0  0.29973551231102386  0.909412342759964  0.3518375269640188  1.0000
  N   N19       1.0  0.29973343063225844  0.5905905076219825  0.8518440675186625  1.0000
  N   N20       1.0  0.7002707498379479  0.09058593191851122  0.64815895630408  1.0000
  N   N21       1.0  0.6077561165713944  0.5845193712243457  0.3289376635034528  1.0000
  N   N22       1.0  0.3922416088183098  0.0845179053414284  0.1710646269138536  1.0000
  N   N23       1.0  0.3922367696788882  0.41547890345376004  0.6710625908030039  1.0000
  N   N24       1.0  0.6077590802642733  0.9154795465461874  0.8289369900857935  1.0000
  Cl  Cl1       1.0  0.1204994138419977  0.39111252221429277  0.0196179527626299  1.0000
  Cl  Cl2       1.0  0.8794977508269355  0.8911129442896947  0.48038285571318795  1.0000
  Cl  Cl3       1.0  0.8794957015052062  0.6088923348216185  0.9803781105766376  1.0000
  Cl  Cl4       1.0  0.12050962632881829  0.10888944437227367  0.5196187617829222  1.0000
  Cl  Cl5       1.0  0.20125080583112978  0.5245507597117935  0.4524817827380474  1.0000
  Cl  Cl6       1.0  0.7987490404734318  0.024550938597926095  0.047519360515721615  1.0000
  Cl  Cl7       1.0  0.7987443097105639  0.47544916055641556  0.5475174239497065  1.0000
  Cl  Cl8       1.0  0.2012516488081033  0.9754465132937327  0.9524853998365046  1.0000
