data_image0
_chemical_formula_structural       Ag4H24C32N4O12F12
_chemical_formula_sum              "Ag4 H24 C32 N4 O12 F12"
_cell_length_a       5.6348199572717865
_cell_length_b       11.268607031352161
_cell_length_c       16.756437610740107
_cell_angle_alpha    67.62570692011641
_cell_angle_beta     80.36476415539592
_cell_angle_gamma    75.50153021893952

_space_group_name_H-M_alt    "P 1"
_space_group_IT_number       1

loop_
  _space_group_symop_operation_xyz
  'x, y, z'

loop_
  _atom_site_type_symbol
  _atom_site_label
  _atom_site_symmetry_multiplicity
  _atom_site_fract_x
  _atom_site_fract_y
  _atom_site_fract_z
  _atom_site_occupancy
  Ag  Ag1       1.0  0.07358590243892162  0.8616378780317219  0.6978412124390729  1.0000
  Ag  Ag2       1.0  0.6324540126664786  0.6386968719792135  0.8026080549790464  1.0000
  Ag  Ag3       1.0  0.926367739139415  0.1383583609645527  0.30217498867207143  1.0000
  Ag  Ag4       1.0  0.36755902930542556  0.3612961768341236  0.19738394588515726  1.0000
  H   H1        1.0  0.7500190294211677  0.8623861970688226  0.6245157576202587  1.0000
  H   H2        1.0  0.23619065027993694  0.6378900929626211  0.8756796904177692  1.0000
  H   H3        1.0  0.24997901128282501  0.13760355275228156  0.3754962194715646  1.0000
  H   H4        1.0  0.7638078064833138  0.3621091161876961  0.12430707101848537  1.0000
  H   H5        1.0  0.49362477590795323  0.7632689897200181  0.5744474002812724  1.0000
  H   H6        1.0  0.8309096155099099  0.7369073407674663  0.9261067743867031  1.0000
  H   H7        1.0  0.5063439124045102  0.23671797649843276  0.4255771799070375  1.0000
  H   H8        1.0  0.16909138240341542  0.26309594335395303  0.07387686502127624  1.0000
  H   H9        1.0  0.8628578270057616  0.3754040452051938  0.567747530690511  1.0000
  H   H10       1.0  0.8066879013853094  0.12496679581946069  0.9317293130182661  1.0000
  H   H11       1.0  0.13713992522483653  0.624594992098956  0.4322557426522948  1.0000
  H   H12       1.0  0.19333354870475716  0.8750209258278546  0.06828390393870623  1.0000
  H   H13       1.0  0.09888170971796473  0.3187326206175172  0.4965421328518645  1.0000
  H   H14       1.0  0.9142525484609505  0.18133819422679656  0.003237782451805201  1.0000
  H   H15       1.0  0.9010752385760699  0.6812560452064177  0.5034578647210851  1.0000
  H   H16       1.0  0.08575231318107517  0.8186634741181178  0.9967692820827807  1.0000
  H   H17       1.0  0.25344213003932464  0.14107756536962063  0.624046727354802  1.0000
  H   H18       1.0  0.01863489110054678  0.3590640400201366  0.8759070222331005  1.0000
  H   H19       1.0  0.7465455921692544  0.8589165012673875  0.37595871405164877  1.0000
  H   H20       1.0  0.9813785767629357  0.6409228750931034  0.12408993810485222  1.0000
  H   H21       1.0  0.9834507257117265  0.17583253790194686  0.6897381938238994  1.0000
  H   H22       1.0  0.8485185875045779  0.3248803836830731  0.8099946805572033  1.0000
  H   H23       1.0  0.01656180581160506  0.8241769570009229  0.310267301326796  1.0000
  H   H24       1.0  0.15149575981865132  0.6750965294695064  0.1900073381523981  1.0000
  C   C1        1.0  0.6411057403110334  0.923875337846539  0.5697459928291765  1.0000
  C   C2        1.0  0.13430836109483832  0.5762548209081828  0.930333853766875  1.0000
  C   C3        1.0  0.3588464403056619  0.07611526469970192  0.4302679640062479  1.0000
  C   C4        1.0  0.8657111420738985  0.4237533913935039  0.06964817044013229  1.0000
  C   C5        1.0  0.4957835247570727  0.8669189695953108  0.5414243041039272  1.0000
  C   C6        1.0  0.9038402820614876  0.6331654292382397  0.9588335549836701  1.0000
  C   C7        1.0  0.5041727705527919  0.13307405728115634  0.4585964670536384  1.0000
  C   C8        1.0  0.09614834160370826  0.36683725174631127  0.041158932670313716  1.0000
  C   C9        1.0  0.6476554964369113  0.0573870330119419  0.5290264977384568  1.0000
  C   C10       1.0  0.23396358802609254  0.44266014573881307  0.9708012612678872  1.0000
  C   C11       1.0  0.35231912976359336  0.9425958137288859  0.470987774511066  1.0000
  C   C12       1.0  0.7660439072802986  0.5573360410074881  0.029187268229499522  1.0000
  C   C13       1.0  0.8004580673200716  0.11945873204479082  0.5577654671735318  1.0000
  C   C14       1.0  0.47760479242639076  0.38069027019931684  0.9420245814013483  1.0000
  C   C15       1.0  0.19952631634363643  0.8805398844856638  0.44224401476591174  1.0000
  C   C16       1.0  0.5224039166818955  0.6193075108706411  0.05796882034648835  1.0000
  C   C17       1.0  0.9574882988696698  0.2907535522233432  0.5498301211666289  1.0000
  C   C18       1.0  0.7983019132508743  0.2094945491704507  0.9498116317612927  1.0000
  C   C19       1.0  0.04247608806050344  0.7092404096716292  0.4501770164997509  1.0000
  C   C20       1.0  0.20171281996299237  0.7904984931651454  0.05019446250517497  1.0000
  C   C21       1.0  0.05217385590359674  0.167424752455851  0.6263451008840661  1.0000
  C   C22       1.0  0.8459175192784939  0.33293704972358995  0.8734855850082115  1.0000
  C   C23       1.0  0.9478092042166464  0.832571381407526  0.3736583925043747  1.0000
  C   C24       1.0  0.1541013629497385  0.6670525049277883  0.12651505594898546  1.0000
  C   C25       1.0  0.4700468430484647  0.02944784029894271  0.8279044307013663  1.0000
  C   C26       1.0  0.3251639802500107  0.4705590552910905  0.6726407703889876  1.0000
  C   C27       1.0  0.5299503604742738  0.9705467552880979  0.17209326113868437  1.0000
  C   C28       1.0  0.6748973393661758  0.5294779644554666  0.3273431399428264  1.0000
  C   C29       1.0  0.4275304406180706  0.9092977118420721  0.8115596585871502  1.0000
  C   C30       1.0  0.147852621432186  0.5914107786911628  0.6886807310383459  1.0000
  C   C31       1.0  0.572459031990398  0.0907008771766229  0.1884361722401736  1.0000
  C   C32       1.0  0.8521497210566121  0.40860543099084634  0.311311443400392  1.0000
  N   N1        1.0  0.9537621620716973  0.06397455131124731  0.617261845350953  1.0000
  N   N2        1.0  0.6349177988043733  0.43633201165199853  0.8827625662047895  1.0000
  N   N3        1.0  0.04620774100751378  0.9360221826455586  0.38274704848393537  1.0000
  N   N4        1.0  0.36510820459730536  0.5636609278402319  0.11723092386576892  1.0000
  O   O1        1.0  0.21204655628087477  0.8934557813251941  0.8208951323277063  1.0000
  O   O2        1.0  0.9256402069363215  0.6080509331724144  0.6792426480475627  1.0000
  O   O3        1.0  0.7879303961416538  0.10656357707668461  0.17909356369846569  1.0000
  O   O4        1.0  0.07436676637397008  0.391934903881612  0.32075599797511967  1.0000
  O   O5        1.0  0.6263486386670251  0.8415687975022338  0.7893427304001153  1.0000
  O   O6        1.0  0.2579782298198054  0.6587688063847068  0.7107444731436274  1.0000
  O   O7        1.0  0.37362477884900613  0.158421386168996  0.21066313457610872  1.0000
  O   O8        1.0  0.7419884584956619  0.34125122629744453  0.2892485246493807  1.0000
  O   O9        1.0  0.7753252108230555  0.2509384864290922  0.5172400725736992  1.0000
  O   O10       1.0  0.5436308572411543  0.2491426706110929  0.9822738173232395  1.0000
  O   O11       1.0  0.22463866434586072  0.7490629882817146  0.48277011157228605  1.0000
  O   O12       1.0  0.4563782631568145  0.7508563983930188  0.01772891020263505  1.0000
  F   F1        1.0  0.566248115465427  0.1140400757777158  0.7540245627075707  1.0000
  F   F2        1.0  0.43183058905605526  0.38584947873425784  0.7465830802447542  1.0000
  F   F3        1.0  0.43376838275020885  0.8859500673053161  0.2459675546754881  1.0000
  F   F4        1.0  0.5680242098615409  0.6141361475977405  0.25343378343333717  1.0000
  F   F5        1.0  0.25854228447294525  0.0994601227733867  0.854106136718741  1.0000
  F   F6        1.0  0.20794867241899329  0.40104432011422375  0.6466542151254657  1.0000
  F   F7        1.0  0.7414723202448812  0.9005386950136794  0.1458861839704327  1.0000
  F   F8        1.0  0.7922293151242381  0.5990504453239966  0.35323323499847703  1.0000
  F   F9        1.0  0.6302830313270104  0.9920473748236632  0.8897883172406937  1.0000
  F   F10       1.0  0.5100914042810912  0.5068891829407676  0.6107290995352771  1.0000
  F   F11       1.0  0.36972542266423136  0.007945608300204302  0.11020467173058537  1.0000
  F   F12       1.0  0.49010474624216727  0.49315956905753217  0.38933571017949486  1.0000
