data_image0
_chemical_formula_structural       Cu6H20C26I6N8
_chemical_formula_sum              "Cu6 H20 C26 I6 N8"
_cell_length_a       9.325881757178314
_cell_length_b       9.503753900088
_cell_length_c       10.718101857373105
_cell_angle_alpha    99.85700683307425
_cell_angle_beta     108.66423842417572
_cell_angle_gamma    97.35584750404419

_space_group_name_H-M_alt    "P 1"
_space_group_IT_number       1

loop_
  _space_group_symop_operation_xyz
  'x, y, z'

loop_
  _atom_site_type_symbol
  _atom_site_label
  _atom_site_symmetry_multiplicity
  _atom_site_fract_x
  _atom_site_fract_y
  _atom_site_fract_z
  _atom_site_occupancy
  Cu  Cu1       1.0  0.7148081137726476  0.7103777455841466  0.7584705158212016  1.0000
  Cu  Cu2       1.0  0.2851899965751272  0.2896226209220742  0.2415309308713702  1.0000
  Cu  Cu3       1.0  0.4983628652230152  0.6608308449057245  0.5307339534091752  1.0000
  Cu  Cu4       1.0  0.5016375127845194  0.33916954879843075  0.4692718614375266  1.0000
  Cu  Cu5       1.0  0.40636230106267845  0.9192738024728866  0.5385774591771052  1.0000
  Cu  Cu6       1.0  0.5936381062899442  0.0807320689435613  0.4614319543015312  1.0000
  H   H1        1.0  0.2919714644261475  0.0193353613173741  0.9389238114320761  1.0000
  H   H2        1.0  0.7080302400337289  0.9806606018635973  0.061075201842562876  1.0000
  H   H3        1.0  0.2644034011898384  0.8387740025542811  0.10461860944293026  1.0000
  H   H4        1.0  0.735596506975952  0.1612241669087524  0.8953820879377475  1.0000
  H   H5        1.0  0.11643490087223544  0.670830599516279  0.19022223602655697  1.0000
  H   H6        1.0  0.8835670362226365  0.3291664619269454  0.8097779337898812  1.0000
  H   H7        1.0  0.9516182530620654  0.4890425165789694  0.2535236318919587  1.0000
  H   H8        1.0  0.04838281675476002  0.5109611349564531  0.746481913403578  1.0000
  H   H9        1.0  0.6724860336311025  0.4009823168054325  0.10617859422395526  1.0000
  H   H10       1.0  0.32751300725664123  0.5990224427497994  0.8938274786358207  1.0000
  H   H11       1.0  0.5714856236290302  0.4986753779412823  0.8974927357812631  1.0000
  H   H12       1.0  0.42851544618780213  0.5013282735941401  0.10251280951427325  1.0000
  H   H13       1.0  0.24924099107607833  0.0957181340083153  0.7611063021078123  1.0000
  H   H14       1.0  0.7507596043272357  0.9042832655693832  0.23889132133927415  1.0000
  H   H15       1.0  0.17623962180324068  0.24195304853596875  0.5893985976135525  1.0000
  H   H16       1.0  0.8237582528616939  0.7580462012302576  0.4105998229489316  1.0000
  H   H17       1.0  0.8952065442353642  0.23338472378509312  0.46494869076876444  1.0000
  H   H18       1.0  0.1047909006003565  0.7666178441244113  0.5350547545186188  1.0000
  H   H19       1.0  0.7611403046164041  0.9505191242432217  0.6803922515399776  1.0000
  H   H20       1.0  0.23885960202545684  0.049479035980944296  0.3196075110465557  1.0000
  C   C1        1.0  0.19089282656034356  0.9457760773409516  0.9345340914797546  1.0000
  C   C2        1.0  0.8091082108635632  0.05422207800443601  0.06546598559555857  1.0000
  C   C3        1.0  0.17419890250151582  0.8546229216394963  0.01773986071686559  1.0000
  C   C4        1.0  0.8258030330694339  0.1453741305648606  0.9822593743054354  1.0000
  C   C5        1.0  0.015749362404740515  0.7890070871160191  0.9664357986893961  1.0000
  C   C6        1.0  0.9842514423841706  0.2109899699671161  0.033563121844117826  1.0000
  C   C7        1.0  0.9295725445953521  0.6815821910431624  0.01122194235193057  1.0000
  C   C8        1.0  0.07042826171747411  0.31841487527884044  0.9887779129757277  1.0000
  C   C9        1.0  0.9950128227588023  0.6311643361819606  0.1280000768451472  1.0000
  C   C10       1.0  0.004987983554023922  0.36883273014004203  0.8719997784825111  1.0000
  C   C11       1.0  0.9023646412771029  0.5299358863631554  0.1632212491013263  1.0000
  C   C12       1.0  0.09763732668676546  0.47006666203124353  0.836783454141191  1.0000
  C   C13       1.0  0.7474302985596709  0.4810196595982959  0.08143158091819924  1.0000
  C   C14       1.0  0.2525700779239415  0.5189807248669852  0.9185732991343584  1.0000
  C   C15       1.0  0.6909693082118834  0.5346609629791601  0.9659849509445165  1.0000
  C   C16       1.0  0.3090319648948494  0.46533830910621515  0.034018152260884386  1.0000
  C   C17       1.0  0.010264783009390002  0.013873062643064302  0.7373722449505493  1.0000
  C   C18       1.0  0.9897364855255759  0.9861261817257019  0.262628053872426  1.0000
  C   C19       1.0  0.1277620534620993  0.09560062206399782  0.7098869667008785  1.0000
  C   C20       1.0  0.8722365145360483  0.9044018947723766  0.29011211910458456  1.0000
  C   C21       1.0  0.08717948292576952  0.17656699575642423  0.6123742382542829  1.0000
  C   C22       1.0  0.912817726227118  0.8234344554130857  0.3876261809030197  1.0000
  C   C23       1.0  0.9320939677162983  0.1720414268354276  0.5429100915301603  1.0000
  C   C24       1.0  0.06790347407158492  0.827961122596335  0.45709148416894146  1.0000
  C   C25       1.0  0.8565051209335905  0.014126962486443498  0.6634679018040187  1.0000
  C   C26       1.0  0.14349568690316525  0.9858701130744336  0.3365328883177839  1.0000
  I   I1        1.0  0.4660006551528894  0.8078181122579551  0.7548216376944623  1.0000
  I   I2        1.0  0.5339901880789597  0.1921746831950841  0.2451794887030019  1.0000
  I   I3        1.0  0.4901766354549864  0.798220838038425  0.3374346084358208  1.0000
  I   I4        1.0  0.5098273999265787  0.20178613548169722  0.6625787746392504  1.0000
  I   I5        1.0  0.24766241263505143  0.4543325762595315  0.44216396429686705  1.0000
  I   I6        1.0  0.7523365943358442  0.5456666778667909  0.5578357055485412  1.0000
  N   N1        1.0  0.04788667194213759  0.9339186432072067  0.8388137550541757  1.0000
  N   N2        1.0  0.9521148277039015  0.0660816901849373  0.16118676551645436  1.0000
  N   N3        1.0  0.9392688618165296  0.8386612975851407  0.8580032876924264  1.0000
  N   N4        1.0  0.06073240824236591  0.16133795602249992  0.14199794592468612  1.0000
  N   N5        1.0  0.7793194557247174  0.6323119654511729  0.9306975962589163  1.0000
  N   N6        1.0  0.22068135211203102  0.3676851101097044  0.06930319386288634  1.0000
  N   N7        1.0  0.8189538090894999  0.0910651123760857  0.5673676583685321  1.0000
  N   N8        1.0  0.1810447417549454  0.9089320006589503  0.4326353071581224  1.0000
