data_image0
_chemical_formula_structural       Sn4H48Rh8C52N12Cl8O16
_chemical_formula_sum              "Sn4 H48 Rh8 C52 N12 Cl8 O16"
_cell_length_a       9.14178708686576
_cell_length_b       12.822986808726284
_cell_length_c       19.775
_cell_angle_alpha    103.04212176210098
_cell_angle_beta     92.4040064806529
_cell_angle_gamma    94.82564055999511

_space_group_name_H-M_alt    "P 1"
_space_group_IT_number       1

loop_
  _space_group_symop_operation_xyz
  'x, y, z'

loop_
  _atom_site_type_symbol
  _atom_site_label
  _atom_site_symmetry_multiplicity
  _atom_site_fract_x
  _atom_site_fract_y
  _atom_site_fract_z
  _atom_site_occupancy
  Sn  Sn1       1.0  0.9036736919993232  0.42530077488334667  0.7382950790854821  1.0000
  Sn  Sn2       1.0  0.0963347056351012  0.5747024768400237  0.2617058629998752  1.0000
  Sn  Sn3       1.0  0.7210506893516708  0.23410027732619199  0.6946515648846301  1.0000
  Sn  Sn4       1.0  0.2789510334716638  0.7659021701720689  0.30535165853005  1.0000
  H   H1        1.0  0.014517732885998695  0.34626796537762766  0.8450165653341841  1.0000
  H   H2        1.0  0.9854888295762052  0.6537296567700037  0.1549870571973813  1.0000
  H   H3        1.0  0.15782691928808387  0.41857262765601166  0.8121818249427973  1.0000
  H   H4        1.0  0.8421821501418592  0.5814274071669344  0.18782219925465427  1.0000
  H   H5        1.0  0.0684241643763315  0.5962420378237354  0.8780222806912192  1.0000
  H   H6        1.0  0.9315546725350217  0.4037612138996279  0.12197454835918359  1.0000
  H   H7        1.0  0.9269161479425706  0.5211507355569864  0.9103879384169035  1.0000
  H   H8        1.0  0.07309055750756237  0.4788396485647083  0.0896156391055243  1.0000
  H   H9        1.0  0.04604535797664511  0.5377547670721157  0.6524765096939831  1.0000
  H   H10       1.0  0.9539617332931415  0.4622468762010427  0.347527205824818  1.0000
  H   H11       1.0  0.17075271770205797  0.4635384617194588  0.6890195203117528  1.0000
  H   H12       1.0  0.8292540562831832  0.5364607688783777  0.31098231893430045  1.0000
  H   H13       1.0  0.0579665437638113  0.29127103158114653  0.6055750749895452  1.0000
  H   H14       1.0  0.9420394526643888  0.7087306116920118  0.3944286192991768  1.0000
  H   H15       1.0  0.9370395714908212  0.3682434163681805  0.5682812154725099  1.0000
  H   H16       1.0  0.0629607392063605  0.6317566184547658  0.43172162750636295  1.0000
  H   H17       1.0  0.6626970045827959  0.5343802385320869  0.7531578962606105  1.0000
  H   H18       1.0  0.33731701024753846  0.4656157751653395  0.2468466467889741  1.0000
  H   H19       1.0  0.7883851536437945  0.5930846500620177  0.8248332772288265  1.0000
  H   H20       1.0  0.21162448182015942  0.4069113636354018  0.1751691581444561  1.0000
  H   H21       1.0  0.9329996978688442  0.6972776419735708  0.7534411023401404  1.0000
  H   H22       1.0  0.0670054524672068  0.3027175674987461  0.2465611283776141  1.0000
  H   H23       1.0  0.8217190634999695  0.6300934809378943  0.6763460786565574  1.0000
  H   H24       1.0  0.178293539204212  0.3699001200842175  0.323659601024211  1.0000
  H   H25       1.0  0.7961467690929213  0.20176319008450597  0.8226496104129524  1.0000
  H   H26       1.0  0.2038556255259323  0.7982360405133375  0.17734961546781136  1.0000
  H   H27       1.0  0.6419810745587853  0.10976868456361187  0.786530111894848  1.0000
  H   H28       1.0  0.3580208597875867  0.890235371384861  0.21346728272231266  1.0000
  H   H29       1.0  0.8015309802338848  0.9888960988000193  0.7117830586180531  1.0000
  H   H30       1.0  0.1984720489540734  0.011107957148453798  0.2882173913631902  1.0000
  H   H31       1.0  0.9593668330348636  0.0822030648691126  0.7409466154435265  1.0000
  H   H32       1.0  0.040638597359326  0.9178025995295727  0.2590455197553325  1.0000
  H   H33       1.0  0.4821205826260098  0.34866857731566364  0.7009140270957843  1.0000
  H   H34       1.0  0.5178840016760375  0.65133065328218  0.29908321848911606  1.0000
  H   H35       1.0  0.45328481632773077  0.23635291184493204  0.628761896892776  1.0000
  H   H36       1.0  0.5467252421822906  0.7636463187529114  0.3712364662204806  1.0000
  H   H37       1.0  0.40090175582232496  0.11320192153629449  0.711239153870423  1.0000
  H   H38       1.0  0.5990914197912787  0.8868021344121715  0.2887600936621624  1.0000
  H   H39       1.0  0.4228704576414443  0.2270311386543966  0.7827483806272113  1.0000
  H   H40       1.0  0.577127203100062  0.7729737215191859  0.21725410569492704  1.0000
  H   H41       1.0  0.7869421424731868  0.19451792611473445  0.559110525256358  1.0000
  H   H42       1.0  0.2130693653894014  0.8054756749073702  0.4408900763043349  1.0000
  H   H43       1.0  0.8955361105725714  0.11839882416396107  0.6026778104374699  1.0000
  H   H44       1.0  0.10447691517768477  0.8815979937585608  0.3973253140502777  1.0000
  H   H45       1.0  0.664085257013376  0.9858376307262018  0.5995952000870943  1.0000
  H   H46       1.0  0.33592271757497366  0.014162404096751399  0.4004057687462748  1.0000
  H   H47       1.0  0.5653257843018339  0.0627142779028134  0.5544620103136496  1.0000
  H   H48       1.0  0.43467911728476594  0.9372873653703451  0.44554166274500057  1.0000
  Rh  Rh1       1.0  0.3864103147148867  0.45621277523920867  0.050619361715796195  1.0000
  Rh  Rh2       1.0  0.6135980829195375  0.5437904764841618  0.9493760177905487  1.0000
  Rh  Rh3       1.0  0.40881124180165773  0.4097526909309082  0.4428892428279312  1.0000
  Rh  Rh4       1.0  0.5911989224698786  0.5902473438920381  0.5571132855325871  1.0000
  Rh  Rh5       1.0  0.4640311971002403  0.8911103682989605  0.7908590607177644  1.0000
  Rh  Rh6       1.0  0.5359670296752768  0.1088904707490954  0.2091448709142085  1.0000
  Rh  Rh7       1.0  0.9279643556199133  0.8781607356603516  0.9351809666424629  1.0000
  Rh  Rh8       1.0  0.0720127146543206  0.12184573296343609  0.0648173102667897  1.0000
  C   C1        1.0  0.5219256019393157  0.42854904008191136  0.11419321419722192  1.0000
  C   C2        1.0  0.47808028872736236  0.5714517989661374  0.885796201064224  1.0000
  C   C3        1.0  0.3964239048583734  0.3257562040779404  0.988581628114062  1.0000
  C   C4        1.0  0.6035749564862485  0.6742494603207445  0.011417459350383291  1.0000
  C   C5        1.0  0.5396390758655087  0.40505521209336587  0.3744353170644672  1.0000
  C   C6        1.0  0.46036801540428474  0.5949464311797924  0.6255719382773393  1.0000
  C   C7        1.0  0.47830757463201934  0.2904603726754331  0.46613420942641437  1.0000
  C   C8        1.0  0.5216982102731436  0.7095396621475131  0.5338682340138163  1.0000
  C   C9        1.0  0.3191472943096016  0.9822459614078554  0.8131662648643639  1.0000
  C   C10       1.0  0.6808486370211995  0.017754073415097996  0.1868375045722175  1.0000
  C   C11       1.0  0.46014961659675174  0.8532273447340869  0.8753201670079065  1.0000
  C   C12       1.0  0.5398449026078964  0.14677027741354456  0.12468170492586239  1.0000
  C   C13       1.0  0.7867233238240416  0.9460212500092239  0.9880987960228325  1.0000
  C   C14       1.0  0.21323244696097993  0.053998086216239485  0.011884263081810799  1.0000
  C   C15       1.0  0.9648635545789475  0.7994512246467947  0.9999448231046344  1.0000
  C   C16       1.0  0.03506524282129669  0.20052950877363424  5.0774599777991946e-05  1.0000
  C   C17       1.0  0.04562520698940631  0.4216101858770998  0.8295838648073044  1.0000
  C   C18       1.0  0.954379377312641  0.578389044720744  0.17041692060060143  1.0000
  C   C19       1.0  0.038129725522061585  0.5181075477601594  0.891074282995298  1.0000
  C   C20       1.0  0.9618698076180788  0.4818948997381014  0.10892535813623282  1.0000
  C   C21       1.0  0.1396810771745436  0.5081785846154432  0.94664843460383  1.0000
  C   C22       1.0  0.860317572647041  0.49182547133302984  0.053353447524123986  1.0000
  C   C23       1.0  0.061157013699215695  0.45882731105513835  0.6631237917064112  1.0000
  C   C24       1.0  0.9388476763643467  0.5411727237678079  0.3368781248147457  1.0000
  C   C25       1.0  0.045945980580668795  0.3712335253080851  0.5952954501052758  1.0000
  C   C26       1.0  0.9540564140381919  0.6287657052897515  0.4047068099094914  1.0000
  C   C27       1.0  0.1561421434225636  0.3887776959708091  0.5476243282566031  1.0000
  C   C28       1.0  0.8438641017550879  0.6112175135015079  0.4523764066242181  1.0000
  C   C29       1.0  0.7779710326096917  0.5649118404133446  0.767979783226238  1.0000
  C   C30       1.0  0.2220404752528964  0.4350817606087673  0.2320228410904548  1.0000
  C   C31       1.0  0.8229339758945997  0.6576558837319766  0.7334001363524862  1.0000
  C   C32       1.0  0.1770700795998508  0.34233932574034037  0.2666035902021946  1.0000
  C   C33       1.0  0.7182042001786472  0.7367425763197133  0.7488937439503901  1.0000
  C   C34       1.0  0.28179413235838513  0.263259066953438  0.251106767593825  1.0000
  C   C35       1.0  0.7506939315204234  0.1431158785370172  0.7756059373442241  1.0000
  C   C36       1.0  0.24930888614450453  0.8568865689612437  0.22439427316652433  1.0000
  C   C37       1.0  0.8515729456839765  0.05238883178139279  0.7558933344543632  1.0000
  C   C38       1.0  0.1484299777424738  0.9476144199419705  0.2441039616576219  1.0000
  C   C39       1.0  0.8772649842973193  0.0012417235619181998  0.8130779575506821  1.0000
  C   C40       1.0  0.1227369500490454  0.9987623323865549  0.18691741431047154  1.0000
  C   C41       1.0  0.4880998355628634  0.26160477591272263  0.6842694627177011  1.0000
  C   C42       1.0  0.5119114235502806  0.7383952589102234  0.3157300527388784  1.0000
  C   C43       1.0  0.3905795480551006  0.20041772148405806  0.7267188386614905  1.0000
  C   C44       1.0  0.6094195248125586  0.799589551364832  0.2732814996514534  1.0000
  C   C45       1.0  0.23535326137010062  0.2142487848376007  0.7176452984801287  1.0000
  C   C46       1.0  0.7646415751191071  0.7857512499853456  0.2823473245683559  1.0000
  C   C47       1.0  0.7834321465934266  0.14007912454103177  0.5947344407390744  1.0000
  C   C48       1.0  0.2165817252489717  0.8599241271823388  0.4052716643866532  1.0000
  C   C49       1.0  0.6766387258834854  0.0400640820492768  0.5637919824017956  1.0000
  C   C50       1.0  0.3233706608310172  0.9599383654489912  0.43621290669040047  1.0000
  C   C51       1.0  0.7216220569990808  0.9771511953685064  0.4982165249321469  1.0000
  C   C52       1.0  0.2783796345155666  0.0228343634025521  0.5017827094354956  1.0000
  N   N1        1.0  0.22702349644320924  0.49232972047378337  0.986670166299497  1.0000
  N   N2        1.0  0.772977025777017  0.5076719227993749  0.01332785925986  1.0000
  N   N3        1.0  0.24675524650356104  0.4041601095516469  0.5105476539171292  1.0000
  N   N4        1.0  0.7532512101971279  0.5958367083708822  0.4894512976781726  1.0000
  N   N5        1.0  0.6269995974489788  0.7941296671278764  0.76378373866838  1.0000
  N   N6        1.0  0.37300382347636685  0.2058607169938114  0.2362187637858213  1.0000
  N   N7        1.0  0.8943732941959867  0.9613956213390082  0.859713885725121  1.0000
  N   N8        1.0  0.10563453740443411  0.038611651509882  0.1402830826053858  1.0000
  N   N9        1.0  0.1107991425396406  0.2255336715091261  0.7101886236421393  1.0000
  N   N10       1.0  0.8891983066788284  0.7744695802142373  0.289809072008488  1.0000
  N   N11       1.0  0.758521162404648  0.9260644040318907  0.44621692395383417  1.0000
  N   N12       1.0  0.2414888961053805  0.0739348265659459  0.5537890244944492  1.0000
  Cl  Cl1       1.0  0.3564310214452817  0.6165559597476289  0.1320203201534724  1.0000
  Cl  Cl2       1.0  0.6435735628567657  0.3834432708502149  0.8679819823214386  1.0000
  Cl  Cl3       1.0  0.3102205989056799  0.5565269894699725  0.40958151954015426  1.0000
  Cl  Cl4       1.0  0.6897846571918933  0.44346902422744705  0.5904208309128478  1.0000
  Cl  Cl5       1.0  0.46883636742550994  0.9267504080463451  0.6800507265976989  1.0000
  Cl  Cl6       1.0  0.5311674765459102  0.07324319297575949  0.3199507377304869  1.0000
  Cl  Cl7       1.0  0.09604311882627307  0.7842232222860942  0.8641212585091509  1.0000
  Cl  Cl8       1.0  0.9039422871346474  0.2157800294372691  0.1358898572137193  1.0000
  O   O1        1.0  0.6068114851837052  0.4169899126496261  0.1564744331031989  1.0000
  O   O2        1.0  0.3932224796270702  0.583024598225208  0.8435074133991378  1.0000
  O   O3        1.0  0.39422270038721746  0.24380566589175598  0.9489484186992526  1.0000
  O   O4        1.0  0.6057731251820684  0.7561935647060878  0.05105017411207771  1.0000
  O   O5        1.0  0.6186798874477688  0.4018069468948012  0.3298491806944099  1.0000
  O   O6        1.0  0.3813252628882893  0.5981882625775157  0.6701484988223285  1.0000
  O   O7        1.0  0.5178117662298405  0.21512539020190494  0.48170079022537493  1.0000
  O   O8        1.0  0.48219493922029955  0.7848649939197826  0.5182982360960366  1.0000
  O   O9        1.0  0.22968313665791126  0.041548681592864484  0.8253746766811858  1.0000
  O   O10       1.0  0.7703282282167477  0.9584521574551912  0.1746320381566591  1.0000
  O   O11       1.0  0.46113456623715615  0.8232530708505051  0.926422582190888  1.0000
  O   O12       1.0  0.5388546902825553  0.1767461597473385  0.07358094013002159  1.0000
  O   O13       1.0  0.6935217255784708  0.9851258915083887  0.019634544689445473  1.0000
  O   O14       1.0  0.306445696726712  0.014907116543859898  0.9803542808080435  1.0000
  O   O15       1.0  0.9916695220901133  0.7500227454764214  0.04053983257531261  1.0000
  O   O16       1.0  0.008221596341130092  0.24993788231638794  0.9594429899836  1.0000
