data_image0
_chemical_formula_structural       Ag4H8C12S4O16
_chemical_formula_sum              "Ag4 H8 C12 S4 O16"
_cell_length_a       5.370068264449969
_cell_length_b       5.361610641280229
_cell_length_c       17.61209203485444
_cell_angle_alpha    98.09213948889375
_cell_angle_beta     97.00219399848743
_cell_angle_gamma    98.06241256512612

_space_group_name_H-M_alt    "P 1"
_space_group_IT_number       1

loop_
  _space_group_symop_operation_xyz
  'x, y, z'

loop_
  _atom_site_type_symbol
  _atom_site_label
  _atom_site_symmetry_multiplicity
  _atom_site_fract_x
  _atom_site_fract_y
  _atom_site_fract_z
  _atom_site_occupancy
  Ag  Ag1       1.0  0.1764118858333674  0.3131559026846348  0.4996272771950175  1.0000
  Ag  Ag2       1.0  0.31334443581050664  0.6764049061036204  9.546586888101976e-06  1.0000
  Ag  Ag3       1.0  0.8235904329580422  0.6868518613728726  0.5003731385533072  1.0000
  Ag  Ag4       1.0  0.6866547212279174  0.3235741866548665  0.9999890319581297  1.0000
  H   H1        1.0  0.8188538414664278  0.3469641101154508  0.63421890684765  1.0000
  H   H2        1.0  0.21283331471678926  0.18514651137161306  0.8659906412148999  1.0000
  H   H3        1.0  0.1811423966986183  0.6530303457324818  0.3657801659344173  1.0000
  H   H4        1.0  0.7871654841160166  0.8148517120373955  0.13400811698834053  1.0000
  H   H5        1.0  0.7005325506589274  0.950593076102713  0.7499223781809619  1.0000
  H   H6        1.0  0.2994559670608297  0.049411132074979484  0.2500784753704366  1.0000
  H   H7        1.0  0.9968154736576764  0.24687016446828378  0.7501611106909607  1.0000
  H   H8        1.0  0.0031914976201506164  0.7531317287582838  0.2498375552255823  1.0000
  C   C1        1.0  0.5463886913505647  0.7964740717353604  0.7499888517192304  1.0000
  C   C2        1.0  0.4536096650297737  0.20354336329532427  0.2500129251846772  1.0000
  C   C3        1.0  0.345408047203101  0.7435253889827963  0.6894475268065605  1.0000
  C   C4        1.0  0.5541673092756199  0.656200365932257  0.8105898165657379  1.0000
  C   C5        1.0  0.654600054043705  0.2564727201030408  0.3105533053090141  1.0000
  C   C6        1.0  0.44582768097486547  0.3437979874160177  0.1894110646767118  1.0000
  C   C7        1.0  0.14290157435119258  0.5443671369043203  0.6895856613779615  1.0000
  C   C8        1.0  0.3549465123366531  0.45358012785983703  0.8105282950128014  1.0000
  C   C9        1.0  0.8570918819198567  0.45563315719336833  0.3104152353332594  1.0000
  C   C10       1.0  0.645046674718877  0.5464181932926948  0.18947024089832354  1.0000
  C   C11       1.0  0.15137927406869517  0.40137228048865137  0.7500842787468756  1.0000
  C   C12       1.0  0.848616153890987  0.5986278838624911  0.24991328521078773  1.0000
  S   S1        1.0  0.3706689242928575  0.9127755271364465  0.6109365392771124  1.0000
  S   S2        1.0  0.8018199398780297  0.7596784123115228  0.8891163494509158  1.0000
  S   S3        1.0  0.629330177454193  0.0872246368292693  0.3890634441092544  1.0000
  S   S4        1.0  0.1981803086873697  0.24031795131922706  0.1108852323259981  1.0000
  O   O1        1.0  0.12476559002180211  0.0011932572972312987  0.5908490767909882  1.0000
  O   O2        1.0  0.9097357496843161  0.5331497239445612  0.9090790069835748  1.0000
  O   O3        1.0  0.8752403882664341  0.9988028952303905  0.409148752618627  1.0000
  O   O4        1.0  0.09025644438163033  0.4668428565090182  0.0909186924206224  1.0000
  O   O5        1.0  0.5807555987438918  0.122970571889077  0.6373835099526914  1.0000
  O   O6        1.0  0.9855058977834901  0.9435245670295559  0.8627848496963894  1.0000
  O   O7        1.0  0.41924834045825315  0.8770257751620176  0.3626199234444272  1.0000
  O   O8        1.0  0.014485317583414306  0.05647388386952911  0.13721701896828623  1.0000
  O   O9        1.0  0.4203039805337525  0.7281053609252126  0.5451823133338394  1.0000
  O   O10       1.0  0.6832732074549525  0.8751821358634331  0.9549008757194033  1.0000
  O   O11       1.0  0.5797025530348776  0.27189472129850156  0.45481966986749006  1.0000
  O   O12       1.0  0.3167285582405128  0.12481230321213128  0.0451012583972243  1.0000
  O   O13       1.0  0.9475712684349205  0.4974055442003761  0.6306739947608904  1.0000
  O   O14       1.0  0.36681991743324716  0.3172881358318449  0.8695074574731265  1.0000
  O   O15       1.0  0.052431944808695605  0.5025964303827735  0.3693250907693866  1.0000
  O   O16       1.0  0.6331783909578091  0.6827177204428453  0.1304904492803516  1.0000
