data_image0
_chemical_formula_structural       Zn4H44C56N12O18
_chemical_formula_sum              "Zn4 H44 C56 N12 O18"
_cell_length_a       11.040939003245644
_cell_length_b       11.504957426183093
_cell_length_c       12.2073
_cell_angle_alpha    93.59623133484105
_cell_angle_beta     107.08254365563025
_cell_angle_gamma    106.2960666790906

_space_group_name_H-M_alt    "P 1"
_space_group_IT_number       1

loop_
  _space_group_symop_operation_xyz
  'x, y, z'

loop_
  _atom_site_type_symbol
  _atom_site_label
  _atom_site_symmetry_multiplicity
  _atom_site_fract_x
  _atom_site_fract_y
  _atom_site_fract_z
  _atom_site_occupancy
  Zn  Zn1       1.0  0.6854469250922506  0.2500754529956168  0.03995829605106853  1.0000
  Zn  Zn2       1.0  0.3145541246463566  0.7499264599384361  0.9600431608677197  1.0000
  Zn  Zn3       1.0  0.7472208718982216  0.0138925712094959  0.7790216985454209  1.0000
  Zn  Zn4       1.0  0.2527779792916007  0.9861056732346682  0.2209773190269715  1.0000
  H   H1        1.0  0.9486208162735679  0.1071648437587953  0.9911573262159764  1.0000
  H   H2        1.0  0.051378347672873345  0.8928343178078464  0.008841009485038907  1.0000
  H   H3        1.0  0.9921914114849173  0.0394353491838544  0.8957819560257789  1.0000
  H   H4        1.0  0.007807752461523998  0.9605638123827803  0.1042180180391625  1.0000
  H   H5        1.0  0.0772778253112492  0.5304260359223605  0.9409388563344194  1.0000
  H   H6        1.0  0.9227222769050343  0.4695758770116925  0.05906234884425737  1.0000
  H   H7        1.0  0.03755716585983752  0.3226427686116224  0.004690805102669106  1.0000
  H   H8        1.0  0.9624429363564388  0.6773591443224305  0.9953104000760079  1.0000
  H   H9        1.0  0.23599006505403247  0.2639634385927536  0.11705594012580181  1.0000
  H   H10       1.0  0.7640097244056392  0.7360375572188289  0.8829434893783628  1.0000
  H   H11       1.0  0.4644879299963165  0.41780064496384745  0.1665259715746856  1.0000
  H   H12       1.0  0.5355102864277937  0.5821985166027872  0.833470474022299  1.0000
  H   H13       1.0  0.6823029468927757  0.5865264175492868  0.2140207071999853  1.0000
  H   H14       1.0  0.3176968425668889  0.4134745782622887  0.7859762647582825  1.0000
  H   H15       1.0  0.8289322791928698  0.8273563589022572  0.21085474361582615  1.0000
  H   H16       1.0  0.17106814503251397  0.1726437197868549  0.7891431619539162  1.0000
  H   H17       1.0  0.7617273582433696  0.0099718726406692  0.15707573453884288  1.0000
  H   H18       1.0  0.23827117093735248  0.990028206048443  0.8429241250965873  1.0000
  H   H19       1.0  0.5898106407145675  0.9927988330370782  0.1095551921335982  1.0000
  H   H20       1.0  0.4101882104752619  0.0071994114070861  0.8904479213486169  1.0000
  H   H21       1.0  0.9520001570126339  0.2641514486995575  0.7990385950810932  1.0000
  H   H22       1.0  0.047998694177195544  0.7358467957445997  0.2009628800371885  1.0000
  H   H23       1.0  0.948286639842891  0.4753363232598318  0.7530429209512448  1.0000
  H   H24       1.0  0.05171126382460761  0.5246619211843253  0.2469583024269326  1.0000
  H   H25       1.0  0.7269989214584741  0.5050731022997539  0.6595189249922768  1.0000
  H   H26       1.0  0.2729996169747437  0.4949242250219399  0.3404807744514855  1.0000
  H   H27       1.0  0.5190347510000777  0.3244871019033013  0.6115384158957511  1.0000
  H   H28       1.0  0.4809637874331401  0.6755102254183925  0.3884571876381884  1.0000
  H   H29       1.0  0.3255840172555651  0.1297425647804005  0.5585185836306508  1.0000
  H   H30       1.0  0.67441799851035  0.8702538454188158  0.44147952791703904  1.0000
  H   H31       1.0  0.21885531670629627  0.8806631854787454  0.5478430081511833  1.0000
  H   H32       1.0  0.7811448040149642  0.1193332247204779  0.4521554190982685  1.0000
  H   H33       1.0  0.5115744877607611  0.7588042054697155  0.6558346989986746  1.0000
  H   H34       1.0  0.4884249981947804  0.2411931218519712  0.3441652521851921  1.0000
  H   H35       1.0  0.3407349564329394  0.7095877451194212  0.5685766686091612  1.0000
  H   H36       1.0  0.6592654770449329  0.2904095822022725  0.431424353496773  1.0000
  H   H37       1.0  0.8875139855803268  0.8826184905895573  0.44981223692672506  1.0000
  H   H38       1.0  0.112486125888438  0.1173806709770773  0.5501871696963505  1.0000
  H   H39       1.0  0.950706998723632  0.7234518855322776  0.35707999047792066  1.0000
  H   H40       1.0  0.04928995742153572  0.27654635891188667  0.6429209811601595  1.0000
  H   H41       1.0  0.05889832858873943  0.5889650462029792  0.4769185491686088  1.0000
  H   H42       1.0  0.9410980020431979  0.4110313639962442  0.5230805094843591  1.0000
  H   H43       1.0  0.10455170322093471  0.6198142948017207  0.690698689366144  1.0000
  H   H44       1.0  0.8954528238503769  0.3801867010098618  0.3093019988385279  1.0000
  C   C1        1.0  0.15871352219926393  0.5001068841125687  0.9911979555584195  1.0000
  C   C2        1.0  0.8412865800170195  0.4998950288214843  0.00880161125633086  1.0000
  C   C3        1.0  0.13816150601689972  0.38550692847132956  0.026187153046450407  1.0000
  C   C4        1.0  0.8618385961993765  0.6144949844627234  0.9738132329502635  1.0000
  C   C5        1.0  0.24843237422985712  0.3539157277925398  0.09012512970544151  1.0000
  C   C6        1.0  0.7515664677074767  0.6460852680190428  0.9098748672405746  1.0000
  C   C7        1.0  0.3752249450334446  0.438576220327505  0.11760024905175473  1.0000
  C   C8        1.0  0.6247745316696083  0.5614238583616071  0.8823990431418095  1.0000
  C   C9        1.0  0.38840030912506046  0.5525754607494306  0.08031914841924248  1.0000
  C   C10       1.0  0.6116004278569348  0.4474255350621519  0.9196797136430561  1.0000
  C   C11       1.0  0.5159704747289453  0.649071418788651  0.10758807761313703  1.0000
  C   C12       1.0  0.4840293147307193  0.3509295770229244  0.8924105327090571  1.0000
  C   C13       1.0  0.6481028782531341  0.657588735188348  0.17269805505910094  1.0000
  C   C14       1.0  0.35189753671975404  0.3424140948681753  0.8273024682481989  1.0000
  C   C15       1.0  0.7234762518198607  0.776155245522034  0.1710514228207742  1.0000
  C   C16       1.0  0.27652479791874635  0.223846667412019  0.8289475765521105  1.0000
  C   C17       1.0  0.665886730168701  0.9580967529324553  0.09159891534334015  1.0000
  C   C18       1.0  0.33411179901202803  0.041903325756656805  0.9084017634740533  1.0000
  C   C19       1.0  0.6777762413787229  0.9856150127120173  0.9738086846681923  1.0000
  C   C20       1.0  0.3222219657928989  0.014386900222028503  0.026192017030282986  1.0000
  C   C21       1.0  0.8595788798914369  0.2833899267997424  0.7568815746295456  1.0000
  C   C22       1.0  0.14042091882072333  0.7166083176444218  0.2431193330468773  1.0000
  C   C23       1.0  0.8562297621719351  0.39908217530542345  0.7314907744057207  1.0000
  C   C24       1.0  0.14376814149556344  0.6009160691387407  0.2685088106085303  1.0000
  C   C25       1.0  0.7326216492235177  0.415152912386489  0.6790257255540126  1.0000
  C   C26       1.0  0.2673768892097002  0.5848444149352048  0.32097233552581633  1.0000
  C   C27       1.0  0.6171135826995169  0.3152342532808703  0.65222623791378  1.0000
  C   C28       1.0  0.382884642977089  0.6847621569183531  0.3477716858554629  1.0000
  C   C29       1.0  0.628186364310288  0.2012047478173571  0.6788376037026467  1.0000
  C   C30       1.0  0.37181186136631084  0.7987916623818592  0.3211603200665963  1.0000
  C   C31       1.0  0.5146700776137507  0.0896138710075292  0.6500668899030089  1.0000
  C   C32       1.0  0.48533035586412143  0.9103834563141575  0.34993167465702874  1.0000
  C   C33       1.0  0.3770434067022919  0.0658521448742633  0.5928865567548769  1.0000
  C   C34       1.0  0.622954818974307  0.9341442653249601  0.40711382456026257  1.0000
  C   C35       1.0  0.32110019109756394  0.9404109631777757  0.5853856366866168  1.0000
  C   C36       1.0  0.6789011899026391  0.059586364143918  0.414617275523348  1.0000
  C   C37       1.0  0.4135495262711473  0.7690374580149779  0.6479126991501333  1.0000
  C   C38       1.0  0.5864512199633367  0.2309607864291863  0.35208764108442386  1.0000
  C   C39       1.0  0.3726994814134201  0.7244689743539894  0.7517947800268205  1.0000
  C   C40       1.0  0.6273002987937559  0.2755347728250044  0.2482064480329385  1.0000
  C   C41       1.0  0.9515383175456692  0.8369934818405583  0.6221765425755805  1.0000
  C   C42       1.0  0.048464627237599714  0.1630084310934947  0.377823779459483  1.0000
  C   C43       1.0  0.9298822543151744  0.821721558432813  0.5024852667585904  1.0000
  C   C44       1.0  0.0701178571535905  0.17827760313382163  0.49751495904645543  1.0000
  C   C45       1.0  0.967166298377151  0.7325011329658722  0.45004012492311324  1.0000
  C   C46       1.0  0.03283097052462842  0.2674980286007624  0.5499601648435899  1.0000
  C   C47       1.0  0.02837983529293103  0.658108743630109  0.5173015781872792  1.0000
  C   C48       1.0  0.9716183903836678  0.3418876665691144  0.4826988031278532  1.0000
  C   C49       1.0  0.05286844461504363  0.6744821311270144  0.6368430722087837  1.0000
  C   C50       1.0  0.9471335526458944  0.3255197818070386  0.3631586364501019  1.0000
  C   C51       1.0  0.015607489027487981  0.7637869318613966  0.6909876702075978  1.0000
  C   C52       1.0  0.9843964032781116  0.2362149810726564  0.3090137227495262  1.0000
  C   C53       1.0  0.9062588931598512  0.9339709291777041  0.6717411691783822  1.0000
  C   C54       1.0  0.09374152181304399  0.0660319008788193  0.32825771576499113  1.0000
  C   C55       1.0  0.052756154125859225  0.7835729320775117  0.821179564414905  1.0000
  C   C56       1.0  0.9472448956127477  0.2164289808565414  0.17882107332191308  1.0000
  N   N1        1.0  0.2806337104533867  0.5820160092308129  0.01729947478809628  1.0000
  N   N2        1.0  0.7193670265286086  0.41798498658076977  0.9827002064561653  1.0000
  N   N3        1.0  0.5121719497784838  0.7555493378157366  0.06899640246876969  1.0000
  N   N4        1.0  0.48782909996012336  0.2444525751183164  0.931002596904122  1.0000
  N   N5        1.0  0.6381906240194369  0.8312192787553344  0.10770758900468994  1.0000
  N   N6        1.0  0.36180916544022773  0.1687817170562482  0.8922910213175044  1.0000
  N   N7        1.0  0.7485398440526722  0.18726265199435943  0.7317352204734107  1.0000
  N   N8        1.0  0.2514599546594809  0.8127355924498048  0.26826486802104205  1.0000
  N   N9        1.0  0.5400642470970851  0.9846896361375316  0.6757342190554283  1.0000
  N   N10       1.0  0.45993713390311797  0.0153076911841623  0.3242637780627504  1.0000
  N   N11       1.0  0.422270764780187  0.8952876204210868  0.6354442046660296  1.0000
  N   N12       1.0  0.5777290339319663  0.10471062402307751  0.3645558838284302  1.0000
  O   O1        1.0  0.6747428106855509  0.0913371441328721  0.948874328696185  1.0000
  O   O2        1.0  0.32525634400839465  0.908664768801181  0.051127443924357946  1.0000
  O   O3        1.0  0.6952816943510951  0.9087950001922422  0.9064250624802385  1.0000
  O   O4        1.0  0.3047174603428573  0.0912069127418107  0.09357589095834132  1.0000
  O   O5        1.0  0.3496329692989306  0.6128065619913343  0.756943201104882  1.0000
  O   O6        1.0  0.6503668201607411  0.3871944338202482  0.24305868594517221  1.0000
  O   O7        1.0  0.36554773387266687  0.8065101651082359  0.8238287072297865  1.0000
  O   O8        1.0  0.6344561584329256  0.19349174782581713  0.1761726857273445  1.0000
  O   O9        1.0  0.7908712872521448  0.8936542252980288  0.6862188073566456  1.0000
  O   O10       1.0  0.2091288149641315  0.1063476876360241  0.3137791210941785  1.0000
  O   O11       1.0  0.9760832534966681  0.0438384541730841  0.6890117813254193  1.0000
  O   O12       1.0  0.023916213953889147  0.9561643758834465  0.31098849024178327  1.0000
  O   O13       1.0  0.030547062501469244  0.8722678463678548  0.8706717884985765  1.0000
  O   O14       1.0  0.969453039714807  0.1277340665661981  0.12932859749813727  1.0000
  O   O15       1.0  0.10773351959528553  0.7101545268072655  0.8756341979774903  1.0000
  O   O16       1.0  0.8922709982235376  0.2898492203717282  0.12436910796474626  1.0000
  O   O17       1.0  0.9413172184937934  0.094044489670928  0.9063739773572409  1.0000
  O   O18       1.0  0.05868131068692862  0.9059555890181841  0.09362506309622629  1.0000
