data_image0
_chemical_formula_structural       Zn3H30C18O24
_chemical_formula_sum              "Zn3 H30 C18 O24"
_cell_length_a       6.480508657677122
_cell_length_b       10.746469282723476
_cell_length_c       10.746480466652104
_cell_angle_alpha    75.14957918377675
_cell_angle_beta     73.11761927885796
_cell_angle_gamma    73.11775158647295

_space_group_name_H-M_alt    "P 1"
_space_group_IT_number       1

loop_
  _space_group_symop_operation_xyz
  'x, y, z'

loop_
  _atom_site_type_symbol
  _atom_site_label
  _atom_site_symmetry_multiplicity
  _atom_site_fract_x
  _atom_site_fract_y
  _atom_site_fract_z
  _atom_site_occupancy
  Zn  Zn1       1.0  1.1863533871503403e-06  0.5544437316345848  0.44555840132949964  1.0000
  Zn  Zn2       1.0  0.23241690890343134  0.0061612743182451035  0.47317108004709524  1.0000
  Zn  Zn3       1.0  0.7675855493741682  0.5268291517363508  0.9938391837585956  1.0000
  H   H1        1.0  0.20209676677860963  0.7417563650283866  0.9945137505907626  1.0000
  H   H2        1.0  0.7979009263274291  0.0054861042657208025  0.25824084746417253  1.0000
  H   H3        1.0  0.9999963544143355  0.1583126709973897  0.8416873361273647  1.0000
  H   H4        1.0  0.499999459212788  0.8964792113227131  0.10352152563105942  1.0000
  H   H5        1.0  0.2988371292945261  0.31244275054700665  0.9529092401612618  1.0000
  H   H6        1.0  0.7011596200728789  0.04709336779163921  0.6875577121100138  1.0000
  H   H7        1.0  0.03113905604809732  0.22095627685690994  0.3520144152729473  1.0000
  H   H8        1.0  0.968863063048552  0.6479854433255666  0.7790432812282265  1.0000
  H   H9        1.0  0.8561303334732883  0.21174233928844194  0.5003466188723922  1.0000
  H   H10       1.0  0.14387275554090453  0.4996541438101971  0.7882568218409749  1.0000
  H   H11       1.0  0.9301080187059653  0.8770911321983091  0.4615100905430016  1.0000
  H   H12       1.0  0.06989868323084641  0.5384895266391895  0.12290670137340241  1.0000
  H   H13       1.0  0.9151297032862974  0.8761116822620489  0.6133438858747273  1.0000
  H   H14       1.0  0.08486956290791882  0.38665553978042766  0.1238900096291929  1.0000
  H   H15       1.0  0.5902615173331682  0.7997099068992525  0.44741002993234275  1.0000
  H   H16       1.0  0.4097458612723486  0.5525892823878493  0.20028844608072663  1.0000
  H   H17       1.0  0.4310597223365989  0.7982041380303144  0.5959296246823416  1.0000
  H   H18       1.0  0.5689455982151941  0.4040698001929071  0.2017950195777092  1.0000
  H   H19       1.0  0.5550178613709917  0.1530827768465954  0.3375898267299109  1.0000
  H   H20       1.0  0.44498203086202176  0.6624095689383863  0.8469176911249295  1.0000
  H   H21       1.0  0.541005092380864  0.1299059808340459  0.49212806085026284  1.0000
  H   H22       1.0  0.4589930186463534  0.5078725105160942  0.8700963596364918  1.0000
  H   H23       1.0  0.3192554544715449  0.5437432153871525  0.5742005873940672  1.0000
  H   H24       1.0  0.6807478880281014  0.42580031841093546  0.456256318325167  1.0000
  H   H25       1.0  0.30342382777830323  0.6885225812348638  0.4913578615658097  1.0000
  H   H26       1.0  0.6965794655257939  0.5086422303527626  0.311476443361862  1.0000
  H   H27       1.0  0.8577436352123798  0.538077329862375  0.6998804406645223  1.0000
  H   H28       1.0  0.14225332187960762  0.3001226592007669  0.461923731841978  1.0000
  H   H29       1.0  0.6640605987362065  0.5051817210035026  0.652908090496027  1.0000
  H   H30       1.0  0.33593771460699173  0.34709328116005617  0.4948191716487998  1.0000
  C   C1        1.0  4.008259523426789e-06  0.7503728195465625  0.24961998409862235  1.0000
  C   C2        1.0  0.9999996695765246  0.8629543928214147  0.1370438963223109  1.0000
  C   C3        1.0  0.11427746667835242  0.8415806921730323  0.00945462123563353  1.0000
  C   C4        1.0  0.8857187862904966  0.9905447424916929  0.15841779781946763  1.0000
  C   C5        1.0  0.11296747147999041  0.9474257523411963  0.9023310898116323  1.0000
  C   C6        1.0  0.8870244719687576  0.09766957315955689  0.052574919459907284  1.0000
  C   C7        1.0  0.9999985587211739  0.0753288753866244  0.9246708832370348  1.0000
  C   C8        1.0  0.22672108449850023  0.9228033362469146  0.7644931488515714  1.0000
  C   C9        1.0  0.7732768750787284  0.2355082062634253  0.07719418119094006  1.0000
  C   C10       1.0  0.264090015737942  0.121315190790078  0.18188605653402595  1.0000
  C   C11       1.0  0.7359063160940807  0.8181151494025795  0.8786839541498712  1.0000
  C   C12       1.0  0.3853915647410063  0.10623971120929102  0.042916397535449784  1.0000
  C   C13       1.0  0.614605704793959  0.9570846341119367  0.8937598558936135  1.0000
  C   C14       1.0  0.4999992538184159  0.9793193018841535  0.02068192018774092  1.0000
  C   C15       1.0  0.38693270626678355  0.2130058868379905  0.9365179028838286  1.0000
  C   C16       1.0  0.6130659544729227  0.06348188961003838  0.7869958282568423  1.0000
  C   C17       1.0  0.4999996147572219  0.1919469750400609  0.8080544946245002  1.0000
  C   C18       1.0  0.4999976073010756  0.30580744430079687  0.6941918210719183  1.0000
  O   O1        1.0  0.11126402087750616  0.6331707328308624  0.23253212104796728  1.0000
  O   O2        1.0  0.8887541578475651  0.7674538187258476  0.3668264957123599  1.0000
  O   O3        1.0  0.3575530170617966  0.8102090098545389  0.7489629824204942  1.0000
  O   O4        1.0  0.6424448885791991  0.25103788108096126  0.18979214106953193  1.0000
  O   O5        1.0  0.1827163521138147  0.017712385642703103  0.6698426865709524  1.0000
  O   O6        1.0  0.8172860385313856  0.3301575400544721  0.9822868742017763  1.0000
  O   O7        1.0  0.29670882636884954  0.018878510122711106  0.2713013061618313  1.0000
  O   O8        1.0  0.7032897473013335  0.7287003268805777  0.9811204945909184  1.0000
  O   O9        1.0  0.13373847839193334  0.23235252073710908  0.20374243709621717  1.0000
  O   O10       1.0  0.8662560047400945  0.7962598710239064  0.7676479430163784  1.0000
  O   O11       1.0  0.5692091279897086  0.2832667697850297  0.5753008679269415  1.0000
  O   O12       1.0  0.4307893612268359  0.4246991380260283  0.7167308422607095  1.0000
  O   O13       1.0  0.0136791045564379  0.1991650634781195  0.453301999462852  1.0000
  O   O14       1.0  0.9863218241864402  0.5466990143615293  0.8008352884956483  1.0000
  O   O15       1.0  0.9493864055203362  0.9270958152481085  0.5207217095682497  1.0000
  O   O16       1.0  0.05061323630719984  0.4792774766816875  0.07290443479573847  1.0000
  O   O17       1.0  0.4345675995268651  0.8084846671623606  0.49806223789728005  1.0000
  O   O18       1.0  0.5654387674254906  0.5019364841752036  0.19151599732737176  1.0000
  O   O19       1.0  0.5126229140990759  0.09464126160199271  0.4250744994480372  1.0000
  O   O20       1.0  0.48737756782284697  0.5749260395101886  0.9053584542279653  1.0000
  O   O21       1.0  0.2421579067761428  0.6090993665683655  0.5096958302343142  1.0000
  O   O22       1.0  0.7578444188112811  0.49030567118020235  0.3909001438538696  1.0000
  O   O23       1.0  0.7857761979164406  0.5511952809036486  0.6243312308885864  1.0000
  O   O24       1.0  0.21421943582067365  0.3756715157021659  0.4488067227411252  1.0000
