data_image0
_chemical_formula_structural       K2H8C18O12F2
_chemical_formula_sum              "K2 H8 C18 O12 F2"
_cell_length_a       4.237586345487048
_cell_length_b       10.625024999595443
_cell_length_c       10.9705551640017
_cell_angle_alpha    89.99994334498959
_cell_angle_beta     90.00003493683938
_cell_angle_gamma    98.18479028955151

_space_group_name_H-M_alt    "P 1"
_space_group_IT_number       1

loop_
  _space_group_symop_operation_xyz
  'x, y, z'

loop_
  _atom_site_type_symbol
  _atom_site_label
  _atom_site_symmetry_multiplicity
  _atom_site_fract_x
  _atom_site_fract_y
  _atom_site_fract_z
  _atom_site_occupancy
  K   K1        1.0  0.8274882883380387  0.5059755986733236  0.3325400012988808  1.0000
  K   K2        1.0  0.32748642459471716  0.005975333402574298  0.6674594197396291  1.0000
  H   H1        1.0  0.12548724379285403  0.7597652671122006  0.4983035172975292  1.0000
  H   H2        1.0  0.6254866528314693  0.25976521817739945  0.5016965290406078  1.0000
  H   H3        1.0  0.7815867752908972  0.8314164949696234  0.8368743922206721  1.0000
  H   H4        1.0  0.28158360617418055  0.3314148140311346  0.16312562253668264  1.0000
  H   H5        1.0  0.5708929285978926  0.790094227282381  0.12977070083793052  1.0000
  H   H6        1.0  0.0708862663938135  0.29009281111090246  0.8702293042598799  1.0000
  H   H7        1.0  0.23593817491486394  0.1345448450375599  0.10928796075834411  1.0000
  H   H8        1.0  0.7359313021799992  0.6345445631221905  0.8907131408279911  1.0000
  C   C1        1.0  0.05897367662744559  0.08332216873687058  0.2901803596707637  1.0000
  C   C2        1.0  0.5589686020262691  0.583321112611543  0.7098198378629023  1.0000
  C   C3        1.0  0.8543164374565179  0.991733076381443  0.35552311518599583  1.0000
  C   C4        1.0  0.35431185030957124  0.4917318800902136  0.6444758535034367  1.0000
  C   C5        1.0  0.6710727235136319  0.8876824677162245  0.2992443139616228  1.0000
  C   C6        1.0  0.17107056821672015  0.3876812195005071  0.7007547106239616  1.0000
  C   C7        1.0  0.70518396013955  0.872894347630236  0.17345214942862705  1.0000
  C   C8        1.0  0.2051779100255899  0.3728948752694946  0.8265487200562591  1.0000
  C   C9        1.0  0.9063641329783394  0.9619404215522136  0.10549567912786272  1.0000
  C   C10       1.0  0.40635344752920594  0.4619408790721378  0.8945051527676713  1.0000
  C   C11       1.0  0.078785404864341  0.0668157346212084  0.16397891692413685  1.0000
  C   C12       1.0  0.5787713809821043  0.5668154984733391  0.8360213007660207  1.0000
  C   C13       1.0  0.2668750717339492  0.19199180172459754  0.3519319930742171  1.0000
  C   C14       1.0  0.766870252687582  0.6919917559680896  0.6480690614292471  1.0000
  C   C15       1.0  0.4359842399133811  0.7911928335300471  0.3627871512515527  1.0000
  C   C16       1.0  0.9359858473677108  0.2911917054505436  0.6372111140777079  1.0000
  C   C17       1.0  0.9431697562753171  0.9457362731132689  0.9714217866516749  1.0000
  C   C18       1.0  0.44316033601325705  0.44573756747222143  0.028579980572352802  1.0000
  O   O1        1.0  0.333599247397423  0.29773047365214467  0.2966011138341926  1.0000
  O   O2        1.0  0.8335921376950921  0.7977303722585277  0.7033980332039819  1.0000
  O   O3        1.0  0.373461974782856  0.16995456986908405  0.4571764617354931  1.0000
  O   O4        1.0  0.8734641045521272  0.6699546324813423  0.5428246381911137  1.0000
  O   O5        1.0  0.3153750121985367  0.8295567809608354  0.4648603491708487  1.0000
  O   O6        1.0  0.8153741298703779  0.32955574893874473  0.5351396751464678  1.0000
  O   O7        1.0  0.3555721947752488  0.6850083047421761  0.31650967992315776  1.0000
  O   O8        1.0  0.8555755540770206  0.18500523266315128  0.6834886670697176  1.0000
  O   O9        1.0  0.7424346874667902  0.8484030198196063  0.927587200055932  1.0000
  O   O10       1.0  0.24242498898340165  0.34840332107707883  0.072413701152243  1.0000
  O   O11       1.0  0.1398945691778408  0.014982990404099896  0.9094106861978377  1.0000
  O   O12       1.0  0.6398836562192542  0.5149815755710277  0.09058868300660093  1.0000
  F   F1        1.0  0.8365892139571188  0.0031047434479133983  0.4780661475631193  1.0000
  F   F2        1.0  0.3365915281151075  0.5031028702093963  0.5219332782888132  1.0000
