data_image0
_chemical_formula_structural       Zn8H8C48O26F8
_chemical_formula_sum              "Zn8 H8 C48 O26 F8"
_cell_length_a       15.96292211401366
_cell_length_b       15.962772058809552
_cell_length_c       16.862706326482567
_cell_angle_alpha    63.36714847896932
_cell_angle_beta     63.36691286216834
_cell_angle_gamma    90.47204015184644

_space_group_name_H-M_alt    "P 1"
_space_group_IT_number       1

loop_
  _space_group_symop_operation_xyz
  'x, y, z'

loop_
  _atom_site_type_symbol
  _atom_site_label
  _atom_site_symmetry_multiplicity
  _atom_site_fract_x
  _atom_site_fract_y
  _atom_site_fract_z
  _atom_site_occupancy
  Zn  Zn1       1.0  0.20568272528200993  0.8084648964902286  0.5878200056553665  1.0000
  Zn  Zn2       1.0  0.7943167800545438  0.19153653216461214  0.41218557078404655  1.0000
  Zn  Zn3       1.0  0.8084657429756563  0.20568398994315365  0.5878174928402228  1.0000
  Zn  Zn4       1.0  0.19153803284982027  0.7943203564518556  0.41218088981818085  1.0000
  Zn  Zn5       1.0  0.20997655853278732  0.6086088261332633  0.5872772652659247  1.0000
  Zn  Zn6       1.0  0.7900187525541468  0.3913926089138329  0.41272415353697767  1.0000
  Zn  Zn7       1.0  0.6086075111719892  0.2099802367995096  0.5872753949689408  1.0000
  Zn  Zn8       1.0  0.3913895247200117  0.790019748807232  0.4127259072731632  1.0000
  H   H1        1.0  0.1202104815869732  0.7512646109901058  0.8256484534395406  1.0000
  H   H2        1.0  0.879787706720883  0.24873174192887149  0.17435627073435703  1.0000
  H   H3        1.0  0.7512633784904421  0.12020149339483771  0.8256486845038251  1.0000
  H   H4        1.0  0.2487303065627913  0.879788324102165  0.17435893298352304  1.0000
  H   H5        1.0  0.02704371797042881  0.4651441719456315  0.796855473585246  1.0000
  H   H6        1.0  0.9729539100435075  0.5348500097964363  0.2031468485932636  1.0000
  H   H7        1.0  0.4651464013747244  0.027043731479999198  0.7968564745022843  1.0000
  H   H8        1.0  0.5348481578155386  0.9729548038363447  0.2031441178352933  1.0000
  C   C1        1.0  0.9508731868706803  0.43972845823464723  0.10927939966529013  1.0000
  C   C2        1.0  0.6194307131539672  0.10925296915391408  0.7756821531580368  1.0000
  C   C3        1.0  0.8907425668122428  0.38056266039397  0.22432189634348984  1.0000
  C   C4        1.0  0.10925684531265037  0.6194329791414718  0.775677274539873  1.0000
  C   C5        1.0  0.38056405737178534  0.890738307604181  0.22432142207847489  1.0000
  C   C6        1.0  0.09051823517077658  0.9094887776321059  0.49999559011804695  1.0000
  C   C7        1.0  0.9094824851358466  0.09051993561472932  0.49999452816265216  1.0000
  C   C8        1.0  0.9081943339983808  0.40855009971392775  0.5001059881888138  1.0000
  C   C9        1.0  0.04912697473181996  0.5602700786174425  0.8907217857809894  1.0000
  C   C10       1.0  0.09180440333735625  0.5914564199433983  0.49989242120989247  1.0000
  C   C11       1.0  0.4094091386615729  0.590579504255295  0.5000004161699961  1.0000
  C   C12       1.0  0.590584918331146  0.409419765910812  0.49999533348664443  1.0000
  C   C13       1.0  0.5914547750668576  0.0918042297366739  0.4998919502016716  1.0000
  C   C14       1.0  0.40854512798956233  0.9081986705104442  0.5001033465920415  1.0000
  C   C15       1.0  0.4397319266759539  0.9508704096479476  0.10927742485439043  1.0000
  C   C16       1.0  0.4729174233246384  0.9728957222309588  0.5001520778330855  1.0000
  C   C17       1.0  0.5270886036940396  0.027106464014934797  0.499839149969496  1.0000
  C   C18       1.0  0.9732472362798532  0.026758663943297706  0.49999934466025986  1.0000
  C   C19       1.0  0.026753976548093417  0.9732493047973777  0.5000003686917578  1.0000
  C   C20       1.0  0.027101815324854853  0.5270921044766155  0.49984206385503405  1.0000
  C   C21       1.0  0.9728901514589126  0.4729180306410755  0.5001600531375485  1.0000
  C   C22       1.0  0.5267540534150896  0.4732339342752496  0.4999978907432449  1.0000
  C   C23       1.0  0.560265700128454  0.049123770887071296  0.8907254913729117  1.0000
  C   C24       1.0  0.4732312516056041  0.5267559044556123  0.49999725312949267  1.0000
  C   C25       1.0  0.08760674879251698  0.7013164197257635  0.9075469659885014  1.0000
  C   C26       1.0  0.9123893423905327  0.29867993638934115  0.09245567936714148  1.0000
  C   C27       1.0  0.7013119758102634  0.087595935344595  0.9075523577368966  1.0000
  C   C28       1.0  0.2986822295834628  0.9123931654083889  0.09245119169941757  1.0000
  C   C29       1.0  0.9977456404407193  0.42079037745536146  0.879113337128913  1.0000
  C   C30       1.0  0.0022507153360607473  0.5792016212999727  0.12089222663529846  1.0000
  C   C31       1.0  0.4207944638947296  0.9977479778995358  0.8791115494590326  1.0000
  C   C32       1.0  0.5792023307648576  0.0022483815760523003  0.12088961065710177  1.0000
  C   C33       1.0  0.08417634500632694  0.7376151218852769  0.9680719191541552  1.0000
  C   C34       1.0  0.9158238944252729  0.26237833388140075  0.03193138403556628  1.0000
  C   C35       1.0  0.7376143657679607  0.08417127379252778  0.9680678363687032  1.0000
  C   C36       1.0  0.262383316713752  0.9158258103550665  0.031933827270648814  1.0000
  C   C37       1.0  0.9565274050441984  0.32447708856170016  0.9246189283509235  1.0000
  C   C38       1.0  0.043472326142193714  0.6755170960194902  0.07538250240185108  1.0000
  C   C39       1.0  0.3244776714806292  0.9565289764049751  0.9246173710328446  1.0000
  C   C40       1.0  0.6755165105517733  0.04346810783894741  0.07538340212087036  1.0000
  C   C41       1.0  0.997742328680637  0.5388167782003279  0.06218683568411634  1.0000
  C   C42       1.0  0.002258861507563446  0.46118031309323726  0.9378121541480834  1.0000
  C   C43       1.0  0.5388181485230703  0.9977328756216367  0.062190755116034516  1.0000
  C   C44       1.0  0.4611770003700784  0.0022598534159428  0.9378120452555476  1.0000
  C   C45       1.0  0.9545427968349357  0.3989784967318358  0.04862063457843374  1.0000
  C   C46       1.0  0.04545394335688259  0.6010149603382188  0.9513811840768578  1.0000
  C   C47       1.0  0.3989798929726547  0.9545441224419307  0.048620335390594925  1.0000
  C   C48       1.0  0.6010150158976088  0.04544498167152969  0.9513817288062183  1.0000
  O   O1        1.0  0.24963661654552993  0.7503617901107873  0.5000022070498387  1.0000
  O   O2        1.0  0.708554531197535  0.10889657931024742  0.7297941465619713  1.0000
  O   O3        1.0  0.8400824604022928  0.4233899001130865  0.2700270167166393  1.0000
  O   O4        1.0  0.1599094837417283  0.5766093575574942  0.7299743767561178  1.0000
  O   O5        1.0  0.42338791640717244  0.8400831527080399  0.2700237553920669  1.0000
  O   O6        1.0  0.5766079359625208  0.15990957969000158  0.7299775597400069  1.0000
  O   O7        1.0  0.8910960028120771  0.29144393798439694  0.27020570286096995  1.0000
  O   O8        1.0  0.10890020698274576  0.7085582325981574  0.7297908730259691  1.0000
  O   O9        1.0  0.29144202102011013  0.8910961528271245  0.2702074654769857  1.0000
  O   O10       1.0  0.7503609796403836  0.24964036667287098  0.5000014971876535  1.0000
  O   O11       1.0  0.09341705220902705  0.8628554528901161  0.45453217612778457  1.0000
  O   O12       1.0  0.9065841436855068  0.1371524989518562  0.5454758539074119  1.0000
  O   O13       1.0  0.8908456865917884  0.446795223080123  0.42630641392452123  1.0000
  O   O14       1.0  0.10915620828248511  0.5532018727809671  0.5736904966193703  1.0000
  O   O15       1.0  0.45063790481740534  0.681211273609179  0.44798558038654324  1.0000
  O   O16       1.0  0.5493604315111966  0.31878291632155964  0.5520128803572671  1.0000
  O   O17       1.0  0.6792796923526082  0.124584733700047  0.42631769576277617  1.0000
  O   O18       1.0  0.3207246631192504  0.8754218031846718  0.5736735841102527  1.0000
  O   O19       1.0  0.8754134156721635  0.3207187781201029  0.5736894500579549  1.0000
  O   O20       1.0  0.12458717755597355  0.6792841122099418  0.42631089603302996  1.0000
  O   O21       1.0  0.13715560803124302  0.9065958191009571  0.5454587802810306  1.0000
  O   O22       1.0  0.862856218708764  0.09341795778292553  0.45454050530318535  1.0000
  O   O23       1.0  0.5531985156912852  0.109155018592368  0.573695535694547  1.0000
  O   O24       1.0  0.446806184622453  0.8908420822612656  0.4262995922329007  1.0000
  O   O25       1.0  0.3187847405540013  0.5493653059773607  0.5520114842308812  1.0000
  O   O26       1.0  0.6812066880876415  0.45063467326543366  0.44799160109771896  1.0000
  F   F1        1.0  0.9536415311024342  0.2869647898677243  0.8680456018775896  1.0000
  F   F2        1.0  0.04635890356050969  0.7130293980739424  0.13195434363567654  1.0000
  F   F3        1.0  0.28696885357896923  0.9536381736882619  0.8680459705716852  1.0000
  F   F4        1.0  0.7130268701224409  0.04635674101081829  0.1319521032097056  1.0000
  F   F5        1.0  0.12006441695438506  0.8332500712915092  0.9267481156794727  1.0000
  F   F6        1.0  0.8799396540833156  0.1667419414950899  0.07325239737732403  1.0000
  F   F7        1.0  0.8332462809174642  0.12007036424476782  0.9267445852949617  1.0000
  F   F8        1.0  0.1667455632456694  0.879941959209212  0.0732513201029547  1.0000
