data_image0
_chemical_formula_structural       Cu4H24C28I4N8
_chemical_formula_sum              "Cu4 H24 C28 I4 N8"
_cell_length_a       4.224034839961869
_cell_length_b       11.882185422162925
_cell_length_c       15.760624709269193
_cell_angle_alpha    89.99980000977513
_cell_angle_beta     98.41937213139772
_cell_angle_gamma    89.99944528491348

_space_group_name_H-M_alt    "P 1"
_space_group_IT_number       1

loop_
  _space_group_symop_operation_xyz
  'x, y, z'

loop_
  _atom_site_type_symbol
  _atom_site_label
  _atom_site_symmetry_multiplicity
  _atom_site_fract_x
  _atom_site_fract_y
  _atom_site_fract_z
  _atom_site_occupancy
  Cu  Cu1       1.0  0.7214153472772081  0.4515197626836668  0.4577989042125948  1.0000
  Cu  Cu2       1.0  0.27854170135511686  0.9515213308879851  0.0421978138801791  1.0000
  Cu  Cu3       1.0  0.2785752519576192  0.5484890411736315  0.542205757301005  1.0000
  Cu  Cu4       1.0  0.7214749081199798  0.04848578975623499  0.9577963968427667  1.0000
  H   H1        1.0  0.3177003758817918  0.2735762486480837  0.3319864234642082  1.0000
  H   H2        1.0  0.6822711132335898  0.7735825008944414  0.16800557885195386  1.0000
  H   H3        1.0  0.6822926864010556  0.7264266640262845  0.6680208679852055  1.0000
  H   H4        1.0  0.31772381841792446  0.22642209501459826  0.8319827470518957  1.0000
  H   H5        1.0  0.3213935437343168  0.2689083031010284  0.1693192272285273  1.0000
  H   H6        1.0  0.6786020086025389  0.7689095721331255  0.33067368479782283  1.0000
  H   H7        1.0  0.678606663078419  0.7310912431789448  0.8306870617510638  1.0000
  H   H8        1.0  0.3213929406258202  0.23108660781412022  0.6693152762820558  1.0000
  H   H9        1.0  0.6044147391229161  0.4054099183343993  0.0479056126620421  1.0000
  H   H10       1.0  0.39558668813899095  0.9054048749337936  0.452092879278119  1.0000
  H   H11       1.0  0.395592647147609  0.5945854199520185  0.9521009441708727  1.0000
  H   H12       1.0  0.6044107764876615  0.09458709701785749  0.5479006172169745  1.0000
  H   H13       1.0  0.9665972963014298  0.5726175712560887  0.04771213467362399  1.0000
  H   H14       1.0  0.033404131057388  0.0726151157469914  0.45229355532114807  1.0000
  H   H15       1.0  0.0334004999680317  0.4273786086458458  0.9522934298693356  1.0000
  H   H16       1.0  0.9666054214155438  0.9273785393633033  0.5477048337061275  1.0000
  H   H17       1.0  0.20385571804980174  0.6626609634062673  0.18212888251319725  1.0000
  H   H18       1.0  0.7961408430498407  0.1626673814275534  0.31787893317542165  1.0000
  H   H19       1.0  0.7961396152191754  0.33733774129449756  0.8178740521000307  1.0000
  H   H20       1.0  0.2038615823393286  0.8373304816715998  0.6821210934809727  1.0000
  H   H21       1.0  0.08134883257932302  0.5950621609115883  0.3245160141935344  1.0000
  H   H22       1.0  0.9186376019454272  0.0950738819461634  0.17548905891093364  1.0000
  H   H23       1.0  0.9186513217999633  0.4049415933532145  0.675488369296005  1.0000
  H   H24       1.0  0.0813624127935242  0.9049281891391556  0.8245102432951297  1.0000
  C   C1        1.0  0.45300194796287485  0.33039728940256907  0.2970035501482541  1.0000
  C   C2        1.0  0.5469752032054558  0.8304038543485817  0.20299169031781614  1.0000
  C   C3        1.0  0.5469959006093248  0.6696039400707932  0.7030039198680169  1.0000
  C   C4        1.0  0.4530197983018738  0.169599058362131  0.796999176232333  1.0000
  C   C5        1.0  0.7046848787133796  0.4473345433163587  0.10725670752031388  1.0000
  C   C6        1.0  0.2953153994529032  0.9473335113348255  0.3927429031093723  1.0000
  C   C7        1.0  0.2953177038097863  0.5526624781726354  0.892749035584927  1.0000
  C   C8        1.0  0.7046868514155734  0.05266014379991189  0.6072507719464821  1.0000
  C   C9        1.0  0.9067174004875652  0.5399459327783092  0.10795074096387937  1.0000
  C   C10       1.0  0.09328011084475922  0.0399460805787442  0.39205298314036696  1.0000
  C   C11       1.0  0.0932780375413671  0.46005193031700725  0.8920560046157532  1.0000
  C   C12       1.0  0.9067269960975821  0.9600492577327912  0.607943411119514  1.0000
  C   C13       1.0  0.0397712887526254  0.5926699152755077  0.18513036281684947  1.0000
  C   C14       1.0  0.9602224102805507  0.09267492140609329  0.3148756219581017  1.0000
  C   C15       1.0  0.9602289006139838  0.40732878941000916  0.8148752910034459  1.0000
  C   C16       1.0  0.03977996273458471  0.9073229416977708  0.6851224992158504  1.0000
  C   C17       1.0  0.9719445938089777  0.5564617590994558  0.26451669555142127  1.0000
  C   C18       1.0  0.028042895908996  0.056471314152105406  0.23548724683777772  1.0000
  C   C19       1.0  0.028050826726286  0.4435386287855039  0.735489414862833  1.0000
  C   C20       1.0  0.9719642283844083  0.9435315985220709  0.7645097825692274  1.0000
  C   C21       1.0  0.7619633018764845  0.46530970896690593  0.2647887850527368  1.0000
  C   C22       1.0  0.2380173409565174  0.9653163774137639  0.23521068145950605  1.0000
  C   C23       1.0  0.23803686999646353  0.5346915205082539  0.7352162336021806  1.0000
  C   C24       1.0  0.7619801410093177  0.0346840104965551  0.764783450181177  1.0000
  C   C25       1.0  0.6350168536163282  0.4114126315044544  0.18686466134935387  1.0000
  C   C26       1.0  0.3649771896841684  0.9114167866101823  0.31313227069738037  1.0000
  C   C27       1.0  0.3649857289187254  0.5885835483885131  0.813141081757415  1.0000
  C   C28       1.0  0.6350226156299428  0.08858023491784191  0.6868594095880383  1.0000
  I   I1        1.0  0.7475963315566857  0.6670835375312336  0.48220019784676527  1.0000
  I   I2        1.0  0.2524261498644336  0.16708409031204496  0.017798421385677398  1.0000
  I   I3        1.0  0.2523966433766844  0.33292358313111237  0.5178039177909637  1.0000
  I   I4        1.0  0.7475833151639577  0.8329205055544122  0.9821967918177491  1.0000
  N   N1        1.0  0.6427116995738016  0.41221598944667187  0.33235225531292656  1.0000
  N   N2        1.0  0.35726081772656937  0.9122225603018704  0.1676451406084922  1.0000
  N   N3        1.0  0.3572861140704903  0.5877860816258573  0.6676539443801914  1.0000
  N   N4        1.0  0.6427390224084988  0.0877811939911979  0.8323478099863876  1.0000
  N   N5        1.0  0.4425581599585513  0.3261836465584976  0.21041073198738044  1.0000
  N   N6        1.0  0.55742628966766  0.8261855466209055  0.2895847915719329  1.0000
  N   N7        1.0  0.5574444574449942  0.6738158997154217  0.7895962814349315  1.0000
  N   N8        1.0  0.4425663187781764  0.1738123165181591  0.7104059857054422  1.0000
