data_image0
_chemical_formula_structural       Zn2H25C32S2BrN14O8
_chemical_formula_sum              "Zn2 H25 C32 S2 Br1 N14 O8"
_cell_length_a       12.815721819283723
_cell_length_b       16.137633644499726
_cell_length_c       17.31285817846382
_cell_angle_alpha    95.31389311583814
_cell_angle_beta     90.30296797338502
_cell_angle_gamma    92.94483643736625

_space_group_name_H-M_alt    "P 1"
_space_group_IT_number       1

loop_
  _space_group_symop_operation_xyz
  'x, y, z'

loop_
  _atom_site_type_symbol
  _atom_site_label
  _atom_site_symmetry_multiplicity
  _atom_site_fract_x
  _atom_site_fract_y
  _atom_site_fract_z
  _atom_site_occupancy
  Zn  Zn1       1.0  0.4958915724767862  0.4070699913662494  0.4965106940251758  1.0000
  Zn  Zn2       1.0  0.5005365131381083  0.5900449669872359  0.499689014938184  1.0000
  H   H1        1.0  0.3999040609771497  0.7163225891905398  0.423650834084448  1.0000
  H   H2        1.0  0.39339286055956524  0.8727745883091416  0.4303832367211555  1.0000
  H   H3        1.0  0.3524399083106644  0.106873532586647  0.4073355925213136  1.0000
  H   H4        1.0  0.6076232505662205  0.11942349639911498  0.5716594472009575  1.0000
  H   H5        1.0  0.5032799617662675  0.6177697742135421  0.2608736695780181  1.0000
  H   H6        1.0  0.5081177718101202  0.6159478356850417  0.11564096605655999  1.0000
  H   H7        1.0  0.5207016746398168  0.6582892178388846  0.8980469279504106  1.0000
  H   H8        1.0  0.495095044447261  0.3915881958870813  0.889642368430799  1.0000
  H   H9        1.0  0.867483717816519  0.6325250761531435  0.4995934823145163  1.0000
  H   H10       1.0  0.6588367215898073  0.6626108234226747  0.5846292807149851  1.0000
  H   H11       1.0  0.661998216318409  0.7434025356944217  0.655418207992021  1.0000
  H   H12       1.0  0.6603506045792925  0.9584027913199266  0.611055763876891  1.0000
  H   H13       1.0  0.7225511890492482  0.8684313464698475  0.6246131714678353  1.0000
  H   H14       1.0  0.3401147554105464  0.33198231847327253  0.41801121586587436  1.0000
  H   H15       1.0  0.29620853777024786  0.23704930164412016  0.3731727999431626  1.0000
  H   H16       1.0  0.6514360213098626  0.34291187731766826  0.5668901235001869  1.0000
  H   H17       1.0  0.6843588419569784  0.2544484338273206  0.6083850135981946  1.0000
  H   H18       1.0  0.5052052687438717  0.3346460533886528  0.3045434986504674  1.0000
  H   H19       1.0  0.5346333094035031  0.285613984400463  0.21491729740273505  1.0000
  H   H20       1.0  0.48837524867162335  0.33641533563875464  0.03182017772778779  1.0000
  H   H21       1.0  0.4497217110979577  0.28484340528068225  0.10938903541507018  1.0000
  H   H22       1.0  0.49805386404103297  0.6637368701655079  0.690933367399893  1.0000
  H   H23       1.0  0.49697903066095955  0.7192689679326776  0.7819659451989622  1.0000
  H   H24       1.0  0.48477343444298543  0.3577265270352471  0.6806234904846419  1.0000
  H   H25       1.0  0.4784893857055224  0.31358554788960197  0.770197761706477  1.0000
  C   C1        1.0  0.5019876849129473  0.49110396966511155  0.3474209497014299  1.0000
  C   C2        1.0  0.2928703915185622  0.4983210678417933  0.4955398884941856  1.0000
  C   C3        1.0  0.4966141708457385  0.5092985409630798  0.6513069778428358  1.0000
  C   C4        1.0  0.7059922602575311  0.5020306402828467  0.5048165905837577  1.0000
  C   C5        1.0  0.4507876734975937  0.7575784690805278  0.46241194268333885  1.0000
  C   C6        1.0  0.4470354759973957  0.8427462724056056  0.4664002857248093  1.0000
  C   C7        1.0  0.5163459821812779  0.8921910283252074  0.5176137675449225  1.0000
  C   C8        1.0  0.5857603194782469  0.8527949800255217  0.5639842988427403  1.0000
  C   C9        1.0  0.5840075711850758  0.7635235883562927  0.5563131871921525  1.0000
  C   C10       1.0  0.4110520633785768  0.14321666095180055  0.44361929554997187  1.0000
  C   C11       1.0  0.4784733838656479  0.10319130862919221  0.4896059766978381  1.0000
  C   C12       1.0  0.5533762369563888  0.1498047331947703  0.5364390759668822  1.0000
  C   C13       1.0  0.5584232845355218  0.236741601757025  0.5359707583278704  1.0000
  C   C14       1.0  0.41907735901019544  0.23078060257024197  0.4462758727386174  1.0000
  C   C15       1.0  0.50063376064724  0.4846114826959039  0.2612691995975069  1.0000
  C   C16       1.0  0.5028036279658253  0.559359939989875  0.22393523373536786  1.0000
  C   C17       1.0  0.5055751462658337  0.5587802327686191  0.14447114194169328  1.0000
  C   C18       1.0  0.5030784861075616  0.48171508497331683  0.0981508970374421  1.0000
  C   C19       1.0  0.4991014925926365  0.40619572569930545  0.1334225710333712  1.0000
  C   C20       1.0  0.49996619158012123  0.4071020933944069  0.2159082029537984  1.0000
  C   C21       1.0  0.5132369297239238  0.5983549716619336  0.8632700439318554  1.0000
  C   C22       1.0  0.5066889033865678  0.5256001730608304  0.9012884068114528  1.0000
  C   C23       1.0  0.49879151542643996  0.4476363956974652  0.8590531556250551  1.0000
  C   C24       1.0  0.49692810726043035  0.4409594437133819  0.777711224609483  1.0000
  C   C25       1.0  0.5021146711889912  0.5151089576790753  0.7367191506256459  1.0000
  C   C26       1.0  0.5107930885891109  0.5943712163501618  0.7820061594719263  1.0000
  C   C27       1.0  0.10438733613467119  0.4303485850658221  0.5034687839616439  1.0000
  C   C28       1.0  0.8918068067721165  0.5692241914596536  0.5019764905493814  1.0000
  C   C29       1.0  0.17758267046713874  0.49613347855471795  0.4990446667991861  1.0000
  C   C30       1.0  0.8209625708114316  0.5020570713129543  0.5050623576239345  1.0000
  C   C31       1.0  0.9955417099243744  0.5432684420432494  0.501681524975524  1.0000
  C   C32       1.0  0.000953952171066397  0.4566636518694408  0.5047599598992248  1.0000
  S   S1        1.0  0.11868001633057897  0.5910532419452252  0.4977613520499417  1.0000
  S   S2        1.0  0.8792622161225336  0.4071923402821583  0.507594165115961  1.0000
  Br  Br1       1.0  0.130786891148766  0.3174821640424383  0.5102464363109078  1.0000
  N   N1        1.0  0.5173773297835638  0.7184250265406718  0.5071070502092709  1.0000
  N   N2        1.0  0.5277354718955464  0.9792331766876787  0.5241052961368879  1.0000
  N   N3        1.0  0.463684549410651  0.015159989418535198  0.4838267562996704  1.0000
  N   N4        1.0  0.49131614256992157  0.27720891111771806  0.49220294783592067  1.0000
  N   N5        1.0  0.5007036768841076  0.47189966691173885  0.017197728902701187  1.0000
  N   N6        1.0  0.5101541765795687  0.5384801174631093  0.9833231056868994  1.0000
  N   N7        1.0  0.6570215325877058  0.7256487023910125  0.5974364725241301  1.0000
  N   N8        1.0  0.654502195894018  0.8959860861257737  0.615691017282245  1.0000
  N   N9        1.0  0.35549062768646417  0.2713930758032745  0.4011660813984505  1.0000
  N   N10       1.0  0.6294647060124277  0.284564430140378  0.5814758660469153  1.0000
  N   N11       1.0  0.49544170629891227  0.3306072602300532  0.24573150921320064  1.0000
  N   N12       1.0  0.4981998193351558  0.3298563766510512  0.08937314708732907  1.0000
  N   N13       1.0  0.5193074103901409  0.6687617651421647  0.7481223854927633  1.0000
  N   N14       1.0  0.4916178425559891  0.3631526844679058  0.7394105701965259  1.0000
  O   O1        1.0  0.5087763135006256  0.4238373866303178  0.3813881541393727  1.0000
  O   O2        1.0  0.496852937804789  0.5633731265437448  0.3835003190505475  1.0000
  O   O3        1.0  0.3388201764556698  0.5704444433070679  0.5017420683089782  1.0000
  O   O4        1.0  0.3364543431722921  0.42873930636461205  0.4864674529884424  1.0000
  O   O5        1.0  0.5030890379671078  0.5767055632979564  0.6166252337973006  1.0000
  O   O6        1.0  0.4854830173632293  0.4370969799402856  0.6129866357290437  1.0000
  O   O7        1.0  0.6575035394224642  0.43105423563989126  0.5075955181546447  1.0000
  O   O8        1.0  0.6638083528320351  0.5711361230758598  0.5013391585975666  1.0000
