data_image0
_chemical_formula_structural       Zn8H6C70Cl16O26F20
_chemical_formula_sum              "Zn8 H6 C70 Cl16 O26 F20"
_cell_length_a       18.327398022757663
_cell_length_b       18.52958691032317
_cell_length_c       18.402110422023053
_cell_angle_alpha    120.04760540225728
_cell_angle_beta     119.4830042310317
_cell_angle_gamma    90.13076766375748

_space_group_name_H-M_alt    "P 1"
_space_group_IT_number       1

loop_
  _space_group_symop_operation_xyz
  'x, y, z'

loop_
  _atom_site_type_symbol
  _atom_site_label
  _atom_site_symmetry_multiplicity
  _atom_site_fract_x
  _atom_site_fract_y
  _atom_site_fract_z
  _atom_site_occupancy
  Zn  Zn1       1.0  0.050439440099076194  0.1298037899566395  0.5917287224922347  1.0000
  Zn  Zn2       1.0  0.8733294361937497  0.9631643286792125  0.41914089363028506  1.0000
  Zn  Zn3       1.0  0.0452176382751404  0.9570375432989806  0.5887448957119048  1.0000
  Zn  Zn4       1.0  0.04222967105236818  0.9513036882594436  0.4081540228966745  1.0000
  Zn  Zn5       1.0  0.462790493711843  0.36795860613599274  0.41537350364034603  1.0000
  Zn  Zn6       1.0  0.4600227254618047  0.5395918948259179  0.41123549068171855  1.0000
  Zn  Zn7       1.0  0.6309668688610868  0.5489498249448984  0.5948077799924928  1.0000
  Zn  Zn8       1.0  0.451506968272774  0.5362335642678459  0.5818238520276535  1.0000
  H   H1        1.0  0.8552181953468079  0.15781289309639857  0.27089627092509255  1.0000
  H   H2        1.0  0.17853164527166143  0.7746644063892916  0.30087950182137746  1.0000
  H   H3        1.0  0.8459546980279954  0.7647742697113173  0.9001456542945119  1.0000
  H   H4        1.0  0.5697065501165213  0.5968625748922136  0.2574660675720465  1.0000
  H   H5        1.0  0.9229595724640163  0.3232533509524275  0.6550981579732492  1.0000
  H   H6        1.0  0.6312156924810353  0.038586362530452306  0.3340116967788304  1.0000
  C   C1        1.0  0.857859014777425  0.8576860957613378  0.22580376563909976  1.0000
  C   C2        1.0  0.07361429250935458  0.3384742423027305  0.5251576123573329  1.0000
  C   C3        1.0  0.9931260407220677  0.3528636174552418  0.5066128528014245  1.0000
  C   C4        1.0  0.9141901533858672  0.2873255542911791  0.41297040899684134  1.0000
  C   C5        1.0  0.21987931988702772  0.30336192944486134  0.4748388818015882  1.0000
  C   C6        1.0  0.30181963533221523  0.2965328888382999  0.49140020183160954  1.0000
  C   C7        1.0  0.3329424161789376  0.23473803039535573  0.5117021925717111  1.0000
  C   C8        1.0  0.2791475126909191  0.18404390187973968  0.5146565007201571  1.0000
  C   C9        1.0  0.196931283415978  0.19018564827344164  0.49651604230838586  1.0000
  C   C10       1.0  0.16598208505549647  0.2516107861055445  0.47658834434201214  1.0000
  C   C11       1.0  0.425878720670056  0.13980129275713438  0.4794479112055469  1.0000
  C   C12       1.0  0.1305210456082904  0.1340805977156521  0.7776497373975884  1.0000
  C   C13       1.0  0.5067825015553139  0.12514451545786903  0.5016261710780012  1.0000
  C   C14       1.0  0.5859483507184818  0.19758630205983957  0.5795512378233806  1.0000
  C   C15       1.0  0.5824388785143597  0.28305176372055024  0.6329346173033555  1.0000
  C   C16       1.0  0.4999573475881787  0.29336375810834875  0.6094979704446357  1.0000
  C   C17       1.0  0.41965545242180713  0.22320294303149524  0.5331707266995521  1.0000
  C   C18       1.0  0.23614994959599764  0.2770557850378736  0.9490680188232969  1.0000
  C   C19       1.0  0.1791570923413914  0.1915762901918399  0.891055425975132  1.0000
  C   C20       1.0  0.17531063111954384  0.16494056925769485  0.9485386708985925  1.0000
  C   C21       1.0  0.22822483659817286  0.2179308488096439  0.05683550161247548  1.0000
  C   C22       1.0  0.2892763005227792  0.30211545784342053  0.1131880469874673  1.0000
  C   C23       1.0  0.8733441647705077  0.14702569754076217  0.5079513260020717  1.0000
  C   C24       1.0  0.28858226445117197  0.3297848396165434  0.05489274190921376  1.0000
  C   C25       1.0  0.33729653401226045  0.4035803373355051  0.06449016287875513  1.0000
  C   C26       1.0  0.274856282172081  0.3412728658159878  0.9395864065819521  1.0000
  C   C27       1.0  0.21031667540722762  0.7573147562788025  0.42487281765365026  1.0000
  C   C28       1.0  0.2029624332012788  0.8104739260454893  0.5063131023245475  1.0000
  C   C29       1.0  0.26136258518088334  0.813070092030351  0.5938379919930624  1.0000
  C   C30       1.0  0.3205441653997879  0.7640802814449119  0.597668136289144  1.0000
  C   C31       1.0  0.32590369244227446  0.709519938242238  0.5146405456713906  1.0000
  C   C32       1.0  0.2691991852141129  0.710062906961234  0.42918359850390425  1.0000
  C   C33       1.0  0.2406038899348815  0.6729569847590895  0.32128395583349334  1.0000
  C   C34       1.0  0.13901077838617934  0.8607526036495655  0.499768845063542  1.0000
  C   C35       1.0  0.17146907930807492  0.7256158540986634  0.31583984323147973  1.0000
  C   C36       1.0  0.8288464217966833  0.7713348563003136  0.049918836079221596  1.0000
  C   C37       1.0  0.7979561334011078  0.7954984733379006  0.1122036700892364  1.0000
  C   C38       1.0  0.7057668433790666  0.7569026185165271  0.0576424199822724  1.0000
  C   C39       1.0  0.6496783592682648  0.7014656989599077  0.949685673361628  1.0000
  C   C40       1.0  0.6816624031054487  0.6812970942609554  0.8886702700542201  1.0000
  C   C41       1.0  0.773809375255155  0.718118142722247  0.9441231232911632  1.0000
  C   C42       1.0  0.8474613455914336  0.7263483471275123  0.9304395733092218  1.0000
  C   C43       1.0  0.9122567472033507  0.7854414310305698  0.05345214000689679  1.0000
  C   C44       1.0  0.7382628682456271  0.7434306304372097  0.42389160837409157  1.0000
  C   C45       1.0  0.8629007083501962  0.8788225622419645  0.5145006552706448  1.0000
  C   C46       1.0  0.8041730689919644  0.822348968472241  0.5139878638810413  1.0000
  C   C47       1.0  0.8143484689987871  0.8390658668479958  0.6020062387397899  1.0000
  C   C48       1.0  0.7620591787727947  0.780150645796823  0.5988073949171806  1.0000
  C   C49       1.0  0.6972822096194875  0.6998363121036135  0.5074954194383278  1.0000
  C   C50       1.0  0.6881723857973725  0.6843191819371199  0.4205970337655385  1.0000
  C   C51       1.0  0.641862523193133  0.614307574502  0.3074821727031606  1.0000
  C   C52       1.0  0.6969443986309612  0.6841430803699141  0.3103620544594676  1.0000
  C   C53       1.0  0.727341691563602  0.17390935143536265  0.4335639721297041  1.0000
  C   C54       1.0  0.8175428426006022  0.20521648984640714  0.5107806625255477  1.0000
  C   C55       1.0  0.8528512735072269  0.294405363435061  0.5924405482910159  1.0000
  C   C56       1.0  0.14339213107049179  0.13307540171489052  0.5011284816143443  1.0000
  C   C57       1.0  0.7992192080710794  0.3479806910325252  0.5954914530373259  1.0000
  C   C58       1.0  0.7081055772725975  0.3177111026671682  0.5181569130710526  1.0000
  C   C59       1.0  0.675718695363173  0.2285541231790447  0.43761978045691285  1.0000
  C   C60       1.0  0.5936846077128308  0.155089369466971  0.33462984359059084  1.0000
  C   C61       1.0  0.6529492188975324  0.09240657557815982  0.3320956003054433  1.0000
  C   C62       1.0  0.3808009105320096  0.6498548407272865  0.5130749442135494  1.0000
  C   C63       1.0  0.649082848143081  0.37276306203574444  0.5166845467653117  1.0000
  C   C64       1.0  0.35471219026550926  0.358715762706872  0.2268348742588344  1.0000
  C   C65       1.0  0.624874963585512  0.6283907053065292  0.774868206893636  1.0000
  C   C66       1.0  0.6417065860447407  0.636731786398336  0.5030917406944367  1.0000
  C   C67       1.0  0.916308284396159  0.20882791015337432  0.34289015377191123  1.0000
  C   C68       1.0  0.35497470767857914  0.3541288115613241  0.48702961424822155  1.0000
  C   C69       1.0  0.9980283671552994  0.19797703617033588  0.36601498129986226  1.0000
  C   C70       1.0  0.07903896221844779  0.261945325093258  0.45604938711500853  1.0000
  Cl  Cl1       1.0  0.8137887518052834  0.3036696766946818  0.3822069798204239  1.0000
  Cl  Cl2       1.0  0.6860222351195941  0.1818875629204086  0.6096509302270047  1.0000
  Cl  Cl3       1.0  0.6761888892405779  0.37438010494850005  0.7253440829015856  1.0000
  Cl  Cl4       1.0  0.21283417135268218  0.1757535070272453  0.11427372813153618  1.0000
  Cl  Cl5       1.0  0.3188658822252179  0.5053221126243983  0.1181187636501377  1.0000
  Cl  Cl6       1.0  0.4523818674541714  0.4201742946008053  0.12259647640679108  1.0000
  Cl  Cl7       1.0  0.329393017421971  0.3035903168147556  0.8777007609024919  1.0000
  Cl  Cl8       1.0  0.3218224983116968  0.7085803673045988  0.30935863001398195  1.0000
  Cl  Cl9       1.0  0.8654591788947384  0.6282423713076568  0.8617627314328188  1.0000
  Cl  Cl10      1.0  0.989348810876393  0.740359057913608  0.1062188173391332  1.0000
  Cl  Cl11      1.0  0.965994692758926  0.8965435051779592  0.10703776096483623  1.0000
  Cl  Cl12      1.0  0.6667347602563396  0.5146712670010133  0.2773523205989293  1.0000
  Cl  Cl13      1.0  0.7698020808935411  0.6532621335297151  0.2726270290994818  1.0000
  Cl  Cl14      1.0  0.6661011999458708  0.04554362729350459  0.22999744147092116  1.0000
  Cl  Cl15      1.0  0.9933672305866778  0.4482066493768926  0.5965465068499324  1.0000
  Cl  Cl16      1.0  0.5070186915988799  0.0200361685425037  0.4336529508624451  1.0000
  O   O1        1.0  0.003796501891819987  0.9999104410852624  0.501477196572054  1.0000
  O   O2        1.0  0.9571144467616718  0.18436738875948316  0.5652729799522261  1.0000
  O   O3        1.0  0.11734943886669676  0.8800308061411716  0.436073647433858  1.0000
  O   O4        1.0  0.8213116757146182  0.888605095193313  0.2731787709156918  1.0000
  O   O5        1.0  0.12054581609685748  0.05241406342675959  0.7354512868243146  1.0000
  O   O6        1.0  0.5007459312890034  0.4976559151520519  0.49957433384204086  1.0000
  O   O7        1.0  0.3974552650497927  0.6248630486138042  0.5708936899562926  1.0000
  O   O8        1.0  0.5663375756462371  0.328804213447782  0.4517741108526109  1.0000
  O   O9        1.0  0.37136007186256853  0.4414285914428789  0.26884458622203056  1.0000
  O   O10       1.0  0.6660735542210149  0.6285457145309364  0.7357304186985443  1.0000
  O   O11       1.0  0.5610399436070068  0.5982921122949136  0.42586506297901366  1.0000
  O   O12       1.0  0.940800901326206  0.8749760008115289  0.26439914229462164  1.0000
  O   O13       1.0  0.36276884333080517  0.4354439158467258  0.5345141724789497  1.0000
  O   O14       1.0  0.6797599560606712  0.6273056222879988  0.5754119531334112  1.0000
  O   O15       1.0  0.38779012475013264  0.3156782787847447  0.43658637144219614  1.0000
  O   O16       1.0  0.3891806252385948  0.31982928606709754  0.26933653563821724  1.0000
  O   O17       1.0  0.5427928470546277  0.5894401057955249  0.7272451420526023  1.0000
  O   O18       1.0  0.40256200494741273  0.6279167786501674  0.45088108178524755  1.0000
  O   O19       1.0  0.6852337502774617  0.4561981785506859  0.5772239864472865  1.0000
  O   O20       1.0  0.10639234651132767  0.17456910704427026  0.735056929138082  1.0000
  O   O21       1.0  0.8307397721623956  0.0644667328670323  0.4479673634998062  1.0000
  O   O22       1.0  0.11226381725376905  0.8786668572313232  0.5569512021203592  1.0000
  O   O23       1.0  0.8231838295135103  0.896112830398451  0.4489501862066517  1.0000
  O   O24       1.0  0.1170577790284426  0.0504006782426103  0.43543667836490124  1.0000
  O   O25       1.0  0.9458282564769293  0.9003256982616962  0.577266000553223  1.0000
  O   O26       1.0  0.1296552878172008  0.17444824550022986  0.570438133772015  1.0000
  F   F1        1.0  0.497951014879959  0.3756816518158815  0.6636416650826786  1.0000
  F   F2        1.0  0.11822186730343989  0.0856818232727079  0.8998472357794396  1.0000
  F   F3        1.0  0.21777755459385156  0.37850203988000425  0.8986892857090607  1.0000
  F   F4        1.0  0.264883263218941  0.8639328668929879  0.6799081040032106  1.0000
  F   F5        1.0  0.3729367636992579  0.773318609900585  0.6867132810906397  1.0000
  F   F6        1.0  0.20180977225941624  0.5827851501464137  0.2523576703563747  1.0000
  F   F7        1.0  0.08343033924042226  0.6700175824525373  0.24607080377288768  1.0000
  F   F8        1.0  0.6655536564413396  0.7701651665556354  0.10544374552893711  1.0000
  F   F9        1.0  0.5630084180913427  0.6700561303572955  0.9081878661087825  1.0000
  F   F10       1.0  0.999548841736484  0.12198350006655552  0.296574674873206  1.0000
  F   F11       1.0  0.8746110135341566  0.9141365857999019  0.6941254362997994  1.0000
  F   F12       1.0  0.7759285877747927  0.8053844080848193  0.6883369882311781  1.0000
  F   F13       1.0  0.6414317664399859  0.7143930510855157  0.25577483411219476  1.0000
  F   F14       1.0  0.8390764041496722  0.43256248445043605  0.6784192327032271  1.0000
  F   F15       1.0  0.5232937313990718  0.1286538006442157  0.3342777239225398  1.0000
  F   F16       1.0  0.14983511983080425  0.40138502239134505  0.613978342425959  1.0000
  F   F17       1.0  0.5604502023728344  0.16772457399878957  0.25872612731912864  1.0000
  F   F18       1.0  0.18834473248232084  0.3600718484098237  0.4514015426704389  1.0000
  F   F19       1.0  0.3100319445503104  0.1288725472025334  0.541601093035652  1.0000
  F   F20       1.0  0.3504367713974972  0.07017660702844349  0.4018714452602693  1.0000
