data_image0
_chemical_formula_structural       Co2H14C14N2O12
_chemical_formula_sum              "Co2 H14 C14 N2 O12"
_cell_length_a       7.390685662608183
_cell_length_b       7.744288361007787
_cell_length_c       7.744270117423966
_cell_angle_alpha    100.90943978643303
_cell_angle_beta     100.12588577609482
_cell_angle_gamma    100.12592073616021

_space_group_name_H-M_alt    "P 1"
_space_group_IT_number       1

loop_
  _space_group_symop_operation_xyz
  'x, y, z'

loop_
  _atom_site_type_symbol
  _atom_site_label
  _atom_site_symmetry_multiplicity
  _atom_site_fract_x
  _atom_site_fract_y
  _atom_site_fract_z
  _atom_site_occupancy
  Co  Co1       1.0  0.7499987154793645  0.3346530459796497  0.6653460794175529  1.0000
  Co  Co2       1.0  0.24999912687894718  0.6653462921769701  0.3346553741495626  1.0000
  H   H1        1.0  0.7820566155392753  0.9454904025105575  0.6512885752163342  1.0000
  H   H2        1.0  0.7179417090040802  0.34871032561298415  0.05450462385954324  1.0000
  H   H3        1.0  0.21795421161726844  0.05451168124606199  0.3487168182480501  1.0000
  H   H4        1.0  0.2820458823547227  0.6512862734898306  0.9454894655546866  1.0000
  H   H5        1.0  0.7499945493355754  0.8297218235664445  0.1702781517973548  1.0000
  H   H6        1.0  0.25000329302273633  0.1702775145901825  0.8297233017697607  1.0000
  H   H7        1.0  0.3925726563701629  0.3274093254085315  0.5339301099852776  1.0000
  H   H8        1.0  0.10742791559050599  0.46606934949370765  0.6725919224971832  1.0000
  H   H9        1.0  0.6074346412899204  0.6725954354332799  0.4660752106139867  1.0000
  H   H10       1.0  0.8925632287389291  0.5339245786792118  0.3274074099497638  1.0000
  H   H11       1.0  0.4067418223599192  0.15473088749937597  0.6146775411715025  1.0000
  H   H12       1.0  0.09325524155045883  0.3853220382006625  0.8452711569081544  1.0000
  H   H13       1.0  0.5932594932044067  0.8452778861795592  0.3853275567875656  1.0000
  H   H14       1.0  0.9067406216270442  0.6146745990066194  0.15472817024201646  1.0000
  C   C1        1.0  0.7649741276897758  0.9843898177744561  0.7887801912285113  1.0000
  C   C2        1.0  0.7350261145840662  0.21121562553109635  0.015606914800713356  1.0000
  C   C3        1.0  0.2350294928081098  0.015610883466784697  0.2112173025061708  1.0000
  C   C4        1.0  0.26496974272489376  0.7887810101373559  0.9843911198075546  1.0000
  C   C5        1.0  0.7600262601041264  0.8613639284051401  0.8995899745701053  1.0000
  C   C6        1.0  0.7399711656075352  0.10041281602477169  0.13863450288432938  1.0000
  C   C7        1.0  0.23997756434994952  0.13863139691436285  0.10041170163719931  1.0000
  C   C8        1.0  0.26002482176154024  0.8995905517129684  0.8613674080977135  1.0000
  C   C9        1.0  0.7499965968056798  0.9210241682974  0.07897483638595304  1.0000
  C   C10       1.0  0.24999710084046003  0.07897514849875618  0.9210220595003449  1.0000
  C   C11       1.0  0.7635929261463872  0.6703231766922285  0.8235110758334089  1.0000
  C   C12       1.0  0.7364041366253957  0.1764877623573113  0.3296749531620193  1.0000
  C   C13       1.0  0.23641836269156613  0.329674867285469  0.17648975590530822  1.0000
  C   C14       1.0  0.2635865166799007  0.8235101979004043  0.6703224783010951  1.0000
  N   N1        1.0  0.750000123338701  0.15570089971291165  0.8442988141234338  1.0000
  N   N2        1.0  0.25000182265196713  0.8442984490324079  0.15569814933120807  1.0000
  O   O1        1.0  0.7200103341239414  0.6090164322046976  0.6533289400997262  1.0000
  O   O2        1.0  0.779986773236132  0.34667142539813506  0.3909822633818578  1.0000
  O   O3        1.0  0.28001601941043214  0.39099378269749246  0.3466753716174793  1.0000
  O   O4        1.0  0.22000023811822442  0.6533224844919658  0.6090150964680702  1.0000
  O   O5        1.0  0.8088296043763779  0.5678989034721624  0.9268258559397752  1.0000
  O   O6        1.0  0.6911699872071749  0.07318010443173509  0.4320996375627999  1.0000
  O   O7        1.0  0.19118201847789612  0.43210049665307787  0.0731830346453393  1.0000
  O   O8        1.0  0.3088087523284814  0.9268137673538986  0.5678924845511872  1.0000
  O   O9        1.0  0.45809000320389265  0.28658198918137856  0.637228512137014  1.0000
  O   O10       1.0  0.04190507599111022  0.36276980196527825  0.713417305710479  1.0000
  O   O11       1.0  0.541909924921157  0.7134267758385773  0.3627737740532239  1.0000
  O   O12       1.0  0.9580910742543481  0.6372281790789456  0.286579739950902  1.0000
