data_image0
_chemical_formula_structural       Al4H58C60N22O20
_chemical_formula_sum              "Al4 H58 C60 N22 O20"
_cell_length_a       6.683634590947956
_cell_length_b       22.74208572774736
_cell_length_c       26.35517982511879
_cell_angle_alpha    78.77672791920301
_cell_angle_beta     90.7596663112497
_cell_angle_gamma    90.7613883362677

_space_group_name_H-M_alt    "P 1"
_space_group_IT_number       1

loop_
  _space_group_symop_operation_xyz
  'x, y, z'

loop_
  _atom_site_type_symbol
  _atom_site_label
  _atom_site_symmetry_multiplicity
  _atom_site_fract_x
  _atom_site_fract_y
  _atom_site_fract_z
  _atom_site_occupancy
  Al  Al1       1.0  0.11984196403120964  0.4986068199364054  0.4985268315058418  1.0000
  Al  Al2       1.0  0.619793442704925  0.4999833723629621  0.5016080179789667  1.0000
  Al  Al3       1.0  0.6588840264774376  0.9998788027232661  0.0021848784091318004  1.0000
  Al  Al4       1.0  0.15925849406693263  0.9996117070456375  0.9981192614882701  1.0000
  H   H1        1.0  0.9724995516631981  0.27854226518637404  0.8318037891295661  1.0000
  H   H2        1.0  0.46513829201909124  0.7211826627430822  0.16843996605372513  1.0000
  H   H3        1.0  0.6069298099554388  0.2417296676593992  0.8150925110759316  1.0000
  H   H4        1.0  0.10377797732447652  0.758068711329656  0.18420093901485046  1.0000
  H   H5        1.0  0.5790145135147426  0.19695849680662997  0.7674143412375612  1.0000
  H   H6        1.0  0.08242417477076462  0.8027445603821802  0.2318327968618732  1.0000
  H   H7        1.0  0.17716860877601454  0.24024496902490708  0.8123545257172538  1.0000
  H   H8        1.0  0.6743234536745039  0.7591936532991213  0.18881324053837997  1.0000
  H   H9        1.0  0.8649929039508211  0.14537963566001375  0.7386084645516034  1.0000
  H   H10       1.0  0.3749051010623533  0.854036687954668  0.26169701734940526  1.0000
  H   H11       1.0  0.6255721326861805  0.07397733592146948  0.12634176428669258  1.0000
  H   H12       1.0  0.12428587627410081  0.9267564153138038  0.8679462985601701  1.0000
  H   H13       1.0  0.17451983074402483  0.3105182403257132  0.3432091956520011  1.0000
  H   H14       1.0  0.6757985466400955  0.6409542290048975  0.6957428660532868  1.0000
  H   H15       1.0  0.19414177243729824  0.3022084975853829  0.7315679766494653  1.0000
  H   H16       1.0  0.6903383133448528  0.6969018536063275  0.26927123853048573  1.0000
  H   H17       1.0  0.5527792735330267  0.15996532707895028  0.22533403443262756  1.0000
  H   H18       1.0  0.46814152988497437  0.10092711024233131  0.1954695549615124  1.0000
  H   H19       1.0  0.053933822635841004  0.8381681922507839  0.771111131600186  1.0000
  H   H20       1.0  0.9661611137534012  0.8950955790339351  0.7996042645415925  1.0000
  H   H21       1.0  0.371395182867964  0.19584825385655336  0.1491800775448908  1.0000
  H   H22       1.0  0.21912948925644576  0.2449930889875347  0.17253349978854257  1.0000
  H   H23       1.0  0.7236584325568318  0.7563515250848238  0.8314287742017042  1.0000
  H   H24       1.0  0.816450364907034  0.7781582709336519  0.8883286529088393  1.0000
  H   H25       1.0  0.353973165904634  0.17267967798521502  0.07879652244276507  1.0000
  H   H26       1.0  0.28265582640857906  0.10494428867045966  0.06361474213408509  1.0000
  H   H27       1.0  0.8875526760235319  0.8579488739756728  0.9021807503224293  1.0000
  H   H28       1.0  0.7652640556341697  0.8944292049561607  0.9422999216688553  1.0000
  H   H29       1.0  0.5472771178427183  0.3418649929641616  0.31107251285792603  1.0000
  H   H30       1.0  0.0667173547797049  0.6928363840774165  0.6574849430964562  1.0000
  H   H31       1.0  0.48349383300541154  0.4353239264775154  0.4063865380201577  1.0000
  H   H32       1.0  0.37461479727456753  0.40626541121574156  0.3550651492326082  1.0000
  H   H33       1.0  0.0005331871624178953  0.6005514472368174  0.5608252321643618  1.0000
  H   H34       1.0  0.8918136188543289  0.6497997269188571  0.5955974580263897  1.0000
  H   H35       1.0  0.15613592899147483  0.3711585714285163  0.4130192882887868  1.0000
  H   H36       1.0  0.6651897321676259  0.5785900500752345  0.6270739784636419  1.0000
  H   H37       1.0  0.03628369437655011  0.3519099489404596  0.7558276300464186  1.0000
  H   H38       1.0  0.525668207816608  0.6475015544686894  0.24449230197780028  1.0000
  H   H39       1.0  0.50033928704503  0.32568992406904573  0.6750953802193679  1.0000
  H   H40       1.0  0.5299345753178387  0.2526518783123919  0.6825292647505277  1.0000
  H   H41       1.0  0.9987120268288765  0.6741203799551341  0.32399616034066986  1.0000
  H   H42       1.0  0.034265581739205714  0.7471212759660585  0.3165959000038113  1.0000
  H   H43       1.0  0.7389529289661355  0.34842756732203384  0.7860871763759787  1.0000
  H   H44       1.0  0.5010726115435277  0.34568633184395736  0.7695639591860229  1.0000
  H   H45       1.0  0.22710912968627642  0.6514813171576818  0.21333763334570924  1.0000
  H   H46       1.0  0.990653870025817  0.6544272612945148  0.22919606683559823  1.0000
  H   H47       1.0  0.09054142067370922  0.24225585024248636  0.6770295867895441  1.0000
  H   H48       1.0  0.5960947697672341  0.7568864914581823  0.3236619612825534  1.0000
  H   H49       1.0  0.7978196390934118  0.24641609198716458  0.623538754571534  1.0000
  H   H50       1.0  0.8317306968369139  0.17559127773295558  0.6497734617309376  1.0000
  H   H51       1.0  0.306610415462231  0.7529625333974362  0.376438665766983  1.0000
  H   H52       1.0  0.34531013823223583  0.8237453157434442  0.3503641614826378  1.0000
  H   H53       1.0  0.11364578144802101  0.16887445846349897  0.7494838403385201  1.0000
  H   H54       1.0  0.6208368501110613  0.8305477147926226  0.2513545528620966  1.0000
  H   H55       1.0  0.36875548113095397  0.4231583455112612  0.527296224514174  1.0000
  H   H56       1.0  0.868425224103227  0.5721347658113272  0.4665723569444821  1.0000
  H   H57       1.0  0.4139997154500251  0.07285539537566889  0.9673992836812458  1.0000
  H   H58       1.0  0.9128050627643561  0.925831439821792  0.0312997847643857  1.0000
  C   C1        1.0  0.37618392891131697  0.565203438440939  0.5620826788629855  1.0000
  C   C2        1.0  0.8557978754142825  0.431773890667337  0.43882549036499796  1.0000
  C   C3        1.0  0.3661049278034342  0.5753678440631873  0.42173794332920517  1.0000
  C   C4        1.0  0.8774366943407159  0.42359890336010125  0.5781387277889039  1.0000
  C   C5        1.0  0.047732115520503306  0.3059212142587171  0.7492308852731425  1.0000
  C   C6        1.0  0.5422920345164499  0.6934058486390311  0.2512865349445335  1.0000
  C   C7        1.0  0.6714782801372012  0.28978521740302915  0.7370234924684878  1.0000
  C   C8        1.0  0.16857540691302123  0.7099091183001891  0.26242932818808373  1.0000
  C   C9        1.0  0.6727591725608024  0.23184811543199402  0.7797071539133354  1.0000
  C   C10       1.0  0.17248170983622665  0.7678502425259667  0.21980482023474926  1.0000
  C   C11       1.0  0.8966761315213462  0.12117998407445901  0.8756007356989882  1.0000
  C   C12       1.0  0.4010140078063103  0.8782513941297054  0.12448807756667428  1.0000
  C   C13       1.0  0.8831204988650045  0.29431139986769483  0.7102322358035308  1.0000
  C   C14       1.0  0.38138123489780185  0.7051189416390354  0.289899921807553  1.0000
  C   C15       1.0  0.029948078974264505  0.25910170356032586  0.7998520127235123  1.0000
  C   C16       1.0  0.5259421302953698  0.740423366510498  0.20069497722703739  1.0000
  C   C17       1.0  0.8870494914824506  0.20751228512654046  0.7912963590299144  1.0000
  C   C18       1.0  0.38809950573060803  0.7921028440457148  0.20889949054252097  1.0000
  C   C19       1.0  0.9584437631138061  0.18415125899656462  0.7432980342040734  1.0000
  C   C20       1.0  0.4647266521190971  0.8152746796732797  0.25716375032785516  1.0000
  C   C21       1.0  0.9407399405060632  0.23383924770916306  0.6943143522078188  1.0000
  C   C22       1.0  0.44589199500702403  0.7654946254449229  0.306022262436528  1.0000
  C   C23       1.0  0.8903257464436724  0.15995104915348432  0.836729631790902  1.0000
  C   C24       1.0  0.39328185500679086  0.8396260801215687  0.16342133894426783  1.0000
  C   C25       1.0  0.8828917356938959  0.341130434350056  0.6644481404708741  1.0000
  C   C26       1.0  0.3788258947974654  0.6581266552132305  0.3356193303553709  1.0000
  C   C27       1.0  0.8793777202147055  0.37841753676221396  0.6245385858054179  1.0000
  C   C28       1.0  0.3722281531880327  0.6206318305661682  0.37538978744834844  1.0000
  C   C29       1.0  0.7522357755748887  0.10216101900336841  0.13312516834587737  1.0000
  C   C30       1.0  0.2479026447130721  0.8973042938082325  0.8638168670554122  1.0000
  C   C31       1.0  0.7345554133372263  0.13945452316222878  0.16871485988384188  1.0000
  C   C32       1.0  0.24175292833142245  0.864463363303109  0.8244107321836792  1.0000
  C   C33       1.0  0.8952107277326109  0.18090212643487996  0.1746554171277808  1.0000
  C   C34       1.0  0.403508898592314  0.8236611836158187  0.820781135751801  1.0000
  C   C35       1.0  0.07426583253185022  0.17853264954801767  0.14559318280465308  1.0000
  C   C36       1.0  0.5726515096468104  0.823671210229598  0.8550698874784856  1.0000
  C   C37       1.0  0.09397989004583003  0.1363126916058093  0.11216792379200059  1.0000
  C   C38       1.0  0.5842950686276254  0.863240470544774  0.8911249058522371  1.0000
  C   C39       1.0  0.9265760346475533  0.10066324468787967  0.10438025064971157  1.0000
  C   C40       1.0  0.41459897533955115  0.8972915840296947  0.8969866218822061  1.0000
  C   C41       1.0  0.8648183401139704  0.288351569684174  0.28154385275289673  1.0000
  C   C42       1.0  0.3747118343676307  0.7092892248940499  0.7190360380482587  1.0000
  C   C43       1.0  0.880370329840595  0.22164631456622166  0.21071187371350666  1.0000
  C   C44       1.0  0.39170830453008426  0.7820238882976511  0.7854573219550715  1.0000
  C   C45       1.0  0.6815716989236266  0.34911487761254983  0.3331548016136949  1.0000
  C   C46       1.0  0.19821874301057826  0.6678618043253478  0.6503647528223127  1.0000
  C   C47       1.0  0.6705564481087195  0.3856117383675154  0.37081314735586796  1.0000
  C   C48       1.0  0.18871985868194235  0.6325222040833793  0.6117308032205884  1.0000
  C   C49       1.0  0.8485387655587716  0.3936888985196061  0.3995461532691422  1.0000
  C   C50       1.0  0.365103477979396  0.6011689578227287  0.6027839505836637  1.0000
  C   C51       1.0  0.025519661467150505  0.36542899781208854  0.389276180535731  1.0000
  C   C52       1.0  0.5363478023244995  0.6047955156513326  0.6338009744397083  1.0000
  C   C53       1.0  0.0360601197264785  0.33174191091617183  0.3510113988804946  1.0000
  C   C54       1.0  0.5429214169797805  0.6389822980471251  0.6718084596416957  1.0000
  C   C55       1.0  0.8602770690613755  0.3235902156596779  0.322725856928919  1.0000
  C   C56       1.0  0.37100187322072037  0.6715200386946022  0.6797060116744048  1.0000
  C   C57       1.0  0.40922366216049266  0.9231817270593864  0.07788777717415481  1.0000
  C   C58       1.0  0.9020711174758562  0.07619614328740454  0.9221897921355334  1.0000
  C   C59       1.0  0.40409749233821673  0.9342617019103656  0.9373923646242303  1.0000
  C   C60       1.0  0.9214208150835363  0.0640837821549951  0.0637006929449555  1.0000
  N   N1        1.0  0.032825842957535704  0.26143163669541275  0.21480781449311337  1.0000
  N   N2        1.0  0.5495088155953951  0.7451518226202082  0.781860160725202  1.0000
  N   N3        1.0  0.028297235255720903  0.2933653388632961  0.2513498247230785  1.0000
  N   N4        1.0  0.5409564446246052  0.7088385115056326  0.74884537289617  1.0000
  N   N5        1.0  0.699764471607793  0.25612847858936755  0.273551119608797  1.0000
  N   N6        1.0  0.20976494460261824  0.7412301829261593  0.7249579924611993  1.0000
  N   N7        1.0  0.7091565795433257  0.22191771445020686  0.23886206927113554  1.0000
  N   N8        1.0  0.2180338450634595  0.7773648447410368  0.7580219704633392  1.0000
  N   N9        1.0  0.5578782486998152  0.1371238581767713  0.19561666894261978  1.0000
  N   N10       1.0  0.0852001411602856  0.873097672683613  0.7892385934810092  1.0000
  N   N11       1.0  0.23506347916629985  0.21638456369952053  0.14715248141519768  1.0000
  N   N12       1.0  0.7326088154114744  0.7867979058853788  0.8554054722986422  1.0000
  N   N13       1.0  0.27697366089375214  0.13344977368333844  0.08896658648854579  1.0000
  N   N14       1.0  0.7578597073203853  0.8611861374962969  0.921299877832851  1.0000
  N   N15       1.0  0.4944430703146666  0.41178577580512155  0.37752530895618003  1.0000
  N   N16       1.0  0.0158233894993316  0.6311607228597821  0.5841125147333769  1.0000
  N   N17       1.0  0.5023653871286485  0.2865552864838888  0.7020272705986483  1.0000
  N   N18       1.0  0.0020753758108539985  0.7132370425265575  0.29703618799769765  1.0000
  N   N19       1.0  0.6436952244333157  0.34547572931897014  0.7561240541379133  1.0000
  N   N20       1.0  0.13411723642950343  0.6543479453814811  0.2430991109508653  1.0000
  N   N21       1.0  0.7938891784691791  0.21614400306328452  0.6577812784281392  1.0000
  N   N22       1.0  0.30310035344972164  0.7832557626542923  0.3422051823515416  1.0000
  O   O1        1.0  0.5322981754998892  0.5618606737468212  0.44519693813428046  1.0000
  O   O2        1.0  0.04632786744359411  0.445226501056517  0.5614518834266206  1.0000
  O   O3        1.0  0.21291926448943604  0.5556146779925156  0.5385781948079398  1.0000
  O   O4        1.0  0.6898321302388981  0.4524386544363209  0.45161838669780957  1.0000
  O   O5        1.0  0.1952119031301294  0.5527220128805438  0.4357832009948196  1.0000
  O   O6        1.0  0.7071853550489495  0.4379827436181569  0.557250180985406  1.0000
  O   O7        1.0  0.0261535397708599  0.4420438443177658  0.458349741017109  1.0000
  O   O8        1.0  0.5474123872052773  0.5463378259855601  0.551589334399523  1.0000
  O   O9        1.0  0.3693218614676184  0.4620381732327842  0.5042992409827106  1.0000
  O   O10       1.0  0.8720775253843984  0.5374774922324972  0.4947046898020345  1.0000
  O   O11       1.0  0.23291733488024147  0.9527528115229771  0.9480170423362889  1.0000
  O   O12       1.0  0.7494859822060466  0.0516263459198285  0.04654417870901989  1.0000
  O   O13       1.0  0.5814181397413877  0.9439695593947306  0.06328018803787928  1.0000
  O   O14       1.0  0.07384704162459602  0.060429453598494845  0.9412229962079904  1.0000
  O   O15       1.0  0.5678595983115429  0.9449267575369473  0.9600447022651861  1.0000
  O   O16       1.0  0.088262694367117  0.04843602122139149  0.0470870850301637  1.0000
  O   O17       1.0  0.7339834621165837  0.056217381875640605  0.9408318334944283  1.0000
  O   O18       1.0  0.24327929340663706  0.9380638068436581  0.05486215930369549  1.0000
  O   O19       1.0  0.4100449184603221  0.03775169777488682  0.9950913658246208  1.0000
  O   O20       1.0  0.9075715399832378  0.9619387839541599  0.0046680335571665  1.0000
