data_image0
_chemical_formula_structural       Zn8H36C61O27
_chemical_formula_sum              "Zn8 H36 C61 O27"
_cell_length_a       18.40700964469576
_cell_length_b       18.484358782575274
_cell_length_c       18.459181629707622
_cell_angle_alpha    119.93767278214959
_cell_angle_beta     119.8125833997343
_cell_angle_gamma    90.40074177600565

_space_group_name_H-M_alt    "P 1"
_space_group_IT_number       1

loop_
  _space_group_symop_operation_xyz
  'x, y, z'

loop_
  _atom_site_type_symbol
  _atom_site_label
  _atom_site_symmetry_multiplicity
  _atom_site_fract_x
  _atom_site_fract_y
  _atom_site_fract_z
  _atom_site_occupancy
  Zn  Zn1       1.0  0.5388625161740278  0.45490760434989136  0.5883822766475221  1.0000
  Zn  Zn2       1.0  0.5470038881623581  0.45861377438131984  0.4204030727870249  1.0000
  Zn  Zn3       1.0  0.5423488940238386  0.6298778683049945  0.5880592852144206  1.0000
  Zn  Zn4       1.0  0.36894624647831625  0.45637133319289797  0.4139173598407738  1.0000
  Zn  Zn5       1.0  0.9590691205814039  0.04740881234999961  0.4160717555106642  1.0000
  Zn  Zn6       1.0  0.9583541958348222  0.8733283859476871  0.41574461697256754  1.0000
  Zn  Zn7       1.0  0.9604430185255454  0.046251861938820596  0.5906134281577735  1.0000
  Zn  Zn8       1.0  0.1330371145350782  0.04549943818520322  0.5883242763238529  1.0000
  H   H1        1.0  0.15148823463272987  0.3245363502588958  0.5457400066684459  1.0000
  H   H2        1.0  0.1252478834725538  0.531310748447993  0.2814491523297067  1.0000
  H   H3        1.0  0.4191941551702599  0.2973460051275438  0.0983641173639782  1.0000
  H   H4        1.0  0.14918587398549485  0.28019186244558375  0.3728925424068593  1.0000
  H   H5        1.0  0.323205291870643  0.20285660845129166  0.9078761673466503  1.0000
  H   H6        1.0  0.03720483643297002  0.2529209814707585  0.9074985799639779  1.0000
  H   H7        1.0  0.03549409494121392  0.1565428031479925  0.9074767237323655  1.0000
  H   H8        1.0  0.13485766812375743  0.35001558900513874  0.1009581207670323  1.0000
  H   H9        1.0  0.13307937926639116  0.2536320271454429  0.10091694964490477  1.0000
  H   H10       1.0  0.658528613523771  0.8126714627839747  0.56627935882905  1.0000
  H   H11       1.0  0.7546339879583998  0.908431193147983  0.5670958285804703  1.0000
  H   H12       1.0  0.7521327727452204  0.631500844164691  0.10119638134678163  1.0000
  H   H13       1.0  0.8113495007818656  0.6249401138516293  0.33788560890727165  1.0000
  H   H14       1.0  0.9010940915737393  0.6603409420006655  0.463045405594933  1.0000
  H   H15       1.0  0.7136954031361145  0.5273676561142935  0.33720547401458867  1.0000
  H   H16       1.0  0.1535512986458727  0.11041622076783851  0.3309171089127219  1.0000
  H   H17       1.0  0.8035690290581312  0.5633039433069557  0.4625237526946436  1.0000
  H   H18       1.0  0.6370755607066343  0.2309286745821453  0.5377430549536941  1.0000
  H   H19       1.0  0.9283403812111433  0.3330210590268835  0.5190518544485985  1.0000
  H   H20       1.0  0.8467140179754298  0.25292172947345654  0.3850918039332429  1.0000
  H   H21       1.0  0.8332334583179419  0.4301800747698649  0.5218656561000758  1.0000
  H   H22       1.0  0.7512437895844428  0.3506592191390325  0.38808667841718153  1.0000
  H   H23       1.0  0.7537617796416711  0.5332920908730329  0.9091537680757472  1.0000
  H   H24       1.0  0.34305232994089613  0.17971030650318198  0.45406266768109305  1.0000
  H   H25       1.0  0.34561966312763565  0.22357650233099952  0.626624043800071  1.0000
  H   H26       1.0  0.3413692990143035  0.3937924685230172  0.6693158855319015  1.0000
  H   H27       1.0  0.7046978887749801  0.8169067748274232  0.9047406982321392  1.0000
  H   H28       1.0  0.7975484706792957  0.914156467735893  0.09508747810208748  1.0000
  H   H29       1.0  0.8495930852222815  0.6330747376061654  0.10254777802340732  1.0000
  H   H30       1.0  0.7444874074486452  0.059082088579650416  0.5061030540712184  1.0000
  H   H31       1.0  0.6563814447863765  0.5329872466488085  0.9078447935224792  1.0000
  H   H32       1.0  0.4128595912921256  0.8168982449648753  0.6166378724318309  1.0000
  H   H33       1.0  0.31897508207021014  0.9128893937245904  0.614721451781442  1.0000
  H   H34       1.0  0.028934861948165674  0.629574755673559  0.37773984005846734  1.0000
  H   H35       1.0  0.029244245143459587  0.628285128189617  0.28074015661886886  1.0000
  H   H36       1.0  0.12366375234343256  0.5313461456730196  0.37717020953418523  1.0000
  C   C1        1.0  0.36729776379021944  0.36253320632573616  0.2274567135906057  1.0000
  C   C2        1.0  0.7775629121443474  0.8422491737662838  0.0541673429899492  1.0000
  C   C3        1.0  0.8056604906556117  0.8067454557405115  0.1120554144357798  1.0000
  C   C4        1.0  0.6423334383881923  0.6369993977462586  0.7777347751845558  1.0000
  C   C5        1.0  0.7783630057381287  0.7144566401362908  0.05646478241039426  1.0000
  C   C6        1.0  0.7826424140981558  0.6371096466304493  0.06520444154728733  1.0000
  C   C7        1.0  0.722954929010733  0.5750719931745678  0.9440707778502432  1.0000
  C   C8        1.0  0.21004958116402864  0.6583583354686624  0.43537868594842183  1.0000
  C   C9        1.0  0.3027341373491836  0.6935991025858074  0.5004617840829086  1.0000
  C   C10       1.0  0.3405902984452283  0.7871172903772462  0.5651141199325311  1.0000
  C   C11       1.0  0.28800030895217804  0.8409281848232129  0.564058631308868  1.0000
  C   C12       1.0  0.19575517715200877  0.17409521928950517  0.4059300231618651  1.0000
  C   C13       1.0  0.19415308875687037  0.8047034298227304  0.49842041801938575  1.0000
  C   C14       1.0  0.15730213995790623  0.7123508119902766  0.4345582485457698  1.0000
  C   C15       1.0  0.07087014158925337  0.6342590211356408  0.35279037753119985  1.0000
  C   C16       1.0  0.6363084893388874  0.36155609457073007  0.5059637344296279  1.0000
  C   C17       1.0  0.1305782546909598  0.5731327089205677  0.35312968970295344  1.0000
  C   C18       1.0  0.2177394171327904  0.2787533777933078  0.0571572767699849  1.0000
  C   C19       1.0  0.3103501749305764  0.30608319151779284  0.11358649927939278  1.0000
  C   C20       1.0  0.3469893226662253  0.2770995398126105  0.05665800349290624  1.0000
  C   C21       1.0  0.2931908253588561  0.22404274538954647  0.9499158062388138  1.0000
  C   C22       1.0  0.1993397695085122  0.19604816662517527  0.8933237876963889  1.0000
  C   C23       1.0  0.2999786526224  0.21119767461286187  0.47462554430264714  1.0000
  C   C24       1.0  0.1637712105856366  0.22502242802831768  0.9501663924638919  1.0000
  C   C25       1.0  0.0782237693759953  0.22253127927597657  0.9434806085203037  1.0000
  C   C26       1.0  0.13936227201825352  0.2833487693837498  0.06464042512764936  1.0000
  C   C27       1.0  0.7415837368556525  0.6649729747493325  0.4593565213687827  1.0000
  C   C28       1.0  0.35973325563669084  0.6369890031958787  0.5026532393571088  1.0000
  C   C29       1.0  0.6910211023847098  0.6963947723046859  0.49732058227967757  1.0000
  C   C30       1.0  0.6972869758805517  0.7858735904885137  0.536202184451767  1.0000
  C   C31       1.0  0.7512991320256718  0.8396553041952401  0.5367320753801084  1.0000
  C   C32       1.0  0.8025518707108859  0.8073277251117831  0.4984861917663185  1.0000
  C   C33       1.0  0.7957548672939866  0.718841664969105  0.45994714043921203  1.0000
  C   C34       1.0  0.3024894585902302  0.2367854019272784  0.5707058965389322  1.0000
  C   C35       1.0  0.8292645126986571  0.6463857071694293  0.41361378942770016  1.0000
  C   C36       1.0  0.76804298724133  0.5853952998165042  0.4131318950419145  1.0000
  C   C37       1.0  0.7548927032854494  0.3098399162510717  0.48370321039307396  1.0000
  C   C38       1.0  0.6929099092533093  0.3043681813274902  0.5049459937186712  1.0000
  C   C39       1.0  0.6854819072683257  0.24005706009766936  0.5227130841084391  1.0000
  C   C40       1.0  0.6344082936279278  0.6395040977435258  0.4982844992346571  1.0000
  C   C41       1.0  0.736858904744267  0.18418430243421827  0.5193922031204607  1.0000
  C   C42       1.0  0.8011305852992553  0.19199070276692962  0.4997712693002117  1.0000
  C   C43       1.0  0.8072981655902538  0.2555336614763065  0.48163588821097414  1.0000
  C   C44       1.0  0.8566385390378953  0.2978411999541493  0.45904454870001393  1.0000
  C   C45       1.0  0.2990564316249333  0.3302078799977792  0.5942461518197036  1.0000
  C   C46       1.0  0.7969242667755126  0.3589382924319722  0.46089523928403525  1.0000
  C   C47       1.0  0.13862876713533726  0.8627073160825846  0.49883317113373954  1.0000
  C   C48       1.0  0.8627864986137582  0.1396558475850398  0.5029226385930913  1.0000
  C   C49       1.0  0.861605204725059  0.8650459362479526  0.22592069067927437  1.0000
  C   C50       1.0  0.14233938114951175  0.1388673111482674  0.7794306606854422  1.0000
  C   C51       1.0  0.860986185815925  0.865148000745336  0.5004003505137935  1.0000
  C   C52       1.0  0.3540461134738209  0.3626610353728098  0.49881414742382923  1.0000
  C   C53       1.0  0.1417484540140137  0.14211667298751962  0.5028517029207223  1.0000
  C   C54       1.0  0.1923064183897978  0.26745490903612534  0.4293245373800546  1.0000
  C   C55       1.0  0.19471220714983425  0.2930744402757313  0.5254185739823998  1.0000
  C   C56       1.0  0.29620497539749385  0.3053124719904119  0.49766386454552974  1.0000
  C   C57       1.0  0.19864578492774146  0.19950508302503067  0.5030617102673249  1.0000
  C   C58       1.0  0.7162896236096613  0.11263794559990709  0.5289730320857161  1.0000
  C   C59       1.0  0.7261472281069177  0.6597145102836705  0.9494389719655563  1.0000
  C   C60       1.0  0.6983256961473857  0.6942300469567259  0.8917176717361956  1.0000
  C   C61       1.0  0.7255795439694311  0.7877401183934866  0.9474922190762743  1.0000
  O   O1        1.0  0.49952065664908946  0.49962649663591924  0.5029964913787525  1.0000
  O   O2        1.0  0.058274005828771194  0.1128850190167086  0.7359973399233938  1.0000
  O   O3        1.0  0.8940350702678617  0.8264214693868865  0.45055350439510317  1.0000
  O   O4        1.0  0.32617581566596243  0.3883547025741266  0.26972959466947105  1.0000
  O   O5        1.0  0.18086640101190446  0.1158825506083829  0.5600904459012385  1.0000
  O   O6        1.0  0.8737029483674661  0.9482909762166473  0.5515343911018961  1.0000
  O   O7        1.0  0.057758368114242814  0.12411422153194712  0.4447485674957791  1.0000
  O   O8        1.0  0.8869180472864145  0.9487823085322519  0.26986069048803835  1.0000
  O   O9        1.0  0.18134234982424857  0.12052690222166973  0.7346052488341004  1.0000
  O   O10       1.0  0.054521723020258234  0.8232933735660806  0.4328380492669197  1.0000
  O   O11       1.0  0.8932589394613544  0.1254921972975822  0.5718411028839441  1.0000
  O   O12       1.0  0.5993443532916275  0.36947361104191156  0.5512227272823084  1.0000
  O   O13       1.0  0.6200630579349493  0.5531628538566479  0.7342647739473664  1.0000
  O   O14       1.0  0.6300868973883668  0.3978327355445117  0.46055152833209706  1.0000
  O   O15       1.0  0.4436278205630799  0.676454245548669  0.5690855365599533  1.0000
  O   O16       1.0  0.6211405887287783  0.5563888347707999  0.44528206225918177  1.0000
  O   O17       1.0  0.31652884541631465  0.3771293586347467  0.42996160904201025  1.0000
  O   O18       1.0  0.6043225360212292  0.6777480252885583  0.5517095006169443  1.0000
  O   O19       1.0  0.4373124274214106  0.3924032334543242  0.5692771657235839  1.0000
  O   O20       1.0  0.6693226230687372  0.10969629041211701  0.5573664113864683  1.0000
  O   O21       1.0  0.3193693087794785  0.5531151862782907  0.437388945465827  1.0000
  O   O22       1.0  0.4514510988630178  0.3803022360001549  0.27317614074227964  1.0000
  O   O23       1.0  0.6213140215755645  0.6762149346296624  0.7332518700690543  1.0000
  O   O24       1.0  0.0022615767882996018  0.0037065970638253012  0.5023671622205799  1.0000
  O   O25       1.0  0.1789892075222356  0.9463780501726548  0.564639922138632  1.0000
  O   O26       1.0  0.8812505374228793  0.1161540451191314  0.438045698383583  1.0000
  O   O27       1.0  0.8797079195922921  0.8256017698107173  0.27013999297760444  1.0000
