data_image0
_chemical_formula_structural       Bi4H40C52S4O12F12
_chemical_formula_sum              "Bi4 H40 C52 S4 O12 F12"
_cell_length_a       8.438655164
_cell_length_b       8.986833471
_cell_length_c       18.95
_cell_angle_alpha    90.0
_cell_angle_beta     90.0
_cell_angle_gamma    90.0

_space_group_name_H-M_alt    "P 1"
_space_group_IT_number       1

loop_
  _space_group_symop_operation_xyz
  'x, y, z'

loop_
  _atom_site_type_symbol
  _atom_site_label
  _atom_site_symmetry_multiplicity
  _atom_site_fract_x
  _atom_site_fract_y
  _atom_site_fract_z
  _atom_site_occupancy
  Bi  Bi1       1.0  0.4161125122140348  0.4467591407981502  0.5314754617414224  1.0000
  Bi  Bi2       1.0  0.5838904309089514  0.9467606167907832  0.4685245382585776  1.0000
  Bi  Bi3       1.0  0.0838877743245092  0.9467628422687611  0.0314754617414224  1.0000
  Bi  Bi4       1.0  0.9161116137296403  0.44676581723209097  0.9685255936675433  1.0000
  H   H1        1.0  0.0668139637231917  0.1002867142145547  0.7639477572559343  1.0000
  H   H2        1.0  0.9331877943768563  0.6002826265122394  0.23605065963060667  1.0000
  H   H3        1.0  0.4331792126776861  0.6002804010342615  0.2639456464379961  1.0000
  H   H4        1.0  0.5668178053305724  0.100277812302636  0.7360532981530312  1.0000
  H   H5        1.0  0.8737648187658564  0.1007540645903688  0.6423984168865431  1.0000
  H   H6        1.0  0.1262381243571369  0.6007555405830018  0.3576021108179432  1.0000
  H   H7        1.0  0.6262360408497898  0.6007566533219872  0.1423973614775704  1.0000
  H   H8        1.0  0.3737562370666865  0.1007551773293542  0.8576005277044844  1.0000
  H   H9        1.0  0.2643347733316617  0.9681341073110873  0.6896490765171492  1.0000
  H   H10       1.0  0.7356622446765968  0.4681337440574466  0.3103519788918234  1.0000
  H   H11       1.0  0.2356595880921546  0.4681337440574466  0.1896443271767794  1.0000
  H   H12       1.0  0.7643409849849405  0.9681318818331093  0.8103567282321933  1.0000
  H   H13       1.0  0.7126242135896774  0.3794439955968798  0.427533509234827  1.0000
  H   H14       1.0  0.2873787295333088  0.8794421333725424  0.5724680738786248  1.0000
  H   H15       1.0  0.7873790160718528  0.8794432461115278  0.9275329815303408  1.0000
  H   H16       1.0  0.2126239270511334  0.3794417701188948  0.0724670184696592  1.0000
  H   H17       1.0  0.016864061539934  0.3713332410986183  0.7451065963060657  1.0000
  H   H18       1.0  0.983136511537161  0.871329153396303  0.2548918205804753  1.0000
  H   H19       1.0  0.4831326699297733  0.8713269279183251  0.2451065963060657  1.0000
  H   H20       1.0  0.5168667181243762  0.3713243391866996  0.7548939313984135  1.0000
  H   H21       1.0  0.0430886193277829  0.0933888452154221  0.5344591029023746  1.0000
  H   H22       1.0  0.9569119537493193  0.5933914339470476  0.4655408970976254  1.0000
  H   H23       1.0  0.456915222279605  0.5933892084690626  0.0344575197889156  1.0000
  H   H24       1.0  0.5430829807515991  0.0933877324764296  0.9655387862796799  1.0000
  H   H25       1.0  0.1605670540704622  0.5067680417909486  0.6510279683377291  1.0000
  H   H26       1.0  0.8394370740754695  0.0067665657983156  0.3489688654353529  1.0000
  H   H27       1.0  0.3394308624221907  0.0067687912762935  0.1510295514511881  1.0000
  H   H28       1.0  0.6605637855401767  0.5067647035739782  0.8489699208443257  1.0000
  H   H29       1.0  0.4099018069557445  0.1029205674039346  0.5965013192612147  1.0000
  H   H30       1.0  0.5900999511443032  0.6029242688745455  0.4034986807387853  1.0000
  H   H31       1.0  0.0900961095369155  0.6029264943525305  0.0964965699208449  1.0000
  H   H32       1.0  0.9098997234483974  0.1029272438378754  0.9035039577836415  1.0000
  H   H33       1.0  0.9625917687279468  0.23796368397177053  0.42818364116094904  1.0000
  H   H34       1.0  0.0374076193262027  0.737966272703396  0.5718174142480237  1.0000
  H   H35       1.0  0.5374114609335905  0.7379629344864256  0.9281820580474901  1.0000
  H   H36       1.0  0.4625902971664573  0.2379614584937926  0.071814775725592  1.0000
  H   H37       1.0  0.6272681958354767  0.2471905156770191  0.643471767810027  1.0000
  H   H38       1.0  0.372733562264564  0.7471897661916742  0.3565287598944593  1.0000
  H   H39       1.0  0.8727302937342785  0.7471931044086446  0.1434728232189997  1.0000
  H   H40       1.0  0.1272631692051434  0.247194966632982  0.8565277044854868  1.0000
  C   C1        1.0  0.1311346391686712  0.1610133318559193  0.7231794195250671  1.0000
  C   C2        1.0  0.868868303954315  0.6610103568925894  0.2768205804749329  1.0000
  C   C3        1.0  0.3688609072780906  0.6610114696315819  0.22317678100263552  1.0000
  C   C4        1.0  0.6311372957531134  0.161007768160971  0.7768226912928782  1.0000
  C   C5        1.0  0.8385625271415549  0.1613616191597984  0.5952232189973614  1.0000
  C   C6        1.0  0.1614404159814313  0.6613630951524314  0.4047788918205839  1.0000
  C   C7        1.0  0.6614371474511387  0.6613630951524314  0.0952221635883888  1.0000
  C   C8        1.0  0.3385551304653376  0.1613616191597984  0.904775725593666  1.0000
  C   C9        1.0  0.2408168079517452  0.0860536697932091  0.6810284960422166  1.0000
  C   C10       1.0  0.7591837651253499  0.5860518075688717  0.3189720316622697  1.0000
  C   C11       1.0  0.2591787384950166  0.5860506948298863  0.1810248021108194  1.0000
  C   C12       1.0  0.7408218345820785  0.0860492188372532  0.8189757255936669  1.0000
  C   C13       1.0  0.7464566186887751  0.3191569098565736  0.4751092348284942  1.0000
  C   C14       1.0  0.2535486944801022  0.8191550476322362  0.5248923482849577  1.0000
  C   C15       1.0  0.7535477959957079  0.8191561603712287  0.9751087071240078  1.0000
  C   C16       1.0  0.24645159205844178  0.3191535716396032  0.0248907651715058  1.0000
  C   C17       1.0  0.103130176916423  0.3126607396328396  0.7124580474934064  1.0000
  C   C18       1.0  0.8968739512295087  0.8126577646695097  0.2875419525065936  1.0000
  C   C19       1.0  0.396867739576237  0.8126577646695097  0.21245699208443367  1.0000
  C   C20       1.0  0.6031304634549671  0.3126562886768767  0.7875435356200526  1.0000
  C   C21       1.0  0.9334579796084697  0.1574904002135114  0.5348306068601616  1.0000
  C   C22       1.0  0.0665449635145237  0.657490763467159  0.4651704485488111  1.0000
  C   C23       1.0  0.5665440650301221  0.6574896507281665  0.0348300791556753  1.0000
  C   C24       1.0  0.4334517679551908  0.1574881747355334  0.9651678100263865  1.0000
  C   C25       1.0  0.6493439882905037  0.3214024171384366  0.535310817941955  1.0000
  C   C26       1.0  0.3506565847865915  0.8213994421751067  0.46469129287599026  1.0000
  C   C27       1.0  0.8506568713251426  0.8214027803920771  0.035310817941955  1.0000
  C   C28       1.0  0.14934251672900703  0.3214024171384366  0.9646897097625313  1.0000
  C   C29       1.0  0.18420352174494783  0.3887431553364777  0.6592379947229574  1.0000
  C   C30       1.0  0.815800606400984  0.8887424058511328  0.340760949868077  1.0000
  C   C31       1.0  0.3157943947477051  0.8887435185901182  0.1592385224274437  1.0000
  C   C32       1.0  0.6842014382376078  0.3887409298584998  0.8407625329815289  1.0000
  C   C33       1.0  0.3227516644617836  0.1625489116621495  0.6281393139841711  1.0000
  C   C34       1.0  0.6772512786612097  0.6625503876547825  0.3718606860158289  1.0000
  C   C35       1.0  0.1772450670079309  0.6625503876547825  0.1281366754617395  1.0000
  C   C36       1.0  0.8227519510003276  0.1625500244011349  0.8718649076517125  1.0000
  C   C37       1.0  0.2951394448045477  0.3142497309105892  0.6169905013192647  1.0000
  C   C38       1.0  0.7048658683643296  0.8142512069032222  0.3830089709762561  1.0000
  C   C39       1.0  0.2048596567110508  0.8142545451201926  0.116989445910292  1.0000
  C   C40       1.0  0.795133806228371  0.3142519563885671  0.8830110817941943  1.0000
  C   C41       1.0  0.887930583058484  0.23795589479884427  0.4750343007915561  1.0000
  C   C42       1.0  0.1120747301103933  0.7379562580524848  0.5249667546174166  1.0000
  C   C43       1.0  0.6120726466030533  0.7379551453134994  0.9750332453825834  1.0000
  C   C44       1.0  0.3879255564281507  0.2379536693208664  0.0249651715039576  1.0000
  C   C45       1.0  0.2190455663937598  0.1982333383331039  0.3189899736147765  1.0000
  C   C46       1.0  0.7809550066833353  0.698230363369774  0.6810094986807371  1.0000
  C   C47       1.0  0.2809547201447913  0.698232588847759  0.8189899736147765  1.0000
  C   C48       1.0  0.7190434828864127  0.1982322255941114  0.1810110817941961  1.0000
  C   C49       1.0  0.6983636474613988  0.24407150828799468  0.5956126649076552  1.0000
  C   C50       1.0  0.301640480684533  0.7440718715416352  0.4043894459102901  1.0000
  C   C51       1.0  0.8016372121542474  0.7440740970196202  0.0956121372031689  1.0000
  C   C52       1.0  0.1983574358081199  0.2440748465049651  0.9043873350923447  1.0000
  S   S1        1.0  0.3938660764548345  0.2342426847891446  0.3769915567282354  1.0000
  S   S2        1.0  0.6061380516910972  0.7342419353037997  0.6230079155672854  1.0000
  S   S3        1.0  0.1061342100837166  0.7342452735207701  0.8769915567282354  1.0000
  S   S4        1.0  0.8938639929474874  0.23424491026712246  0.1230094986807373  1.0000
  O   O1        1.0  0.324914331337645  0.244715784163219  0.4487245382585741  1.0000
  O   O2        1.0  0.675089796808294  0.744717260155852  0.5512754617414259  1.0000
  O   O3        1.0  0.1750883252467972  0.7447228238508004  0.9487234828496015  1.0000
  O   O4        1.0  0.8249122478302979  0.2447224605971527  0.0512765171503986  1.0000
  O   O5        1.0  0.4902368824891141  0.0981981031302865  0.3678321899736119  1.0000
  O   O6        1.0  0.5097660606338792  0.5981995791229267  0.6321662269129291  1.0000
  O   O7        1.0  0.0097610340035459  0.5982018046009046  0.867833773087071  1.0000
  O   O8        1.0  0.9902359840047127  0.0982003286082715  0.1321678100263881  1.0000
  O   O9        1.0  0.462955284233722  0.3695650988434807  0.3498321899736112  1.0000
  O   O10       1.0  0.5370500289351554  0.8695632366191433  0.6501678100263888  1.0000
  O   O11       1.0  0.0370450023048221  0.8695643493581287  0.849830079155673  1.0000
  O   O12       1.0  0.9629532007263819  0.3695650988434807  0.1501704485488133  1.0000
  F   F1        1.0  0.1450396984132496  0.0711908151035132  0.3378401055408986  1.0000
  F   F2        1.0  0.8549620596867911  0.5711867274011908  0.6621588390501287  1.0000
  F   F3        1.0  0.35496177314824  0.5711889528791758  0.8378395778364123  1.0000
  F   F4        1.0  0.6450387999288552  0.0711874768865428  0.162162532981533  1.0000
  F   F5        1.0  0.2677381592316479  0.1870925955650193  0.2513155672823189  1.0000
  F   F6        1.0  0.7322659689142839  0.6870873951237115  0.7486833773087085  1.0000
  F   F7        1.0  0.2322609422839577  0.6870907333406819  0.7513150395778396  1.0000
  F   F8        1.0  0.7677372607472535  0.1870959337819897  0.2486849604221604  1.0000
  F   F9        1.0  0.1148619040786301  0.3125906370764682  0.3238997361477587  1.0000
  F   F10       1.0  0.8851410390443561  0.8125843238961679  0.676099736147755  1.0000
  F   F11       1.0  0.3851395674828666  0.8125887748521308  0.8238992084432724  1.0000
  F   F12       1.0  0.6148538954565552  0.3125872988594978  0.176099736147755  1.0000
