data_image0
_chemical_formula_structural       Cd2H44C64N16O8
_chemical_formula_sum              "Cd2 H44 C64 N16 O8"
_cell_length_a       8.803009721
_cell_length_b       14.011673990752623
_cell_length_c       14.37
_cell_angle_alpha    90.0
_cell_angle_beta     90.0
_cell_angle_gamma    107.73585772131923

_space_group_name_H-M_alt    "P 1"
_space_group_IT_number       1

loop_
  _space_group_symop_operation_xyz
  'x, y, z'

loop_
  _atom_site_type_symbol
  _atom_site_label
  _atom_site_symmetry_multiplicity
  _atom_site_fract_x
  _atom_site_fract_y
  _atom_site_fract_z
  _atom_site_occupancy
  Cd  Cd1       1.0  0.5000009519261043  0.5000024944713672  0.9999965205288817  1.0000
  Cd  Cd2       1.0  2.9573444209484023e-06  0.5000054916884338  0.5000006958942222  1.0000
  H   H1        1.0  0.8847739130354597  0.5950412503758855  0.3121809324982578  1.0000
  H   H2        1.0  0.615212353697018  0.4049607413497824  0.8121816283924872  1.0000
  H   H3        1.0  0.1152304008177012  0.4049569948284527  0.6878169798190683  1.0000
  H   H4        1.0  0.38477414787366376  0.5950382531588189  0.1878072372999284  1.0000
  H   H5        1.0  0.9790189318422479  0.7522512798534392  0.2155615866388274  1.0000
  H   H6        1.0  0.5209585643917906  0.24775370908929517  0.7155594989561606  1.0000
  H   H7        1.0  0.020985110725312922  0.2477417202210361  0.7844251913709144  1.0000
  H   H8        1.0  0.47902384863164843  0.7522415388979837  0.28443632567849864  1.0000
  H   H9        1.0  0.2299030004482533  0.8842936776387234  0.2611858037578259  1.0000
  H   H10       1.0  0.2700835979099239  0.11570906339120768  0.7611885873347219  1.0000
  H   H11       1.0  0.7701070853143008  0.11570007174001519  0.7387981906750198  1.0000
  H   H12       1.0  0.7299060863174275  0.8842824380747343  0.23881350034794477  1.0000
  H   H13       1.0  0.6221307129428055  0.8934996298529467  0.5013576896311775  1.0000
  H   H14       1.0  0.877870638768691  0.1065053590897875  0.0013681280445396998  1.0000
  H   H15       1.0  0.3778606038139358  0.10650460978552448  0.498640918580378  1.0000
  H   H16       1.0  0.1221416729271922  0.8934906382017543  0.9986423103688225  1.0000
  H   H17       1.0  0.5183367017686109  0.7330518566412536  0.5854008350730666  1.0000
  H   H18       1.0  0.9816716038443118  0.2669463885630918  0.0854140570633248  1.0000
  H   H19       1.0  0.4816625207970517  0.2669546309100141  0.414598469032704  1.0000
  H   H20       1.0  0.01833693660682206  0.7330488594241871  0.9145915100904674  1.0000
  H   H21       1.0  0.6223400072954633  0.0044478701240109  0.3913187195546257  1.0000
  H   H22       1.0  0.8776434861166608  0.9955601160357901  0.8913249826026473  1.0000
  H   H23       1.0  0.37765885195079113  0.9955578681229866  0.6086757132915821  1.0000
  H   H24       1.0  0.1223566471554349  0.0044388784728184  0.1086805845511449  1.0000
  H   H25       1.0  0.7747212247649102  0.2673877287758657  0.2958107167710509  1.0000
  H   H26       1.0  0.7252799016779079  0.7326097671242096  0.7958176757132946  1.0000
  H   H27       1.0  0.22526264153614053  0.7326105164284726  0.7041864996520529  1.0000
  H   H28       1.0  0.2747416358696313  0.2673794864289363  0.2042059846903257  1.0000
  H   H29       1.0  0.9355142583071085  0.4394354813322109  0.2484801670146126  1.0000
  H   H30       1.0  0.5645053150231761  0.5605672596977271  0.7484787752261681  1.0000
  H   H31       1.0  0.06447896708047554  0.5605680090019902  0.7515233124565057  1.0000
  H   H32       1.0  0.43552067439102166  0.4394264896810185  0.2515427974947784  1.0000
  H   H33       1.0  0.8356156358418403  0.5245152342350039  0.1182519137091163  1.0000
  H   H34       1.0  0.664384671928353  0.4754852588821378  0.618238691718858  1.0000
  H   H35       1.0  0.1643825427825192  0.4754867574906639  0.8817473903966615  1.0000
  H   H36       1.0  0.3356208699337344  0.5245084904966076  0.3817703549060525  1.0000
  H   H37       1.0  0.4465366483651465  0.272874134612799  0.0750250521920677  1.0000
  H   H38       1.0  0.05345876169253221  0.7271420938939314  0.57502087682672  1.0000
  H   H39       1.0  0.5534580303000496  0.7271323529384688  0.9249728601252585  1.0000
  H   H40       1.0  0.9465363723258733  0.2728606471360067  0.42497842727905066  1.0000
  H   H41       1.0  0.6584591888626363  0.11796147201533097  0.2903409881697954  1.0000
  H   H42       1.0  0.8415387089066114  0.8820457648401996  0.7903347251217809  1.0000
  H   H43       1.0  0.3415329005498222  0.8820420183188701  0.7096534446764124  1.0000
  H   H44       1.0  0.15847123880523378  0.11795472827693487  0.2096673625608929  1.0000
  C   C1        1.0  0.9960455086394334  0.6534839859204381  0.3280751565761975  1.0000
  C   C2        1.0  0.5039449846910173  0.3465150085881703  0.8280765483646491  1.0000
  C   C3        1.0  0.003967621729074699  0.3465090141540371  0.6719178844815589  1.0000
  C   C4        1.0  0.49604378882990113  0.6534839859204381  0.1719220598469064  1.0000
  C   C5        1.0  0.04806561458601515  0.7416029169268368  0.2752359081419655  1.0000
  C   C6        1.0  0.4519210297890624  0.2583975761903048  0.7752386917188615  1.0000
  C   C7        1.0  0.9519430639158273  0.2583855873220458  0.7247529575504501  1.0000
  C   C8        1.0  0.5480673804124551  0.7416006690140335  0.2247613082811384  1.0000
  C   C9        1.0  0.18708417284993575  0.814546937934665  0.30014335421015653  1.0000
  C   C10       1.0  0.3129066060893066  0.1854550537910029  0.8001489213639559  1.0000
  C   C11       1.0  0.8129171424141789  0.18544980866113994  0.6998462073764813  1.0000
  C   C12       1.0  0.6870841220793481  0.814540943500532  0.1998503827418219  1.0000
  C   C13       1.0  0.27741676284482963  0.7994049973238049  0.3774265831593624  1.0000
  C   C14       1.0  0.2225748347670375  0.2005939971847965  0.8774356297842729  1.0000
  C   C15       1.0  0.7225856423775028  0.2005939971847965  0.6225657620041786  1.0000
  C   C16       1.0  0.7774147574265057  0.7994020001067453  0.1225664578984009  1.0000
  C   C17       1.0  0.2176090331672782  0.7060933877528226  0.4258030619345874  1.0000
  C   C18       1.0  0.2823901069340948  0.293907105364319  0.9258107167710535  1.0000
  C   C19       1.0  0.7823898720958911  0.2939101025813784  0.5741955462769681  1.0000
  C   C20       1.0  0.7176005752176523  0.7060911398400265  0.074185107863606  1.0000
  C   C21       1.0  0.42607280613799503  0.8694881746433794  0.4062254697286036  1.0000
  C   C22       1.0  0.0739176094818461  0.1305130677780184  0.9062310368823958  1.0000
  C   C23       1.0  0.5739253724863643  0.1305138170822886  0.5937724425887296  1.0000
  C   C24       1.0  0.9260799345375191  0.8694829295135165  0.0937731384829519  1.0000
  C   C25       1.0  0.5077855678019674  0.8411045290406918  0.480249130132222  1.0000
  C   C26       1.0  0.9922089680588331  0.1589004599020427  0.9802574808629103  1.0000
  C   C27       1.0  0.4922087475438275  0.15890120920631287  0.5197480862908819  1.0000
  C   C28       1.0  0.007793437163492453  0.8410985346065585  0.0197487821851112  1.0000
  C   C29       1.0  0.45037008077177637  0.7510913568494004  0.5282143354210191  1.0000
  C   C30       1.0  0.0496340125663721  0.24890763765920093  0.028226861517047997  1.0000
  C   C31       1.0  0.5496378662754182  0.2489143813975971  0.4717814892136403  1.0000
  C   C32       1.0  0.9503778897932025  0.7510898582408743  0.9717814892136403  1.0000
  C   C33       1.0  0.3024397308136387  0.6803517889926596  0.5054530271398718  1.0000
  C   C34       1.0  0.1975609085822541  0.31964945342874523  0.0054662491301301  1.0000
  C   C35       1.0  0.6975655349470103  0.3196554478628712  0.4945462769658988  1.0000
  C   C36       1.0  0.8024380426978156  0.6803517889926596  0.9945372303409883  1.0000
  C   C37       1.0  0.5028149203226207  0.9652957167249949  0.3640800278357688  1.0000
  C   C38       1.0  0.9971683478208109  0.0347047763921395  0.8640869867780125  1.0000
  C   C39       1.0  0.4971745798371072  0.0347047763921395  0.635914405010439  1.0000
  C   C40       1.0  0.002837920680079285  0.965290471595132  0.1359220598469051  1.0000
  C   C41       1.0  0.48730303395395685  0.1531765246127392  0.207907446068198  1.0000
  C   C42       1.0  0.012700783282760038  0.8468359573726614  0.7079067501739758  1.0000
  C   C43       1.0  0.5126913274087386  0.8468269657214618  0.7920904662491282  1.0000
  C   C44       1.0  0.9873083457564603  0.15316753296154664  0.2920995128740458  1.0000
  C   C45       1.0  0.5992648687341813  0.2546652916404852  0.18647320807237117  1.0000
  C   C46       1.0  0.9007303937654214  0.7453411959107825  0.6864732080723712  1.0000
  C   C47       1.0  0.40072831063648806  0.7453404466065121  0.8135254001391772  1.0000
  C   C48       1.0  0.09927728199618001  0.2546592972063593  0.313540013917887  1.0000
  C   C49       1.0  0.7374789117055158  0.303463731975107  0.2367098121085576  1.0000
  C   C50       1.0  0.7625209407114611  0.6965405076633644  0.7367105080027869  1.0000
  C   C51       1.0  0.2625138583288448  0.6965435048804238  0.7632874043145462  1.0000
  C   C52       1.0  0.23749255297644822  0.3034532417153812  0.2633027139874713  1.0000
  C   C53       1.0  0.8264944611589016  0.400345027070152  0.2112874043145467  1.0000
  C   C54       1.0  0.6735182963206797  0.5996577139597858  0.7112860125260951  1.0000
  C   C55       1.0  0.17350712539080598  0.5996569646555228  0.7887091162143349  1.0000
  C   C56       1.0  0.3264981959562689  0.40033753402748556  0.288724425887267  1.0000
  C   C57       1.0  0.7717817159459983  0.4479026195399811  0.139361169102294  1.0000
  C   C58       1.0  0.7282279969276361  0.5521008707942201  0.6393535142658351  1.0000
  C   C59       1.0  0.22821569002264405  0.5521001214899499  0.8606367432150321  1.0000
  C   C60       1.0  0.2717900866776475  0.44789063067172197  0.360661795407097  1.0000
  C   C61       1.0  0.5547461287489384  0.30826452440848573  0.1145629784272799  1.0000
  C   C62       1.0  0.9452603554511184  0.6917487068811778  0.6145594989561616  1.0000
  C   C63       1.0  0.4452538664724345  0.6917412138385117  0.8854321503131501  1.0000
  C   C64       1.0  0.05473786919014148  0.30825103693169337  0.3854405010438385  1.0000
  N   N1        1.0  0.07906989330015077  0.6367175536605174  0.4001593597773123  1.0000
  N   N2        1.0  0.42092697485099245  0.36328293945662427  0.9001628392484378  1.0000
  N   N3        1.0  0.9209346918386032  0.3632859366736838  0.5998385525400138  1.0000
  N   N4        1.0  0.5790561648112487  0.6367138071391877  0.0998315935977701  1.0000
  N   N5        1.0  0.6363646625367423  0.4028484526234379  0.0926235212247732  1.0000
  N   N6        1.0  0.8636448662692616  0.5971640293619558  0.5926130828114111  1.0000
  N   N7        1.0  0.3636333780368943  0.597160282840626  0.9073750869867752  1.0000
  N   N8        1.0  0.1363533583719985  0.4028357144509158  0.40739178844815876  1.0000
  N   N9        1.0  0.4416059064937556  0.006412545909924499  0.2982651356993742  1.0000
  N   N10       1.0  0.0583805998306133  0.9935946909456133  0.7982679192762703  1.0000
  N   N11       1.0  0.5583891815077494  0.99359244303281  0.7017292971468336  1.0000
  N   N12       1.0  0.9416233046862386  0.0064050528672581  0.2017341684064036  1.0000
  N   N13       1.0  0.5400534696931061  0.0970596295103903  0.2689318023660405  1.0000
  N   N14       1.0  0.9599417007726885  0.9029513538664702  0.7689318023660405  1.0000
  N   N15       1.0  0.45994089166958924  0.9029438608238108  0.7310605427974934  1.0000
  N   N16       1.0  0.040065565652611206  0.0970506378591978  0.2310702853166333  1.0000
  O   O1        1.0  0.2445497641034393  0.5979605397969009  0.5513716075156552  1.0000
  O   O2        1.0  0.2554546465372027  0.4020414519287669  0.051378566457899  1.0000
  O   O3        1.0  0.7554601375914916  0.4020422012330371  0.4486276965901154  1.0000
  O   O4        1.0  0.7445366702195387  0.5979627877096974  0.948615866388309  1.0000
  O   O5        1.0  0.3511052412654081  0.1258216737675042  0.17171189979123366  1.0000
  O   O6        1.0  0.1489038925274855  0.8741900589136263  0.6717230340988181  1.0000
  O   O7        1.0  0.6488955726285823  0.8741810672624339  0.8282776617954042  1.0000
  O   O8        1.0  0.8510873782123554  0.1258164286376413  0.3282748782185081  1.0000
