data_image0
_chemical_formula_structural       Zn2H32C32S4N20
_chemical_formula_sum              "Zn2 H32 C32 S4 N20"
_cell_length_a       9.11134000795661
_cell_length_b       9.033362105849545
_cell_length_c       13.82569824301541
_cell_angle_alpha    89.99991842302126
_cell_angle_beta     89.99991113584652
_cell_angle_gamma    120.28598428129472

_space_group_name_H-M_alt    "P 1"
_space_group_IT_number       1

loop_
  _space_group_symop_operation_xyz
  'x, y, z'

loop_
  _atom_site_type_symbol
  _atom_site_label
  _atom_site_symmetry_multiplicity
  _atom_site_fract_x
  _atom_site_fract_y
  _atom_site_fract_z
  _atom_site_occupancy
  Zn  Zn1       1.0  1.1038756327000001e-06  1.1102192303000003e-06  7.232896947999998e-07  1.0000
  Zn  Zn2       1.0  0.49999861881205754  0.9999985331877144  0.5000000654953709  1.0000
  H   H1        1.0  0.3533728902212802  0.7067446803735465  0.2721709157464502  1.0000
  H   H2        1.0  0.14662778446760427  0.2932559522823155  0.7721705542622386  1.0000
  H   H3        1.0  0.8533721145437096  0.7067447056857502  0.2278278725077456  1.0000
  H   H4        1.0  0.6466292165396369  0.2932581980313458  0.7278296808936914  1.0000
  H   H5        1.0  0.4665282890561925  0.9330571828401941  0.2511302238482429  1.0000
  H   H6        1.0  0.033469644957271796  0.066941965539165  0.7511301888608128  1.0000
  H   H7        1.0  0.966529780173751  0.9330569412203291  0.24886896120099777  1.0000
  H   H8        1.0  0.533470979948099  0.06694411610575206  0.7488718193756366  1.0000
  H   H9        1.0  0.7207900798632921  0.052829097928374015  0.13554646795862618  1.0000
  H   H10       1.0  0.7792083653641841  0.9471708925746399  0.6355468084629621  1.0000
  H   H11       1.0  0.8320394351868928  0.05282911430207107  0.3644541988986702  1.0000
  H   H12       1.0  0.6679601616487506  0.9471720611528271  0.8644546531802886  1.0000
  H   H13       1.0  0.2792113968956046  0.947174421459309  0.8644555752630936  1.0000
  H   H14       1.0  0.22078869589051206  0.052828185934487175  0.3644530648907533  1.0000
  H   H15       1.0  0.167959359940447  0.947170433438579  0.6355471210354862  1.0000
  H   H16       1.0  0.33203863348359164  0.05282748659273307  0.1355444968815434  1.0000
  H   H17       1.0  0.6792521214784699  0.5932563549855914  0.0322147475284709  1.0000
  H   H18       1.0  0.8207479043840848  0.4067452131714191  0.5322148255631233  1.0000
  H   H19       1.0  0.4140058478547956  0.5932530384539376  0.46778565103502956  1.0000
  H   H20       1.0  0.08599691817026683  0.4067458965796647  0.9677852458660609  1.0000
  H   H21       1.0  0.32074809529141396  0.4067484463824016  0.9677836792394172  1.0000
  H   H22       1.0  0.1792515207486075  0.5932536935897089  0.4677836012079125  1.0000
  H   H23       1.0  0.5859960972726058  0.4067433043629266  0.5322127757359141  1.0000
  H   H24       1.0  0.9140048708337433  0.5932528384269278  0.032214627485402  1.0000
  H   H25       1.0  0.4008725218498556  0.5125258398294366  0.1492809860243298  1.0000
  H   H26       1.0  0.09912477820458326  0.4874726590564578  0.6492804922444931  1.0000
  H   H27       1.0  0.6116556191209455  0.5125253686625583  0.3507188057146777  1.0000
  H   H28       1.0  0.8883470349589544  0.4874750561864902  0.8507201860113724  1.0000
  H   H29       1.0  0.5991267471611152  0.4874754591230542  0.8507181640364433  1.0000
  H   H30       1.0  0.9008746469297794  0.5125262477063118  0.3507172112357679  1.0000
  H   H31       1.0  0.38834553988939297  0.4874740073350096  0.6492788977644821  1.0000
  H   H32       1.0  0.11165396791965052  0.5125267119926206  0.14928258050218085  1.0000
  C   C1        1.0  0.4034490368891996  0.8068972171555303  0.21651795809493277  1.0000
  C   C2        1.0  0.0965490568188585  0.1931020877950473  0.7165184643909441  1.0000
  C   C3        1.0  0.903448634436188  0.8068963497296479  0.2834806856719752  1.0000
  C   C4        1.0  0.5965513359957342  0.19310519201455642  0.7834826385463174  1.0000
  C   C5        1.0  0.6755258755050734  0.9179349245023333  0.12211240869673647  1.0000
  C   C6        1.0  0.824473735582373  0.08206623699192765  0.6221127852969772  1.0000
  C   C7        1.0  0.7424098670872255  0.9179334541822329  0.37788752146040133  1.0000
  C   C8        1.0  0.7575902977661073  0.08206701951785077  0.8778886897545561  1.0000
  C   C9        1.0  0.3244767051311257  0.08206970510621403  0.877889634523896  1.0000
  C   C10       1.0  0.17552505954996894  0.9179333107536324  0.3778863647648619  1.0000
  C   C11       1.0  0.2575884541631553  0.08206434235312093  0.6221130751840462  1.0000
  C   C12       1.0  0.24241023124054825  0.9179329974608735  0.12211118359694947  1.0000
  C   C13       1.0  0.6477920761122747  0.6772349522864191  0.071271703081635  1.0000
  C   C14       1.0  0.85220839954588  0.3227657982059356  0.57127182715125  1.0000
  C   C15       1.0  0.5294440662947651  0.6772320363716062  0.4287285743280052  1.0000
  C   C16       1.0  0.9705571239855572  0.32276692537382684  0.928728577356935  1.0000
  C   C17       1.0  0.3522087706529504  0.3227692080922396  0.9287281702677815  1.0000
  C   C18       1.0  0.1477927594627957  0.6772335777899913  0.42872659961868453  1.0000
  C   C19       1.0  0.47055724882728384  0.32276494742478695  0.5712727456060591  1.0000
  C   C20       1.0  0.029443405021098053  0.6772330916048973  0.0712712959945705  1.0000
  C   C21       1.0  0.5073863068963433  0.63466529149283  0.1269702474298171  1.0000
  C   C22       1.0  0.9926156456550929  0.36533567627781594  0.6269694649646452  1.0000
  C   C23       1.0  0.6272805424515654  0.63466451190299  0.37302936810208814  1.0000
  C   C24       1.0  0.8727183848150732  0.3653372657415873  0.8730323247110474  1.0000
  C   C25       1.0  0.49261863761618224  0.36533916636609115  0.8730310724989181  1.0000
  C   C26       1.0  0.007383779477599708  0.6346632304833123  0.3730289618063977  1.0000
  C   C27       1.0  0.37271888268112735  0.3653343948581452  0.6269690586689478  1.0000
  C   C28       1.0  0.12728214418824277  0.6346627512338685  0.1269689952220148  1.0000
  C   C29       1.0  0.11875672971669357  0.2375122353453705  0.19762167402065953  1.0000
  C   C30       1.0  0.3812349840374764  0.762478101571581  0.6976199123048232  1.0000
  C   C31       1.0  0.6187592394672734  0.2375193974851442  0.30237851446952385  1.0000
  C   C32       1.0  0.8812425337641301  0.7624801358097456  0.8023825390797086  1.0000
  S   S1        1.0  0.1577249187256342  0.31544981219434487  0.3064862822508303  1.0000
  S   S2        1.0  0.3422730776421759  0.6845532291760393  0.8064860795454649  1.0000
  S   S3        1.0  0.6577260352504055  0.31545046197108917  0.19351234722351046  1.0000
  S   S4        1.0  0.8422762402730228  0.6845495637917695  0.6935164842637532  1.0000
  N   N1        1.0  0.5263525141279147  0.7887632350706185  0.1584745422705396  1.0000
  N   N2        1.0  0.9736464553104014  0.2112360107275321  0.6584753692994454  1.0000
  N   N3        1.0  0.7624114945900619  0.7887631726688443  0.34152485094806195  1.0000
  N   N4        1.0  0.7375882080350992  0.2112381065064852  0.8415266426917112  1.0000
  N   N5        1.0  0.4736484887556998  0.21123853311340215  0.8415260543706822  1.0000
  N   N6        1.0  0.026352339820270822  0.7887635370163864  0.34152450405316864  1.0000
  N   N7        1.0  0.23758730054228758  0.21123637507671597  0.6584742991137771  1.0000
  N   N8        1.0  0.2624110609691924  0.7887631924394611  0.15847540053216844  1.0000
  N   N9        1.0  0.7520341009310343  0.8532894783986862  0.0695342233530951  1.0000
  N   N10       1.0  0.7479657527459551  0.14671192094044028  0.569533894704918  1.0000
  N   N11       1.0  0.6012574675329817  0.8532874542052441  0.43046724664762337  1.0000
  N   N12       1.0  0.8987448186054652  0.1467126098987067  0.9304660405019046  1.0000
  N   N13       1.0  0.24796674583252104  0.1467146819783309  0.9304663732870961  1.0000
  N   N14       1.0  0.25203304238638696  0.85328762680512  0.4304652553569142  1.0000
  N   N15       1.0  0.3987432175903933  0.14671017057720803  0.5695340732864693  1.0000
  N   N16       1.0  0.10125634040154097  0.853286766095586  0.0695331095588045  1.0000
  N   N17       1.0  0.09099009893489551  0.1819793635493028  0.11749483871017928  1.0000
  N   N18       1.0  0.40900624390022955  0.8180181689053113  0.6174937201632744  1.0000
  N   N19       1.0  0.5909890834851623  0.18198044037555408  0.38250326002845003  1.0000
  N   N20       1.0  0.9090127939430775  0.818020481674886  0.8825064812217532  1.0000
