data_image0
_chemical_formula_structural       Al6H56C96N12O28
_chemical_formula_sum              "Al6 H56 C96 N12 O28"
_cell_length_a       12.225125621790351
_cell_length_b       12.707967473460602
_cell_length_c       27.761369523278752
_cell_angle_alpha    90.25154817323721
_cell_angle_beta     89.0568835172265
_cell_angle_gamma    61.383542739317186

_space_group_name_H-M_alt    "P 1"
_space_group_IT_number       1

loop_
  _space_group_symop_operation_xyz
  'x, y, z'

loop_
  _atom_site_type_symbol
  _atom_site_label
  _atom_site_symmetry_multiplicity
  _atom_site_fract_x
  _atom_site_fract_y
  _atom_site_fract_z
  _atom_site_occupancy
  Al  Al1       1.0  0.38630827401924966  0.4310025240660095  0.5036370311727651  1.0000
  Al  Al2       1.0  0.42820202017313147  0.6597653680372273  0.49937603320563534  1.0000
  Al  Al3       1.0  0.6538335484180707  0.41661756979481607  0.5008044722966289  1.0000
  Al  Al4       1.0  0.9394884271030008  0.9129162119817023  0.014725646775900696  1.0000
  Al  Al5       1.0  0.6759713789539106  0.9169707406841706  0.0148994942802432  1.0000
  Al  Al6       1.0  0.9056107353977935  0.6777873223372664  0.0161516030712221  1.0000
  H   H1        1.0  0.16507382298190992  0.482589000011984  0.7711182879706583  1.0000
  H   H2        1.0  0.8190888390405391  0.17977599471588226  0.3820042506056822  1.0000
  H   H3        1.0  0.9789146269581155  0.04603232356984678  0.22171138102820007  1.0000
  H   H4        1.0  0.9561734462213991  0.0965440754302449  0.3088224059312594  1.0000
  H   H5        1.0  0.4316265832279171  0.2799916876090122  0.37724003420477464  1.0000
  H   H6        1.0  0.060401394576992215  0.5392146511388345  0.14422748727243828  1.0000
  H   H7        1.0  0.12355535575828479  0.4262266449480164  0.31060067253880413  1.0000
  H   H8        1.0  0.13869050515624093  0.8319257124147722  0.1337278269137414  1.0000
  H   H9        1.0  0.21800367437060714  0.8952540408451523  0.2036137591874692  1.0000
  H   H10       1.0  0.26603616114666573  0.8813577360887874  0.29030469137012455  1.0000
  H   H11       1.0  0.2809560171845506  0.7850988237258743  0.3698338624044908  1.0000
  H   H12       1.0  0.9878103166903075  0.666283289828982  0.7134730682109875  1.0000
  H   H13       1.0  0.6287234703797469  0.36696099247028957  0.744058666084328  1.0000
  H   H14       1.0  0.4537423933037417  0.8089467265283543  0.7880747742528341  1.0000
  H   H15       1.0  0.37601434596712846  0.347352492392204  0.7917736983209095  1.0000
  H   H16       1.0  0.46282256295990726  0.3413121968646634  0.8389894215855661  1.0000
  H   H17       1.0  0.49532217378999394  0.13629953973923387  0.7268551353661222  1.0000
  H   H18       1.0  0.7151935766460013  0.9509199574244105  0.7690506539685201  1.0000
  H   H19       1.0  0.4379092628139461  0.4460924297421584  0.7432755526551063  1.0000
  H   H20       1.0  0.37887982395766084  0.4768693466694243  0.688085826780231  1.0000
  H   H21       1.0  0.3193385331831495  0.6920571892738534  0.8011286870541525  1.0000
  H   H22       1.0  0.5441180386095185  0.8975064444567733  0.1484391934178007  1.0000
  H   H23       1.0  0.1392682022310224  0.8768352450345916  0.7439994576183153  1.0000
  H   H24       1.0  0.5466818844423217  0.9505741611865871  0.7280011964587203  1.0000
  H   H25       1.0  0.622198798398273  0.8717661807238881  0.6786144302986442  1.0000
  H   H26       1.0  0.44922967975254113  0.9725918638786268  0.23029205566277966  1.0000
  H   H27       1.0  0.8057941116452909  0.5246512100167066  0.12481663312005511  1.0000
  H   H28       1.0  0.8471540421025805  0.332179875893921  0.34506437760088465  1.0000
  H   H29       1.0  0.7983029545901843  0.3894008696859287  0.4028147415068659  1.0000
  H   H30       1.0  0.5210684590008157  0.5841512536806447  0.7423436943173626  1.0000
  H   H31       1.0  0.39667799385783536  0.25436419123013815  0.13526188681620246  1.0000
  H   H32       1.0  0.49232557876258914  0.15333560694999449  0.09251651632752807  1.0000
  H   H33       1.0  0.25724863730803094  0.2556532287809716  0.21773965332752707  1.0000
  H   H34       1.0  0.9513937745939246  0.8351062060134421  0.7888658636140703  1.0000
  H   H35       1.0  0.3587294103095076  0.1537094170035473  0.1781176329716061  1.0000
  H   H36       1.0  0.34974996409358283  0.185599532340646  0.3438244069561732  1.0000
  H   H37       1.0  0.2882691673392088  0.17621983973631214  0.2909536002391063  1.0000
  H   H38       1.0  0.21592946079663025  0.46541490585423856  0.4244287990743984  1.0000
  H   H39       1.0  0.17364809558475972  0.41557919010275407  0.372815977428111  1.0000
  H   H40       1.0  0.034215680361057876  0.4390206896637847  0.1897709853480904  1.0000
  H   H41       1.0  0.03488458477007585  0.3861990104913529  0.2439525193877117  1.0000
  H   H42       1.0  0.7853439344200766  0.37531369368099365  0.7972854049965648  1.0000
  H   H43       1.0  0.7767072961542638  0.46358500810660513  0.8434945144088031  1.0000
  H   H44       1.0  0.875090254733891  0.5197929603566535  0.7291213287221153  1.0000
  H   H45       1.0  0.5119018772883165  0.7952918772693921  0.3859573596759063  1.0000
  H   H46       1.0  0.8080188002135388  0.7430265782997764  0.7753895523694465  1.0000
  H   H47       1.0  0.9444002971784754  0.14667231389629617  0.7671684297191277  1.0000
  H   H48       1.0  0.8952545161726349  0.14947883224194664  0.8237189084759962  1.0000
  H   H49       1.0  0.9446384976572803  0.9359603463822948  0.7149089919361344  1.0000
  H   H50       1.0  0.8682241799871165  0.013644030147588596  0.6669597004079577  1.0000
  H   H51       1.0  0.4439064820981286  0.936356016462362  0.3172673621195301  1.0000
  H   H52       1.0  0.852223809459673  0.37921051844482173  0.19252594476357385  1.0000
  H   H53       1.0  0.8488796216211013  0.34333545306303387  0.2780541505730483  1.0000
  H   H54       1.0  0.8880889556685574  0.0296483444619469  0.14548503611952407  1.0000
  H   H55       1.0  0.2936046495910318  0.3099654814088595  0.5237062224642982  1.0000
  H   H56       1.0  0.09550144035767974  0.9604935273048764  0.0356194563097816  1.0000
  C   C1        1.0  0.271511987549225  0.6446762615983771  0.5695642418018778  1.0000
  C   C2        1.0  0.655814373113145  0.6273678512806808  0.6603843235612741  1.0000
  C   C3        1.0  0.7769572727183416  0.08415422931218328  0.7311810955789682  1.0000
  C   C4        1.0  0.6177606335292084  0.6001322576193714  0.5688193567758403  1.0000
  C   C5        1.0  0.7675752487622347  0.17352098816233755  0.7727768147203093  1.0000
  C   C6        1.0  0.710587636473811  0.08519089168143518  0.897170743149907  1.0000
  C   C7        1.0  0.6266486787091666  0.23738523603922337  0.616627240985629  1.0000
  C   C8        1.0  0.6955207292808225  0.043166264402365984  0.7628387445258866  1.0000
  C   C9        1.0  0.687452221929803  0.13232232405955097  0.8046472046903689  1.0000
  C   C10       1.0  0.5742709376739229  0.14453090413624636  0.7406600231563445  1.0000
  C   C11       1.0  0.6540797476676518  0.18602179384686923  0.7087960447840017  1.0000
  C   C12       1.0  0.6449685632504158  0.6194355865843234  0.6170306049681713  1.0000
  C   C13       1.0  0.5634589359298661  0.233375143945011  0.7818012781076077  1.0000
  C   C14       1.0  0.6461700413967507  0.2754136199442314  0.7503275830984748  1.0000
  C   C15       1.0  0.701985210605166  0.10581096359164378  0.8541418420139164  1.0000
  C   C16       1.0  0.6000049886021301  0.2884763528031725  0.5693879033484776  1.0000
  C   C17       1.0  0.6387054141419881  0.2134084980311853  0.65934367141152  1.0000
  C   C18       1.0  0.06073833275620911  0.6720098108774619  0.7337298341774242  1.0000
  C   C19       1.0  0.1603328690505776  0.5696504933848274  0.7646680889392314  1.0000
  C   C20       1.0  0.10752436307095795  0.6641834199307082  0.8991973123431974  1.0000
  C   C21       1.0  0.2139202036926947  0.6864506713606031  0.6163584845541052  1.0000
  C   C22       1.0  0.04089609110398141  0.766791302266192  0.7738084190496578  1.0000
  C   C23       1.0  0.744650663301748  0.7073875273388665  0.7672304906513217  1.0000
  C   C24       1.0  0.14174947919448064  0.6637015827034599  0.8055704346609432  1.0000
  C   C25       1.0  0.14526892881276865  0.7893619389507476  0.7503315460709318  1.0000
  C   C26       1.0  0.1645081150313956  0.695632673204642  0.7090765055465554  1.0000
  C   C27       1.0  0.24562054855533694  0.6870772668338175  0.7811445710923621  1.0000
  C   C28       1.0  0.2819292914585888  0.6309383860000107  0.43213033954476987  1.0000
  C   C29       1.0  0.2661313409180296  0.592395240485942  0.7408210757666822  1.0000
  C   C30       1.0  0.12626480856172156  0.6572134848033712  0.8557793785049056  1.0000
  C   C31       1.0  0.18518101637663903  0.6992710948612594  0.6590862160351421  1.0000
  C   C32       1.0  0.5744349754035485  0.7237002537450503  0.36140750190713783  1.0000
  C   C33       1.0  0.5769227932357028  0.7464689320006173  0.3124416263080008  1.0000
  C   C34       1.0  0.6653434734884488  0.6842115877780724  0.8075075610828576  1.0000
  C   C35       1.0  0.5850293415246599  0.787731637539387  0.2119433531346431  1.0000
  C   C36       1.0  0.5065443265210307  0.883244598977555  0.24458192668620876  1.0000
  C   C37       1.0  0.5032405207968865  0.8629450749766714  0.2926499087918586  1.0000
  C   C38       1.0  0.5956233135320873  0.8074078020526796  0.16281892098169237  1.0000
  C   C39       1.0  0.6767564005104133  0.7132578214656036  0.1320837202900904  1.0000
  C   C40       1.0  0.6294465666128489  0.5933912065686113  0.4322060399319341  1.0000
  C   C41       1.0  0.731740538366246  0.5127374422653901  0.35006985978852617  1.0000
  C   C42       1.0  0.7287282196280814  0.5317623573500538  0.2991125225684711  1.0000
  C   C43       1.0  0.6544250953006525  0.6486223721951132  0.2806787932184278  1.0000
  C   C44       1.0  0.79811015492232  0.4355724616848348  0.26569322826460956  1.0000
  C   C45       1.0  0.7820516647219051  0.583849087965653  0.7428293259345722  1.0000
  C   C46       1.0  0.800106449093214  0.4546691285849886  0.2172892794954961  1.0000
  C   C47       1.0  0.7340274574671783  0.5726921556635032  0.19813484569698403  1.0000
  C   C48       1.0  0.6573048137768325  0.6694070191477547  0.23034308681528157  1.0000
  C   C49       1.0  0.7439049160251371  0.5965479867796685  0.14940797848861107  1.0000
  C   C50       1.0  0.649398017523538  0.610230852473883  0.3810361604058911  1.0000
  C   C51       1.0  0.7402276423623989  0.18969736130835457  0.36101589777309323  1.0000
  C   C52       1.0  0.5987807143925962  0.28946677053033193  0.4327142344714402  1.0000
  C   C53       1.0  0.7564261279906149  0.1569252376004114  0.3120687423516841  1.0000
  C   C54       1.0  0.7835864376102961  0.09891521926453346  0.21214815825209846  1.0000
  C   C55       1.0  0.8879715763658851  0.08316232235753059  0.2398774857877513  1.0000
  C   C56       1.0  0.6632788549299776  0.643326300039014  0.7103786845034532  1.0000
  C   C57       1.0  0.8753446426092921  0.11121609763819859  0.2878448716596579  1.0000
  C   C58       1.0  0.7969093838931229  0.06852414032596238  0.16338532808588008  1.0000
  C   C59       1.0  0.6945960910604825  0.08749569685583229  0.13563607991184767  1.0000
  C   C60       1.0  0.5215936501735216  0.24218804995170723  0.3584134326120462  1.0000
  C   C61       1.0  0.5347141453677083  0.20735088262640022  0.3097113722008089  1.0000
  C   C62       1.0  0.6515262302252723  0.16986377870468056  0.2852426983490304  1.0000
  C   C63       1.0  0.43606140327631954  0.20387633797619026  0.2840097597279581  1.0000
  C   C64       1.0  0.6227093922398694  0.7695663658427917  0.7353745752403994  1.0000
  C   C65       1.0  0.4435318363307986  0.18649787643551005  0.23426523174479996  1.0000
  C   C66       1.0  0.5576510103297354  0.15915559448082203  0.20809821309634197  1.0000
  C   C67       1.0  0.7036633649992795  0.5580668852556058  0.7829960994947313  1.0000
  C   C68       1.0  0.6636368426772492  0.14299219208422184  0.2350819334261303  1.0000
  C   C69       1.0  0.5727893097204416  0.14025785910094157  0.1569057469613284  1.0000
  C   C70       1.0  0.622627966740673  0.23624923829031982  0.383472239544396  1.0000
  C   C71       1.0  0.20114584845929792  0.5607925160442162  0.36243775022958863  1.0000
  C   C72       1.0  0.17215955337044164  0.570597822289997  0.312029076809374  1.0000
  C   C73       1.0  0.12095145628696008  0.5840132054451671  0.21132374110243288  1.0000
  C   C74       1.0  0.1107680175739389  0.4968462516058592  0.2412652206305097  1.0000
  C   C75       1.0  0.13314658769210297  0.49375136921482005  0.28972320127428464  1.0000
  C   C76       1.0  0.5469163036966763  0.7435779975911384  0.7750126730005249  1.0000
  C   C77       1.0  0.09166821933053637  0.5960764158168386  0.16224940543538927  1.0000
  C   C78       1.0  0.5844762744363764  0.6194797233420671  0.7508016877171569  1.0000
  C   C79       1.0  0.09667146849283624  0.6858902383588229  0.1350024772060081  1.0000
  C   C80       1.0  0.24926958218691203  0.7270619589534347  0.3530832040219494  1.0000
  C   C81       1.0  0.2225824325269343  0.7371754958556664  0.3042102637672244  1.0000
  C   C82       1.0  0.18430108567300613  0.6569041205553884  0.2833468570634068  1.0000
  C   C83       1.0  0.23406660253508  0.8227376101909412  0.274181194272316  1.0000
  C   C84       1.0  0.20785302467302827  0.8304404946392832  0.22633938552109356  1.0000
  C   C85       1.0  0.16747930817218323  0.7527269624634908  0.2044137950227238  1.0000
  C   C86       1.0  0.15786034578633246  0.6640096365335776  0.23327525508543087  1.0000
  C   C87       1.0  0.1355745523012502  0.7626565477499696  0.1558056617273635  1.0000
  C   C88       1.0  0.687032887391439  0.7084506846770393  0.9005278861992706  1.0000
  C   C89       1.0  0.6736926418064969  0.7001134894548852  0.857408633781695  1.0000
  C   C90       1.0  0.24036094107471948  0.6414394550569609  0.3822954529768197  1.0000
  C   C91       1.0  0.7300251947795147  0.041011830631994386  0.9456108926560773  1.0000
  C   C92       1.0  0.7163274412850315  0.7285253979747282  0.948290536230246  1.0000
  C   C93       1.0  0.0588039122465532  0.6990812968702754  0.9475161259028653  1.0000
  C   C94       1.0  0.7237327954479796  0.045338524412066795  0.08483685658486449  1.0000
  C   C95       1.0  0.7017749226134814  0.7396647713711669  0.08234275832410279  1.0000
  C   C96       1.0  0.05011355139338057  0.7072589145867877  0.08500033838905098  1.0000
  N   N1        1.0  0.4543799243905653  0.2953379301508574  0.810399954690986  1.0000
  N   N2        1.0  0.7343997792253348  0.4589127033157537  0.8127923182826037  1.0000
  N   N3        1.0  0.8694542539338029  0.18611619378043529  0.7904179023168111  1.0000
  N   N4        1.0  0.8856549946695296  0.018807748210185996  0.7024232283351779  1.0000
  N   N5        1.0  0.3838965418678697  0.5127067994714308  0.7204327145495739  1.0000
  N   N6        1.0  0.5699020970465367  0.8750022326054463  0.7081485195332959  1.0000
  N   N7        1.0  0.8122676827695304  0.403799107816617  0.3677534835760595  1.0000
  N   N8        1.0  0.46957251114571347  0.17176064205976613  0.1281894985135068  1.0000
  N   N9        1.0  0.34264483249855726  0.1801905803559904  0.21333683433750383  1.0000
  N   N10       1.0  0.33084705043476975  0.21567032110885254  0.3094557170544262  1.0000
  N   N11       1.0  0.1915692892261803  0.4766902693162434  0.3890907702640333  1.0000
  N   N12       1.0  0.08314494975220309  0.4112338623273287  0.2206465717561272  1.0000
  O   O1        1.0  0.4932071078348771  0.3184215669663074  0.5530458255206341  1.0000
  O   O2        1.0  0.8212482034157135  0.6501603023572499  0.9646050609433132  1.0000
  O   O3        1.0  0.03880899446753026  0.6240803512867782  0.9723869670635921  1.0000
  O   O4        1.0  0.29842422979305633  0.5380335521639665  0.5589441344059409  1.0000
  O   O5        1.0  0.04501964866662451  0.7962983769683586  0.0628772687796513  1.0000
  O   O6        1.0  0.8335829183470126  0.0086648041719499  0.06921545009927847  1.0000
  O   O7        1.0  0.6369197377386868  0.04226548043414619  0.05889027645194031  1.0000
  O   O8        1.0  0.6326652349490306  0.844986546027108  0.0660413850629311  1.0000
  O   O9        1.0  0.7960363557734453  0.6577357030042206  0.059241066282886785  1.0000
  O   O10       1.0  0.01210657297699671  0.6357181339537021  0.0678892158883713  1.0000
  O   O11       1.0  0.8395350441682794  0.8349706032783144  0.014805681039526099  1.0000
  O   O12       1.0  0.5376628232522976  0.6780877151323705  0.4554209737340642  1.0000
  O   O13       1.0  0.29529318468210874  0.7156489446748535  0.543733487859825  1.0000
  O   O14       1.0  0.5172561343638765  0.6817553589492175  0.5507331417855923  1.0000
  O   O15       1.0  0.6929988525027044  0.5001655926594066  0.548137237669458  1.0000
  O   O16       1.0  0.6863782275946092  0.30369034772648  0.5487005846310566  1.0000
  O   O17       1.0  0.49099406704279863  0.32686864126303306  0.4509581314774138  1.0000
  O   O18       1.0  0.2816408611113347  0.5490833607760874  0.4584455356569705  1.0000
  O   O19       1.0  0.3216263696468006  0.7029070713115358  0.447479803904983  1.0000
  O   O20       1.0  0.7007766401656  0.4913686137527048  0.4519235651312457  1.0000
  O   O21       1.0  0.6880166269989516  0.29966846169300954  0.4532171939554388  1.0000
  O   O22       1.0  0.4910087392970939  0.5027094190661499  0.5017617672728463  1.0000
  O   O23       1.0  0.03445311145128483  0.8033527047856023  0.960561134796819  1.0000
  O   O24       1.0  0.8303639186823587  0.020631397600489293  0.9653093511555041  1.0000
  O   O25       1.0  0.6433759447750589  0.02181937965548289  0.9638372532298048  1.0000
  O   O26       1.0  0.6390261370560497  0.8253296892475032  0.9703079951751689  1.0000
  O   O27       1.0  0.28423021523934006  0.3694439363698832  0.5002381314812041  1.0000
  O   O28       1.0  0.02765448914588152  0.9885124784665814  0.013338553200988194  1.0000
