data_image0
_chemical_formula_structural       Co2P2H10C8N4O8
_chemical_formula_sum              "Co2 P2 H10 C8 N4 O8"
_cell_length_a       5.241423169962245
_cell_length_b       6.972207155920174
_cell_length_c       10.273948169510412
_cell_angle_alpha    105.27720930727281
_cell_angle_beta     90.01679498663276
_cell_angle_gamma    112.08187375723787

_space_group_name_H-M_alt    "P 1"
_space_group_IT_number       1

loop_
  _space_group_symop_operation_xyz
  'x, y, z'

loop_
  _atom_site_type_symbol
  _atom_site_label
  _atom_site_symmetry_multiplicity
  _atom_site_fract_x
  _atom_site_fract_y
  _atom_site_fract_z
  _atom_site_occupancy
  Co  Co1       1.0  0.6591875139091741  0.6796505520609202  0.1026575683171203  1.0000
  Co  Co2       1.0  0.020570454577146728  0.6794899410750401  0.6026465600141364  1.0000
  P   P1        1.0  0.20845789833705913  0.7198003965822439  0.9270068127411832  1.0000
  P   P2        1.0  0.511278802124302  0.7197245533085734  0.42701203568951474  1.0000
  H   H1        1.0  0.9678808343315308  0.8129935957346816  0.3342853127517103  1.0000
  H   H2        1.0  0.8452688698785593  0.8130661769975943  0.8341806777139098  1.0000
  H   H3        1.0  0.20933340669188982  0.8157212301141712  0.2453002286142549  1.0000
  H   H4        1.0  0.6065915140397279  0.8157705598371977  0.7451590933779357  1.0000
  H   H5        1.0  0.2801126854085751  0.19525420042891983  0.9698775419867972  1.0000
  H   H6        1.0  0.9145435280893108  0.19511672701096222  0.46957044531802694  1.0000
  H   H7        1.0  0.013498855110000754  0.5107024961824537  0.2296164693691267  1.0000
  H   H8        1.0  0.49704463839832863  0.5104810305482347  0.7294365331158374  1.0000
  H   H9        1.0  0.0219447782782467  0.1580388437905498  0.2347676657165891  1.0000
  H   H10       1.0  0.13613813270207936  0.15788133906024626  0.7345959823490418  1.0000
  C   C1        1.0  0.45428694191819824  0.9860036158990512  0.02763991067442357  1.0000
  C   C2        1.0  0.5316285885094557  0.9858706771053533  0.5276131609462311  1.0000
  C   C3        1.0  0.446260441204913  0.1846238264311992  0.02784605029781769  1.0000
  C   C4        1.0  0.738062751660884  0.1845096895912235  0.5276894655007495  1.0000
  C   C5        1.0  0.8492814279202107  0.361900395805776  0.17276935797991644  1.0000
  C   C6        1.0  0.5125294116008376  0.36175226916874687  0.6725568196947904  1.0000
  C   C7        1.0  0.8569388839051015  0.16656240188554963  0.1750400711509172  1.0000
  C   C8        1.0  0.30969250255207464  0.1664027632790237  0.6749210399281225  1.0000
  N   N1        1.0  0.6605950880277404  0.9789117089129675  0.10264686680867638  1.0000
  N   N2        1.0  0.31829710854687937  0.9787296156327231  0.602618440720363  1.0000
  N   N3        1.0  0.6442404982814053  0.3735244490404526  0.10023673927554459  1.0000
  N   N4        1.0  0.7291107307229083  0.37344139719083114  0.6000513463121137  1.0000
  O   O1        1.0  0.2920405525783707  0.5611497460091215  0.9767234098418456  1.0000
  O   O2        1.0  0.2689442280737778  0.5610204961755656  0.4766522093000276  1.0000
  O   O3        1.0  0.2560072298158502  0.7152617928427247  0.7782604666031218  1.0000
  O   O4        1.0  0.4594967873930926  0.7153852662613789  0.2782669935251151  1.0000
  O   O5        1.0  0.9139217273023589  0.7088111837156672  0.9503067188527154  1.0000
  O   O6        1.0  0.794691273034516  0.70860183677631  0.4504152286295167  1.0000
  O   O7        1.0  0.044368742168835136  0.8540750620434636  0.25153698665236845  1.0000
  O   O8        1.0  0.8099105077515885  0.8541169433628114  0.7513930787041332  1.0000
