data_image0
_chemical_formula_structural       CdH10C12Br2N2
_chemical_formula_sum              "Cd1 H10 C12 Br2 N2"
_cell_length_a       3.929081302144018
_cell_length_b       8.70708649908863
_cell_length_c       9.347905377647423
_cell_angle_alpha    76.67611283247976
_cell_angle_beta     87.11983334590373
_cell_angle_gamma    82.63344744917029

_space_group_name_H-M_alt    "P 1"
_space_group_IT_number       1

loop_
  _space_group_symop_operation_xyz
  'x, y, z'

loop_
  _atom_site_type_symbol
  _atom_site_label
  _atom_site_symmetry_multiplicity
  _atom_site_fract_x
  _atom_site_fract_y
  _atom_site_fract_z
  _atom_site_occupancy
  Cd  Cd1       1.0  0.5000088212764736  0.49999565828798603  0.5000012046546092  1.0000
  H   H1        1.0  0.6620602656530747  0.132358053143939  0.8883831955105137  1.0000
  H   H2        1.0  0.33795070133173494  0.8676416568460967  0.11161775582259273  1.0000
  H   H3        1.0  0.7924444909678666  0.3496389366014796  0.9730466761273251  1.0000
  H   H4        1.0  0.20756073911697098  0.650364355317059  0.02695586158245788  1.0000
  H   H5        1.0  0.7774794975585378  0.5021168731606451  0.17137720839343729  1.0000
  H   H6        1.0  0.22251406241043975  0.4978806763558907  0.8286267109769344  1.0000
  H   H7        1.0  0.3345604847415941  0.1516514598277396  0.4700995805908478  1.0000
  H   H8        1.0  0.665415459248372  0.8483442001505779  0.5298976285099287  1.0000
  H   H9        1.0  0.33033899985002774  0.9843356714214337  0.28805417122619303  1.0000
  H   H10       1.0  0.6696545277774815  0.015661021418793598  0.711938142506938  1.0000
  C   C1        1.0  0.559297996538241  0.07078489231209771  0.9938976998641497  1.0000
  C   C2        1.0  0.44069902331467137  0.9292210136780741  0.006100248349852649  1.0000
  C   C3        1.0  0.5606117587511077  0.1538513905758805  0.1120608633851674  1.0000
  C   C4        1.0  0.43938624620623284  0.8461496437208924  0.8879422799164871  1.0000
  C   C5        1.0  0.6890121990003307  0.3017883539359474  0.08238761958878632  1.0000
  C   C6        1.0  0.3109933611098084  0.6982127128633381  0.9176099880928207  1.0000
  C   C7        1.0  0.6811564318751946  0.38673347883381853  0.19145804358272764  1.0000
  C   C8        1.0  0.31884624112849014  0.6132698524237555  0.8085445470546875  1.0000
  C   C9        1.0  0.43796348541086144  0.18982897288258732  0.3588501706689443  1.0000
  C   C10       1.0  0.5620224174094586  0.8101677777668925  0.6411444525819479  1.0000
  C   C11       1.0  0.4354928521996796  0.09758674010559791  0.2561674267966155  1.0000
  C   C12       1.0  0.5645015641358169  0.9024192654314405  0.7438284236101609  1.0000
  Br  Br1       1.0  0.9704821187852203  0.6918142274459033  0.3320428195065758  1.0000
  Br  Br2       1.0  0.02956356791118248  0.3081776635966662  0.6679652363987503  1.0000
  N   N1        1.0  0.5557424774677171  0.333067151245011  0.3278715772947153  1.0000
  N   N2        1.0  0.4442491481577802  0.6669269343601061  0.6721309144818832  1.0000
