data_image0
_chemical_formula_structural       La2H56C84S6N2O14
_chemical_formula_sum              "La2 H56 C84 S6 N2 O14"
_cell_length_a       8.090331537512153
_cell_length_b       20.643905559276575
_cell_length_c       20.64396080016466
_cell_angle_alpha    70.36759821456464
_cell_angle_beta     78.9200601119296
_cell_angle_gamma    78.91990842420957

_space_group_name_H-M_alt    "P 1"
_space_group_IT_number       1

loop_
  _space_group_symop_operation_xyz
  'x, y, z'

loop_
  _atom_site_type_symbol
  _atom_site_label
  _atom_site_symmetry_multiplicity
  _atom_site_fract_x
  _atom_site_fract_y
  _atom_site_fract_z
  _atom_site_occupancy
  La  La1       1.0  0.5000413704298412  0.6845594976373093  0.6654563495987986  1.0000
  La  La2       1.0  4.6377580964899276e-05  0.6654542309978808  0.6845615653462361  1.0000
  H   H1        1.0  0.10148351418504832  0.0654342828053558  0.12433709846467172  1.0000
  H   H2        1.0  0.6014687617698586  0.1243408143415792  0.06543624570645079  1.0000
  H   H3        1.0  0.02138603966685081  0.13858835502864508  0.9098154894460608  1.0000
  H   H4        1.0  0.5214045784113708  0.9098164192790463  0.13858536116992334  1.0000
  H   H5        1.0  0.9630528337935972  0.9279829764749223  0.03284061033429002  1.0000
  H   H6        1.0  0.46305456002582457  0.03284028420050329  0.9279831900111194  1.0000
  H   H7        1.0  0.9699253353932566  0.7768983917501586  0.26209810325049426  1.0000
  H   H8        1.0  0.4699213193307159  0.26209970524855203  0.776897133572824  1.0000
  H   H9        1.0  0.9103742555451434  0.8569354818240026  0.13833178286571976  1.0000
  H   H10       1.0  0.41036251358897863  0.13833482670455058  0.8569360101733423  1.0000
  H   H11       1.0  0.07124793707777852  0.7282890437233362  0.3612652867726212  1.0000
  H   H12       1.0  0.5712623697511817  0.36126274682786885  0.728283729274061  1.0000
  H   H13       1.0  0.14705959375017133  0.6827691505007678  0.4813689595995854  1.0000
  H   H14       1.0  0.6470655517402267  0.4813678193709733  0.6827620638099746  1.0000
  H   H15       1.0  0.33143406888135746  0.8731254222646144  0.4528427842000228  1.0000
  H   H16       1.0  0.8314269704032855  0.4528474609966296  0.8731173263259822  1.0000
  H   H17       1.0  0.2439313947425603  0.9219335940263348  0.33509778697821  1.0000
  H   H18       1.0  0.7439179980497387  0.3351033095227151  0.9219321111537867  1.0000
  H   H19       1.0  0.28705297893314  0.2876942946352798  0.05543375881023144  1.0000
  H   H20       1.0  0.7870613826995837  0.05543292645618442  0.2876939964140206  1.0000
  H   H21       1.0  0.21395303331978255  0.1609487192763197  0.10469942954542688  1.0000
  H   H22       1.0  0.7139502336246724  0.10470178648052551  0.16094825739013877  1.0000
  H   H23       1.0  0.30951579400633733  0.397570983198392  0.9921963659125694  1.0000
  H   H24       1.0  0.8095160243489876  0.9921924412450237  0.3975709118086002  1.0000
  H   H25       1.0  0.3816725588180105  0.5113635485396343  0.9108417651903126  1.0000
  H   H26       1.0  0.881668228364994  0.9108412423862189  0.5113620743142421  1.0000
  H   H27       1.0  0.1971016339067262  0.4729609740196352  0.7479080302503577  1.0000
  H   H28       1.0  0.6970948262315633  0.7479054876968476  0.4729638217377784  1.0000
  H   H29       1.0  0.1329762480652903  0.3576406508808105  0.826413137281982  1.0000
  H   H30       1.0  0.6329842476515709  0.8264093915140975  0.35764012940610007  1.0000
  H   H31       1.0  0.7733780080337028  0.07281029001689629  0.7541667488993086  1.0000
  H   H32       1.0  0.27337662356153924  0.7541682784875049  0.07281346982788513  1.0000
  H   H33       1.0  0.8710224818883746  0.1266444086925702  0.8357848119854481  1.0000
  H   H34       1.0  0.37102852080830945  0.835782209401394  0.12664749061416813  1.0000
  H   H35       1.0  0.6833385412997188  0.0031786871404123006  0.7114272577268111  1.0000
  H   H36       1.0  0.18335213525468674  0.7114236800449801  0.0031786026441124942  1.0000
  H   H37       1.0  0.6041131721427534  0.9209735771433499  0.6618192988176406  1.0000
  H   H38       1.0  0.1041181182418854  0.6618154707770357  0.9209742602511215  1.0000
  H   H39       1.0  0.7924379150181271  0.748542426657842  0.8275616389783808  1.0000
  H   H40       1.0  0.2924330809162613  0.8275622928049272  0.7485459702726162  1.0000
  H   H41       1.0  0.870701863483852  0.8292044829887147  0.8784753898178936  1.0000
  H   H42       1.0  0.370700026130713  0.8784732545890749  0.8292098232322684  1.0000
  H   H43       1.0  0.827777500796039  0.5874335455969869  0.5749118337446503  1.0000
  H   H44       1.0  0.3278010634296536  0.5749045154091091  0.5874383361133299  1.0000
  H   H45       1.0  0.018360181201437207  0.5657055146950613  0.4942696800922519  1.0000
  H   H46       1.0  0.5183680077064919  0.4942632966270041  0.5657008424835013  1.0000
  H   H47       1.0  0.9895728708799184  0.6179558533740562  0.4074046975079639  1.0000
  H   H48       1.0  0.48958206757993145  0.4073988647145441  0.6179516501044873  1.0000
  H   H49       1.0  0.9471813263510996  0.5302226116799889  0.4379091089682277  1.0000
  H   H50       1.0  0.44718785042011416  0.4379065102427048  0.5302170456852269  1.0000
  H   H51       1.0  0.6280811030570418  0.5798019029542657  0.4116288600008886  1.0000
  H   H52       1.0  0.12808491721035148  0.4116293005954433  0.5797958722496617  1.0000
  H   H53       1.0  0.682940424681064  0.6656502438498535  0.38426805875747055  1.0000
  H   H54       1.0  0.18294178947574113  0.3842638835556542  0.665642759888904  1.0000
  H   H55       1.0  0.5193174923912522  0.6407717515172706  0.4557968574056234  1.0000
  H   H56       1.0  0.019315557711685503  0.45579737746762555  0.6407628893535033  1.0000
  C   C1        1.0  0.035681394742567804  0.9901178431484965  0.08565578536208561  1.0000
  C   C2        1.0  0.5356847706781239  0.08565571403681818  0.9901172539081458  1.0000
  C   C3        1.0  0.07071666502671553  0.056114606211643506  0.07936893096363211  1.0000
  C   C4        1.0  0.5707188464351063  0.0793707799171841  0.05611460582640149  1.0000
  C   C5        1.0  0.06633548995277042  0.11021794612606331  0.01619493045423329  1.0000
  C   C6        1.0  0.5663463384148172  0.0161968536448072  0.11021656662092738  1.0000
  C   C7        1.0  0.022346175345930395  0.09743503453532301  0.9594523069125103  1.0000
  C   C8        1.0  0.5223682023940983  0.959453085565613  0.09743288920221714  1.0000
  C   C9        1.0  0.9809308091038034  0.03258463203371781  0.9650675768344144  1.0000
  C   C10       1.0  0.4809439430623429  0.9650670883031863  0.03258536768599646  1.0000
  C   C11       1.0  0.9906881378157736  0.9790821302265585  0.02824926655635102  1.0000
  C   C12       1.0  0.49070414555414743  0.0282488269516392  0.9790797271482534  1.0000
  C   C13       1.0  0.043996730466652326  0.9333145545329132  0.15061949194895868  1.0000
  C   C14       1.0  0.5440022016570084  0.1506214446617804  0.933312439120428  1.0000
  C   C15       1.0  0.10229711909379802  0.856213820076043  0.2697039265224248  1.0000
  C   C16       1.0  0.6022993997886419  0.26970571249015046  0.8562094571527012  1.0000
  C   C17       1.0  0.0138119369502334  0.8272920975752172  0.23735081001622396  1.0000
  C   C18       1.0  0.5138072190139694  0.2373531150129651  0.8272905559063519  1.0000
  C   C19       1.0  0.9811334375136694  0.8704739710573081  0.17063748937222575  1.0000
  C   C20       1.0  0.48112809503054893  0.170639579205428  0.8704747482602428  1.0000
  C   C21       1.0  0.1533352424193737  0.8283390587941568  0.3387556181413061  1.0000
  C   C22       1.0  0.6533276016278651  0.3387602019397846  0.8283351679984038  1.0000
  C   C23       1.0  0.1283783935909995  0.7603539312793117  0.3809969382538725  1.0000
  C   C24       1.0  0.628375050142033  0.3809970223150145  0.7603512952188538  1.0000
  C   C25       1.0  0.17202184317118005  0.7343909961757332  0.44773969540639785  1.0000
  C   C26       1.0  0.6720213941591169  0.4477394260096331  0.7343850451263735  1.0000
  C   C27       1.0  0.24641476729848227  0.7748122595934461  0.47370294483061315  1.0000
  C   C28       1.0  0.7464095963517327  0.47370258916423297  0.7748086215597995  1.0000
  C   C29       1.0  0.2737484719309507  0.8421585879446168  0.43203646068045753  1.0000
  C   C30       1.0  0.7737521555974071  0.4320378072970357  0.8421547881539199  1.0000
  C   C31       1.0  0.22573999455224952  0.8687544566026233  0.3661185779166587  1.0000
  C   C32       1.0  0.7257358386140424  0.3661207556588337  0.8687512330515048  1.0000
  C   C33       1.0  0.2982915103360925  0.7471311507551804  0.5442241477143597  1.0000
  C   C34       1.0  0.7982964513792015  0.5442215236897641  0.7471249499598613  1.0000
  C   C35       1.0  0.11116634974423793  0.1776099116691512  0.009236010334461793  1.0000
  C   C36       1.0  0.6111677148594127  0.009237516924841302  0.1776091828851918  1.0000
  C   C37       1.0  0.18328547993711197  0.29984183289838745  0.9613674945569884  1.0000
  C   C38       1.0  0.683293968688645  0.9613667458543629  0.2998398213435608  1.0000
  C   C39       1.0  0.22432932465408587  0.26497697972079937  0.027831722803867406  1.0000
  C   C40       1.0  0.7243300127431453  0.02783281971290559  0.2649774444196993  1.0000
  C   C41       1.0  0.18413350725676744  0.19656906035163496  0.054616601299763076  1.0000
  C   C42       1.0  0.6841371255719652  0.0546166582357515  0.19656846343401213  1.0000
  C   C43       1.0  0.21684637897815412  0.3684267754868955  0.9154183765398687  1.0000
  C   C44       1.0  0.7168536850493298  0.9154143140863339  0.36842755976960734  1.0000
  C   C45       1.0  0.28538646210609653  0.41337627557048506  0.9385024050629056  1.0000
  C   C46       1.0  0.7853919467872572  0.9384981698831322  0.413373850582616  1.0000
  C   C47       1.0  0.32518701202799605  0.4772973514096109  0.8934522982588079  1.0000
  C   C48       1.0  0.8251901958224223  0.8934485124753381  0.4772968728190392  1.0000
  C   C49       1.0  0.2945118084165018  0.49910295135850175  0.8242969125717466  1.0000
  C   C50       1.0  0.7945089550650766  0.8242960415221106  0.4991022486956639  1.0000
  C   C51       1.0  0.22307887276213023  0.45545175755674444  0.8013097092463399  1.0000
  C   C52       1.0  0.7230713956694858  0.8013068548287022  0.45545271224579426  1.0000
  C   C53       1.0  0.1864825126019625  0.3911430796340767  0.8457177563347216  1.0000
  C   C54       1.0  0.6864797920810447  0.8457149461362047  0.39114403913447404  1.0000
  C   C55       1.0  0.3414773354293105  0.5665079363453385  0.7752966883105614  1.0000
  C   C56       1.0  0.8414674288399411  0.7752979758743379  0.5665097738197815  1.0000
  C   C57       1.0  0.9268258152472769  0.0218682903645657  0.9064491328770714  1.0000
  C   C58       1.0  0.42684630391072886  0.9064457733211172  0.021869247520569967  1.0000
  C   C59       1.0  0.8291725830218369  0.970105777379544  0.8286133269440796  1.0000
  C   C60       1.0  0.3291888964047018  0.8286102412419608  0.9701079153521093  1.0000
  C   C61       1.0  0.819734576865699  0.041974535713414696  0.8030016520218268  1.0000
  C   C62       1.0  0.31975333773632303  0.802999541990431  0.04197715770011713  1.0000
  C   C63       1.0  0.8750338567620731  0.07103967522571963  0.8465710808404766  1.0000
  C   C64       1.0  0.37505574879045867  0.8465688275030133  0.07104170393505874  1.0000
  C   C65       1.0  0.7832479064311215  0.9223985339194485  0.7988668036090516  1.0000
  C   C66       1.0  0.2832517545123496  0.7988660403417498  0.9224018339867189  1.0000
  C   C67       1.0  0.707520582603607  0.9474201451616012  0.7372965131678272  1.0000
  C   C68       1.0  0.20752002344506337  0.7372956495926103  0.9474219601360618  1.0000
  C   C69       1.0  0.6631587503600469  0.901846696477307  0.7091981235164156  1.0000
  C   C70       1.0  0.16315878878379658  0.7091963959940344  0.901849429341702  1.0000
  C   C71       1.0  0.6943701690210559  0.8298870224853162  0.7413875852667999  1.0000
  C   C72       1.0  0.19437677428513933  0.741384107000158  0.8298895438045691  1.0000
  C   C73       1.0  0.7685353201143099  0.8044036458672962  0.8026986555114064  1.0000
  C   C74       1.0  0.2685340322543937  0.8026965653263787  0.8044078207362234  1.0000
  C   C75       1.0  0.8117128944721375  0.8500588932823592  0.8309967653502142  1.0000
  C   C76       1.0  0.3117087120454941  0.8309955653269582  0.850064210298534  1.0000
  C   C77       1.0  0.6449815869853811  0.7814464047654042  0.7116237948918639  1.0000
  C   C78       1.0  0.1449868426410036  0.7116202880345384  0.7814482795132565  1.0000
  C   C79       1.0  0.7219689426937068  0.6028182563926804  0.5437432365121637  1.0000
  C   C80       1.0  0.22197684574619106  0.5437374274264926  0.6028179776137179  1.0000
  C   C81       1.0  0.9396374901450104  0.5771617032812202  0.45304045699927553  1.0000
  C   C82       1.0  0.4396491047602923  0.45303533372464955  0.5771569496248717  1.0000
  C   C83       1.0  0.64182532026215  0.6227007757894257  0.42970288926595407  1.0000
  C   C84       1.0  0.14182437588020497  0.42970182276299346  0.6226962289762668  1.0000
  S   S1        1.0  0.14508262940483269  0.9374480235060075  0.2154075477735234  1.0000
  S   S2        1.0  0.6450843623077915  0.21541314976199294  0.9374448890495729  1.0000
  S   S3        1.0  0.08967942793574224  0.2465752208004375  0.9340126318629844  1.0000
  S   S4        1.0  0.5896850507345732  0.9340122157579954  0.24657476212353668  1.0000
  S   S5        1.0  0.9085307849324522  0.9395580254944066  0.9072091220961269  1.0000
  S   S6        1.0  0.408558299935237  0.9072049290293975  0.9395593607991374  1.0000
  N   N1        1.0  0.7656448211427859  0.6000530282626927  0.4781652742872353  1.0000
  N   N2        1.0  0.26565614871321946  0.47816014393887923  0.6000497840455382  1.0000
  O   O1        1.0  0.4052439210107083  0.7758392855915731  0.558570727736658  1.0000
  O   O2        1.0  0.9052453794199451  0.5585698387267117  0.7758350005241681  1.0000
  O   O3        1.0  0.238870546834498  0.6927902028035788  0.5878675445434922  1.0000
  O   O4        1.0  0.738880206006627  0.58786808863983  0.6927860601709385  1.0000
  O   O5        1.0  0.2936879804211899  0.5879714576583269  0.714009375999396  1.0000
  O   O6        1.0  0.7936907696938887  0.7140058629923234  0.5879721400701927  1.0000
  O   O7        1.0  0.4307488481599295  0.6009294798577898  0.7919622964992357  1.0000
  O   O8        1.0  0.9307327396765147  0.7919644758630326  0.6009311266948032  1.0000
  O   O9        1.0  0.7094244302508629  0.7162862992169821  0.7313199560387319  1.0000
  O   O10       1.0  0.20942770128083765  0.7313157835172249  0.7162871647475414  1.0000
  O   O11       1.0  0.5383040747498314  0.8030480755118248  0.6688329733606153  1.0000
  O   O12       1.0  0.038308451573421096  0.6688302443273457  0.8030482738955911  1.0000
  O   O13       1.0  0.5732878077782361  0.620983660661807  0.5679649107323711  1.0000
  O   O14       1.0  0.07331958998382503  0.5679581649157797  0.6209771548512181  1.0000
