data_image0
_chemical_formula_structural       Cu2H34C34N4O12
_chemical_formula_sum              "Cu2 H34 C34 N4 O12"
_cell_length_a       8.3549836361657
_cell_length_b       8.905883519054536
_cell_length_c       11.73235992686873
_cell_angle_alpha    86.14778235482693
_cell_angle_beta     69.4347328911636
_cell_angle_gamma    87.13169013942894

_space_group_name_H-M_alt    "P 1"
_space_group_IT_number       1

loop_
  _space_group_symop_operation_xyz
  'x, y, z'

loop_
  _atom_site_type_symbol
  _atom_site_label
  _atom_site_symmetry_multiplicity
  _atom_site_fract_x
  _atom_site_fract_y
  _atom_site_fract_z
  _atom_site_occupancy
  Cu  Cu1       1.0  5.543506823406065e-06  0.5000011647827376  0.9999990235599227  1.0000
  Cu  Cu2       1.0  0.5000039098710403  0.5000002038922344  0.9999998559977354  1.0000
  H   H1        1.0  0.35927835333071556  0.7124734995400315  0.1943116763670432  1.0000
  H   H2        1.0  0.6407148291886245  0.2875265832254569  0.8056854869102635  1.0000
  H   H3        1.0  0.7289283162299682  0.3455316746626663  0.08654918756178631  1.0000
  H   H4        1.0  0.2710763561282051  0.6544706212740506  0.9134491944296528  1.0000
  H   H5        1.0  0.8430894268827912  0.2859455323953026  0.9531199460004627  1.0000
  H   H6        1.0  0.15691412975744606  0.7140522488434371  0.0468806386230085  1.0000
  H   H7        1.0  0.0220014466086269  0.7966390041889183  0.80934560371184  1.0000
  H   H8        1.0  0.9779969043499932  0.20336104445451741  0.19065450103258275  1.0000
  H   H9        1.0  0.43088846138839193  0.9657245213100153  0.24229188518066275  1.0000
  H   H10       1.0  0.5690955639766173  0.034281215095738594  0.7577047972500423  1.0000
  H   H11       1.0  0.684478591533278  0.09579810380275688  0.09405858191551884  1.0000
  H   H12       1.0  0.3155081400168527  0.9042042288634987  0.9059409780071518  1.0000
  H   H13       1.0  0.7726154135892642  0.7105379278302236  0.8717207061580436  1.0000
  H   H14       1.0  0.22739203315168774  0.28945982015978433  0.12828314688670156  1.0000
  H   H15       1.0  0.2883837040717196  0.9295144260480297  0.7160399386607423  1.0000
  H   H16       1.0  0.7116134960223093  0.07048223372738248  0.2839623247246195  1.0000
  H   H17       1.0  0.16544420109718772  0.10102471180261569  0.7246329863893664  1.0000
  H   H18       1.0  0.8345530472561719  0.8989697085644012  0.27536766526467443  1.0000
  H   H19       1.0  0.2773212514158558  0.012024374621724098  0.5147932383057849  1.0000
  H   H20       1.0  0.7226772973100637  0.9879700326204667  0.48520878610759854  1.0000
  H   H21       1.0  0.1827374465982317  0.8352369291220325  0.5657684057772627  1.0000
  H   H22       1.0  0.8172583938468988  0.16476198931235328  0.4342332467233304  1.0000
  H   H23       1.0  0.9894995505580368  0.13928357624335058  0.57374584960651  1.0000
  H   H24       1.0  0.01050136809472951  0.8607164645276908  0.42625445108634347  1.0000
  H   H25       1.0  0.8906182927134338  0.9667324668944203  0.6340391011294598  1.0000
  H   H26       1.0  0.1093825797756764  0.03326870583231309  0.3659603057155536  1.0000
  H   H27       1.0  0.1990306763858456  0.571150251949085  0.3503307729053802  1.0000
  H   H28       1.0  0.8009664423978649  0.4288486656119729  0.6496705526410481  1.0000
  H   H29       1.0  0.05722675645271381  0.6215476249944556  0.5709507935867961  1.0000
  H   H30       1.0  0.942774151183059  0.378452421902331  0.42904865724930363  1.0000
  H   H31       1.0  0.38181673583093817  0.28504450102253287  0.6644919893879403  1.0000
  H   H32       1.0  0.618181685421007  0.7149532959610096  0.3355082033386692  1.0000
  H   H33       1.0  0.5299897520213791  0.23903841294546882  0.4429089627631483  1.0000
  H   H34       1.0  0.4700225090579266  0.7609661355369466  0.5570865196643949  1.0000
  C   C1        1.0  0.4695836866269545  0.7728285620905239  0.1338508089998526  1.0000
  C   C2        1.0  0.5304041585454371  0.22717939272639845  0.8661490538699537  1.0000
  C   C3        1.0  0.5109506193493942  0.9129686309282049  0.15935583745166323  1.0000
  C   C4        1.0  0.4890371025403653  0.08704049872468289  0.8406371825730402  1.0000
  C   C5        1.0  0.6526692157701035  0.9845629676855691  0.07709647559998696  1.0000
  C   C6        1.0  0.3473251286308212  0.015440497822190495  0.9228993788931348  1.0000
  C   C7        1.0  0.7521783995280844  0.9129843874737058  0.9718523087432303  1.0000
  C   C8        1.0  0.24781212296978342  0.08701796707558877  0.02814287088995828  1.0000
  C   C9        1.0  0.7024274903592483  0.7721814779359447  0.9522650472565672  1.0000
  C   C10       1.0  0.2975696504584491  0.22781742737361546  0.04773797800336148  1.0000
  C   C11       1.0  0.89942499618207  0.9950035671821663  0.8807481764088793  1.0000
  C   C12       1.0  0.1005705609940932  0.005005465344495999  0.11925562974213479  1.0000
  C   C13       1.0  0.16995517442579466  0.9808161383861247  0.7086271386679711  1.0000
  C   C14       1.0  0.8300395613184008  0.0191782592245389  0.291377566321401  1.0000
  C   C15       1.0  0.16548348249175862  0.9563941417364529  0.5819320293971941  1.0000
  C   C16       1.0  0.83451494977718  0.043603649121337185  0.4180690131861694  1.0000
  C   C17       1.0  0.002445061544200699  0.0167690193143883  0.5623530488132218  1.0000
  C   C18       1.0  0.9975571354471453  0.983231020583325  0.4376469249254739  1.0000
  C   C19       1.0  0.46717387186753706  0.3824895887827892  0.24977593619669128  1.0000
  C   C20       1.0  0.5328295903497136  0.6175115638200451  0.7502253663102534  1.0000
  C   C21       1.0  0.37351965471933823  0.402208973908749  0.3830734080212465  1.0000
  C   C22       1.0  0.6264813211140846  0.5977899287808339  0.616928636376201  1.0000
  C   C23       1.0  0.24007329968679872  0.5100643981797218  0.41921028883557904  1.0000
  C   C24       1.0  0.759930162530452  0.48993675442311246  0.5807910136713658  1.0000
  C   C25       1.0  0.16081389146697234  0.5379191222380655  0.5415461021873539  1.0000
  C   C26       1.0  0.8391834492137067  0.46207303421755325  0.4584563371623813  1.0000
  C   C27       1.0  0.2106694691701492  0.4570343077740659  0.6306112992061088  1.0000
  C   C28       1.0  0.789331660362592  0.5429589780172818  0.3693892654332985  1.0000
  C   C29       1.0  0.3422908082168732  0.34700933172579335  0.5950774465983386  1.0000
  C   C30       1.0  0.6577177211910197  0.6529929493394419  0.4049216542441201  1.0000
  C   C31       1.0  0.4237185342864721  0.320455279948888  0.47202519270499005  1.0000
  C   C32       1.0  0.5762837791618552  0.6795413763332333  0.5279757628637398  1.0000
  C   C33       1.0  0.12085517804657545  0.49510793449078944  0.760567693377851  1.0000
  C   C34       1.0  0.8791548515968585  0.5048875845956856  0.23943219431375706  1.0000
  N   N1        1.0  0.5636087684987601  0.7045219329725824  0.031686066381887125  1.0000
  N   N2        1.0  0.43639092899609006  0.2954769705903287  0.9683163049697255  1.0000
  N   N3        1.0  0.027017188500252615  0.9125281466228042  0.8059229330225434  1.0000
  N   N4        1.0  0.9729775162886156  0.0874651619124194  0.19407671681741315  1.0000
  O   O1        1.0  0.4030099952625008  0.45800447620708684  0.1778823419851108  1.0000
  O   O2        1.0  0.5969947101466602  0.5419978013523731  0.8221185895765826  1.0000
  O   O3        1.0  0.8069443673759764  0.37884909675247497  0.0009331941213516855  1.0000
  O   O4        1.0  0.1930629078230055  0.6211520654818867  0.9990654278096117  1.0000
  O   O5        1.0  0.6004958590698236  0.2988367229738457  0.21693788330607325  1.0000
  O   O6        1.0  0.3995075239327761  0.7011655799619444  0.7830599757827696  1.0000
  O   O7        1.0  0.1519252131672317  0.41213636537163  0.8451200650219519  1.0000
  O   O8        1.0  0.8480933651202847  0.5878726453094528  0.15487870581093682  1.0000
  O   O9        1.0  0.017066404058432703  0.6065788857009478  0.7825961205489945  1.0000
  O   O10       1.0  0.9829370602544927  0.39342115944918976  0.2174026763787893  1.0000
  O   O11       1.0  0.8990515671322966  0.13632239676157096  0.875606188003836  1.0000
  O   O12       1.0  0.1009560684546287  0.863668608500255  0.12439622927396238  1.0000
