data_image0
_chemical_formula_structural       Cd2H30C38N2O12
_chemical_formula_sum              "Cd2 H30 C38 N2 O12"
_cell_length_a       8.01617864693509
_cell_length_b       10.912771816806526
_cell_length_c       10.912760858885575
_cell_angle_alpha    70.26471548032644
_cell_angle_beta     77.4502170651028
_cell_angle_gamma    77.45008563995476

_space_group_name_H-M_alt    "P 1"
_space_group_IT_number       1

loop_
  _space_group_symop_operation_xyz
  'x, y, z'

loop_
  _atom_site_type_symbol
  _atom_site_label
  _atom_site_symmetry_multiplicity
  _atom_site_fract_x
  _atom_site_fract_y
  _atom_site_fract_z
  _atom_site_occupancy
  Cd  Cd1       1.0  0.24999927262304303  0.12273572910594768  0.8772647646468886  1.0000
  Cd  Cd2       1.0  0.7500008027471311  0.8772647060060376  0.12273542378596879  1.0000
  H   H1        1.0  0.5756949540874814  0.15401590417027922  0.9384135448840429  1.0000
  H   H2        1.0  0.9243058112313774  0.06158774672525166  0.8459839883151692  1.0000
  H   H3        1.0  0.42430534284584803  0.8459835382856651  0.0615878531477209  1.0000
  H   H4        1.0  0.07569511086579446  0.9384146714113508  0.15401448394454342  1.0000
  H   H5        1.0  0.62115710467247  0.06683175953375547  0.8473549588519593  1.0000
  H   H6        1.0  0.8788424234439349  0.15264576294744353  0.9331671089944396  1.0000
  H   H7        1.0  0.37884190240756516  0.9331676852096532  0.15264573615513657  1.0000
  H   H8        1.0  0.12115743036309827  0.8473556648205826  0.06683186983951127  1.0000
  H   H9        1.0  0.2661040778663518  0.6478768196990784  0.9894721699908122  1.0000
  H   H10       1.0  0.23389553643793454  0.010527355264507295  0.3521227171340585  1.0000
  H   H11       1.0  0.7338947205227696  0.35212361071688025  0.010528232019652403  1.0000
  H   H12       1.0  0.766103457769873  0.9894720964623925  0.6478770612707482  1.0000
  H   H13       1.0  0.3373356486227125  0.42765087673118507  0.953365609016949  1.0000
  H   H14       1.0  0.16266431639947143  0.046633299990773494  0.5723485976246325  1.0000
  H   H15       1.0  0.6626659252916692  0.5723485704207858  0.046635575437207547  1.0000
  H   H16       1.0  0.8373334008272764  0.9533661470400996  0.42765139435778143  1.0000
  H   H17       1.0  0.5148080385419929  0.4007999863958957  0.7467265440235952  1.0000
  H   H18       1.0  0.9851918309437551  0.25327293069999957  0.5991999930402019  1.0000
  H   H19       1.0  0.4851933266814683  0.5992004464286251  0.2532743474339371  1.0000
  H   H20       1.0  0.014807176136280069  0.7467265140434092  0.400800701966887  1.0000
  H   H21       1.0  0.5326236539081391  0.8200513208997291  0.6027198979354869  1.0000
  H   H22       1.0  0.9673759079405713  0.39728037393608406  0.17994843776307334  1.0000
  H   H23       1.0  0.46737513160875477  0.17994911649972065  0.3972795874726956  1.0000
  H   H24       1.0  0.032624167429609864  0.6027200611759015  0.8200517506697838  1.0000
  H   H25       1.0  0.7499989299709924  0.38773522436528635  0.6122649604036712  1.0000
  H   H26       1.0  0.24999880012798312  0.6122642156820955  0.38773594818102475  1.0000
  H   H27       1.0  0.5654921457728436  0.7952766318328697  0.4153074025279013  1.0000
  H   H28       1.0  0.9345104741037604  0.5846918599193314  0.20472234691814623  1.0000
  H   H29       1.0  0.4345096110879965  0.20472184361351953  0.5846922417183226  1.0000
  H   H30       1.0  0.06549106119393143  0.4153076081831059  0.795276087729164  1.0000
  C   C1        1.0  0.35222887293851096  0.8799231656084102  0.8161266370298963  1.0000
  C   C2        1.0  0.14776957524228607  0.1838732002619991  0.12007714430633608  1.0000
  C   C3        1.0  0.6477713982503558  0.12007629081451646  0.18387292779730313  1.0000
  C   C4        1.0  0.8522294318377491  0.8161262444814097  0.8799235507007527  1.0000
  C   C5        1.0  0.3952311269763768  0.7468547441073737  0.7968969503082878  1.0000
  C   C6        1.0  0.10476768077107582  0.2031024279140538  0.253145470942009  1.0000
  C   C7        1.0  0.6047674627218311  0.25314667198113466  0.20310315870554527  1.0000
  C   C8        1.0  0.895230036455672  0.7968970191168193  0.7468545210404048  1.0000
  C   C9        1.0  0.34176852459879836  0.6363512572159349  0.897176325051568  1.0000
  C   C10       1.0  0.15822995145210683  0.10282298923091557  0.36364900553486035  1.0000
  C   C11       1.0  0.6582300650994029  0.3636501588725735  0.10282378396226488  1.0000
  C   C12       1.0  0.8417690427557004  0.8971764624959774  0.6363507728699463  1.0000
  C   C13       1.0  0.38401364185945397  0.5128634920723697  0.8774362168302265  1.0000
  C   C14       1.0  0.11598632431101656  0.12256126173223683  0.48713707873665885  1.0000
  C   C15       1.0  0.6159864206384923  0.4871369500231068  0.12256305500034877  1.0000
  C   C16       1.0  0.8840128785877113  0.8774372043221061  0.512862992664772  1.0000
  C   C17       1.0  0.48326942015777513  0.49836998109326897  0.7599273776038303  1.0000
  C   C18       1.0  0.01673072543745491  0.24007055846245604  0.5016300167038568  1.0000
  C   C19       1.0  0.5167319321934586  0.501630458714743  0.24007259725141958  1.0000
  C   C20       1.0  0.9832684774612658  0.7599279075918941  0.49837005469758133  1.0000
  C   C21       1.0  0.5386265889314216  0.6080231342626445  0.6583413690426173  1.0000
  C   C22       1.0  0.961373526214622  0.341658085392666  0.3919783286556183  1.0000
  C   C23       1.0  0.46137348643875936  0.39197730084934074  0.34165881939024  1.0000
  C   C24       1.0  0.03862656202778686  0.6583423427358353  0.6080227763795211  1.0000
  C   C25       1.0  0.4913027516788658  0.7324491411252648  0.6778320276299045  1.0000
  C   C26       1.0  0.008694926553346232  0.3221677452536296  0.2675513021366883  1.0000
  C   C27       1.0  0.5086960467102555  0.26755128929069366  0.32216837438055296  1.0000
  C   C28       1.0  0.9913040805266885  0.677831699489779  0.7324493928704007  1.0000
  C   C29       1.0  0.6456257478571529  0.5934269940580631  0.5340403507368879  1.0000
  C   C30       1.0  0.854374839159675  0.4659597983853769  0.40657211993089976  1.0000
  C   C31       1.0  0.35437477063931766  0.4065714557418472  0.4659622568937823  1.0000
  C   C32       1.0  0.14562522333827135  0.5340406437100992  0.5934271518996757  1.0000
  C   C33       1.0  0.7500023179973995  0.47462992392370723  0.5253697192089748  1.0000
  C   C34       1.0  0.25000032420712154  0.5253705135968402  0.47463095867095023  1.0000
  C   C35       1.0  0.6470302306012455  0.7007117899371094  0.4183843874472972  1.0000
  C   C36       1.0  0.8529740929800128  0.5816169052642618  0.29928890097678384  1.0000
  C   C37       1.0  0.35297242447551014  0.2992886405999469  0.58161720703491  1.0000
  C   C38       1.0  0.14702940882373378  0.4183855082974118  0.7007109773322786  1.0000
  N   N1        1.0  0.7500004241901266  0.6944316920874268  0.3055683766912839  1.0000
  N   N2        1.0  0.249999859870968  0.30556775735200137  0.6944321047381979  1.0000
  O   O1        1.0  0.2938536569737167  0.8861539772029374  0.9352114084783669  1.0000
  O   O2        1.0  0.2061468335028138  0.06478877050041379  0.11384513191529784  1.0000
  O   O3        1.0  0.7061474738143686  0.11384745526111567  0.06478735677796986  1.0000
  O   O4        1.0  0.7938532289951326  0.9352116715950627  0.8861541399152775  1.0000
  O   O5        1.0  0.3724893979625534  0.9826495018913587  0.7203810262847132  1.0000
  O   O6        1.0  0.12751021231787968  0.2796181146709599  0.017350645048658526  1.0000
  O   O7        1.0  0.6275119286442248  0.01735095188363539  0.27961711536597295  1.0000
  O   O8        1.0  0.8724887818899276  0.7203813370559328  0.9826491333561483  1.0000
  O   O9        1.0  0.5403286642216046  0.14579459498071395  0.8602911656863772  1.0000
  O   O10       1.0  0.9596687437182183  0.13971010793093794  0.8542044945231954  1.0000
  O   O11       1.0  0.4596705644215787  0.8542038571066539  0.139710738919618  1.0000
  O   O12       1.0  0.040329833107755106  0.8602913151410687  0.14579469788835564  1.0000
