data_image0
_chemical_formula_structural       Na2H34C36O18
_chemical_formula_sum              "Na2 H34 C36 O18"
_cell_length_a       7.672486825047367
_cell_length_b       10.669347010657196
_cell_length_c       13.000454517408887
_cell_angle_alpha    107.5974905347923
_cell_angle_beta     107.21120844392006
_cell_angle_gamma    89.91421566533832

_space_group_name_H-M_alt    "P 1"
_space_group_IT_number       1

loop_
  _space_group_symop_operation_xyz
  'x, y, z'

loop_
  _atom_site_type_symbol
  _atom_site_label
  _atom_site_symmetry_multiplicity
  _atom_site_fract_x
  _atom_site_fract_y
  _atom_site_fract_z
  _atom_site_occupancy
  Na  Na1       1.0  0.9260170791755512  0.2501960723678422  0.00026752015122611316  1.0000
  Na  Na2       1.0  0.07398880070213922  0.7498073850961474  0.999741823251384  1.0000
  H   H1        1.0  1.0552457965152438e-06  0.5000040899278773  4.031760952098856e-07  1.0000
  H   H2        1.0  0.9999925748691966  0.9999956084724886  0.9999919681279368  1.0000
  H   H3        1.0  0.4742875932038331  0.8506992984464005  0.8383783985547454  1.0000
  H   H4        1.0  0.6351925872734513  0.6492967726840603  0.16164912145036686  1.0000
  H   H5        1.0  0.5257113595210968  0.1493032025643473  0.16162179684184966  1.0000
  H   H6        1.0  0.3647855211600373  0.350702805520811  0.838340528099785  1.0000
  H   H7        1.0  0.48563131491722805  0.8135902632980673  0.6965473807469565  1.0000
  H   H8        1.0  0.7890025878223028  0.6862041664869238  0.3033638387543576  1.0000
  H   H9        1.0  0.5143628758775803  0.1864073049578039  0.30344997623711834  1.0000
  H   H10       1.0  0.21097580083457504  0.31379739722455463  0.696623279356615  1.0000
  H   H11       1.0  0.6881873541752696  0.822988169451925  0.8102419944922374  1.0000
  H   H12       1.0  0.8772213184739143  0.676898789423184  0.18952391462842402  1.0000
  H   H13       1.0  0.3118020661212525  0.17700445876096887  0.18975482837544896  1.0000
  H   H14       1.0  0.1227620041902782  0.32308893175806463  0.8104621495314321  1.0000
  H   H15       1.0  0.5321410481994562  0.1966465368836126  0.9380797609032643  1.0000
  H   H16       1.0  0.5934318415210029  0.3025774312030761  0.06211664645084617  1.0000
  H   H17       1.0  0.46785314259534516  0.8033510313722586  0.06191759608081066  1.0000
  H   H18       1.0  0.4065674002699281  0.6974171652216512  0.93788162443132  1.0000
  H   H19       1.0  0.7787061037759885  0.2090941875648085  0.7636389926473657  1.0000
  H   H20       1.0  0.014206945631023897  0.2904300905055662  0.23626180084915666  1.0000
  H   H21       1.0  0.2213012661958729  0.7909102490761128  0.23637316483742413  1.0000
  H   H22       1.0  0.9858023721732394  0.7095684377732566  0.7637422994966984  1.0000
  H   H23       1.0  0.33731760500172203  0.39793528990242766  0.499331700636141  1.0000
  H   H24       1.0  0.8384897222841515  0.10180267410657247  0.5006021579069327  1.0000
  H   H25       1.0  0.6626937633435047  0.6020681885665339  0.5006701509135497  1.0000
  H   H26       1.0  0.16149670326930735  0.8981978809863522  0.4993899660690675  1.0000
  H   H27       1.0  0.5477777439532474  0.06022482708372219  0.5949446286810558  1.0000
  H   H28       1.0  0.9526291046594652  0.4393695287768934  0.4051418229797649  1.0000
  H   H29       1.0  0.4522311420917192  0.939770713217719  0.405066341218401  1.0000
  H   H30       1.0  0.04738145728821052  0.5606280223246927  0.5948584057029367  1.0000
  H   H31       1.0  0.32545761621087616  0.1541636581175041  0.45887854748741586  1.0000
  H   H32       1.0  0.8672227462976282  0.3455908157404081  0.5413352094586659  1.0000
  H   H33       1.0  0.6745541784559989  0.8458329060893631  0.5411208819269648  1.0000
  H   H34       1.0  0.1327864685236264  0.6544067513669205  0.4586601713235582  1.0000
  C   C1        1.0  0.6881055470652625  0.3885199979368749  0.7308556868437678  1.0000
  C   C2        1.0  0.956786850389875  0.11100099915547898  0.26897863343251066  1.0000
  C   C3        1.0  0.3119103945454924  0.6114873792343688  0.269163326516079  1.0000
  C   C4        1.0  0.0432051351975531  0.8890005113908471  0.7310231673399983  1.0000
  C   C5        1.0  0.5605443486170218  0.4383313386078313  0.6536383197241095  1.0000
  C   C6        1.0  0.9067055253872665  0.06125156997324411  0.3461664403708725  1.0000
  C   C7        1.0  0.43948092544266604  0.5616740964962759  0.3463680020608422  1.0000
  C   C8        1.0  0.09327200233261122  0.9387539175935657  0.6538307375277129  1.0000
  C   C9        1.0  0.432941708438868  0.3549814033221637  0.5565218953447799  1.0000
  C   C10       1.0  0.8767059137642335  0.1446964843201428  0.4434322231341883  1.0000
  C   C11       1.0  0.5670686702818628  0.6450250159663113  0.4434882093172733  1.0000
  C   C12       1.0  0.12328225640231949  0.8553070135919824  0.5565670963731933  1.0000
  C   C13       1.0  0.42813167145887837  0.2184568739463088  0.5343316102530907  1.0000
  C   C14       1.0  0.894039817090885  0.28122732446475845  0.46574041932561994  1.0000
  C   C15       1.0  0.5718874706958489  0.7815436249737074  0.46567317000854314  1.0000
  C   C16       1.0  0.10595888111512153  0.718773212903713  0.5342553946217735  1.0000
  C   C17       1.0  0.5520409349680904  0.16651192215459787  0.6098496547898763  1.0000
  C   C18       1.0  0.9420510329727988  0.33308668690686005  0.3901884675498266  1.0000
  C   C19       1.0  0.4479702475685984  0.8334905246911501  0.3901657520587421  1.0000
  C   C20       1.0  0.057954466554534206  0.6669138263084022  0.6098139196296232  1.0000
  C   C21       1.0  0.6807824191662063  0.2506941188809364  0.7062656921631786  1.0000
  C   C22       1.0  0.9739895422146675  0.2488435142952881  0.2936476484753215  1.0000
  C   C23       1.0  0.3192411872844758  0.749319210091869  0.2937461553215287  1.0000
  C   C24       1.0  0.02600778030438993  0.7511570147852211  0.7063509985586836  1.0000
  C   C25       1.0  0.8266603245947836  0.476044772060817  0.8365607456200694  1.0000
  C   C26       1.0  0.9892857396720842  0.0234883422395384  0.16312103762800942  1.0000
  C   C27       1.0  0.1733669768829884  0.5239754911792075  0.16344656093750845  1.0000
  C   C28       1.0  0.010705825031337232  0.9765299848083515  0.8368787378615112  1.0000
  C   C29       1.0  0.5113864662358765  0.6496887693930588  0.7607072701779033  1.0000
  C   C30       1.0  0.749710879565484  0.8502706554498047  0.23948015764828784  1.0000
  C   C31       1.0  0.48863186353473503  0.35031569468158347  0.2392945121932898  1.0000
  C   C32       1.0  0.2502673261389106  0.14972987906782717  0.7605197476629046  1.0000
  C   C33       1.0  0.5398345394486483  0.7934907066078551  0.7774321341242472  1.0000
  C   C34       1.0  0.7618007124235716  0.7063902659208379  0.22248659729929443  1.0000
  C   C35       1.0  0.4601610013286361  0.2065068480716477  0.22256930266159008  1.0000
  C   C36       1.0  0.2381783570738776  0.29360634717082223  0.777502480125577  1.0000
  O   O1        1.0  0.905848173411023  0.4191945452462634  0.9120901823854981  1.0000
  O   O2        1.0  0.9945608235139715  0.08074693957325252  0.08819279043761702  1.0000
  O   O3        1.0  0.0941570344687079  0.580803972744917  0.08791780862795663  1.0000
  O   O4        1.0  0.005424243763314995  0.919243724427197  0.9118004692536203  1.0000
  O   O5        1.0  0.8631476013322228  0.5950425902351811  0.8497364137324441  1.0000
  O   O6        1.0  0.010917340663496592  0.9040562959575168  0.1492401224625652  1.0000
  O   O7        1.0  0.13687023109922342  0.40494805889165514  0.15025644456637371  1.0000
  O   O8        1.0  0.9890769990856257  0.09593237495903398  0.8507565757266636  1.0000
  O   O9        1.0  0.5571295055332471  0.573707517123779  0.6684661443111752  1.0000
  O   O10       1.0  0.8886299575672966  0.925884638421728  0.3312239017272989  1.0000
  O   O11       1.0  0.4428675139139955  0.4262910070151734  0.3315411789516817  1.0000
  O   O12       1.0  0.1113522465104637  0.07411493792394447  0.6687656976487946  1.0000
  O   O13       1.0  0.4533763165725944  0.599190585470474  0.8185771554323014  1.0000
  O   O14       1.0  0.63296035771954  0.9010852313731091  0.1822697984789983  1.0000
  O   O15       1.0  0.5466241208088576  0.40080299247772905  0.181430301464765  1.0000
  O   O16       1.0  0.3670349828038227  0.09891040582213861  0.8177126629821602  1.0000
  O   O17       1.0  0.6382562450907441  0.24927329445637264  0.00045560540741719355  1.0000
  O   O18       1.0  0.36173686166471  0.7507262607356323  0.9995389808292645  1.0000
