data_image0
_chemical_formula_structural       Zn6H64C72O32
_chemical_formula_sum              "Zn6 H64 C72 O32"
_cell_length_a       21.126625484618017
_cell_length_b       21.126794240012895
_cell_length_c       21.126768116032316
_cell_angle_alpha    62.184449708822406
_cell_angle_beta     86.17292301784988
_cell_angle_gamma    117.81519879621598

_space_group_name_H-M_alt    "P 1"
_space_group_IT_number       1

loop_
  _space_group_symop_operation_xyz
  'x, y, z'

loop_
  _atom_site_type_symbol
  _atom_site_label
  _atom_site_symmetry_multiplicity
  _atom_site_fract_x
  _atom_site_fract_y
  _atom_site_fract_z
  _atom_site_occupancy
  Zn  Zn1       1.0  0.9408823838489014  0.44088014984562546  0.4999979894588124  1.0000
  Zn  Zn2       1.0  0.955628979759247  3.95915552073862e-06  0.04437204712547082  1.0000
  Zn  Zn3       1.0  0.044378248896471455  3.32102590044018e-06  0.9556253022928661  1.0000
  Zn  Zn4       1.0  0.5000078475492344  0.44090942356935864  0.05909243151585753  1.0000
  Zn  Zn5       1.0  0.05908838242350338  0.5590881221250966  0.5000057575348081  1.0000
  Zn  Zn6       1.0  0.49999054308174357  0.5591151443846057  0.9408957506942387  1.0000
  H   H1        1.0  0.178928098047052  0.8207401794592569  0.2153379234135571  1.0000
  H   H2        1.0  0.3581911980765822  0.39426091928633133  0.8210815725011503  1.0000
  H   H3        1.0  0.8435917188047456  0.6556438925558937  0.08657158615257282  1.0000
  H   H4        1.0  0.02049662320033008  0.21968531722301776  0.02289801447162183  1.0000
  H   H5        1.0  0.045420761140476856  0.32746886252588325  0.9725164803001863  1.0000
  H   H6        1.0  0.9512868838408224  0.24061111292163415  0.041133896769778765  1.0000
  H   H7        1.0  0.9497739208881057  0.28966331886439173  0.9074942216132487  1.0000
  H   H8        1.0  0.9257483750880126  0.18299620493070257  0.958039198211971  1.0000
  H   H9        1.0  0.06341832555261093  0.23922524415591775  0.8994647616149225  1.0000
  H   H10       1.0  0.08657321208654171  0.34435606155395965  0.8435870859221525  1.0000
  H   H11       1.0  0.9771040136247533  0.9566177786131005  0.2425878551427446  1.0000
  H   H12       1.0  0.027487780376638668  0.9820778928790476  0.29998566695915946  1.0000
  H   H13       1.0  0.9639277870769476  0.17926689152257322  0.6418128681035075  1.0000
  H   H14       1.0  0.9588672755791164  0.007592621563418095  0.28174546989315286  1.0000
  H   H15       1.0  0.0925122780948513  0.1427477602874987  0.19715339073228227  1.0000
  H   H16       1.0  0.04196044221345118  0.11622042925968397  0.1410333292475485  1.0000
  H   H17       1.0  0.10053279729454094  0.037120959794499704  0.1386915889119891  1.0000
  H   H18       1.0  0.1564114197856625  0.06984073598709269  0.18794622020206483  1.0000
  H   H19       1.0  0.7574161464317014  0.780315136565022  0.1992001105597297  1.0000
  H   H20       1.0  0.7000183573138514  0.6725374896077411  0.28205473837684997  1.0000
  H   H21       1.0  0.7182585816042106  0.7593939294254566  0.289330247141493  1.0000
  H   H22       1.0  0.8028484060008836  0.7103393231558428  0.33989571738058555  1.0000
  H   H23       1.0  0.8589687494905148  0.8170067839929017  0.2572506406440171  1.0000
  H   H24       1.0  0.7846620654874742  0.6057424138607956  0.03607417714436423  1.0000
  H   H25       1.0  0.8613122621901751  0.7607776053336792  0.17580892548210164  1.0000
  H   H26       1.0  0.8120552306433523  0.6556418853333169  0.2577875306231264  1.0000
  H   H27       1.0  0.8007986598117397  0.0433819100222193  0.9795174634091102  1.0000
  H   H28       1.0  0.7179427410888477  0.017927376161416635  0.9545899058409548  1.0000
  H   H29       1.0  0.7106663657223534  0.9924092869119503  0.04872658819726897  1.0000
  H   H30       1.0  0.6601021413177578  0.8572566691366745  0.050233631115112705  1.0000
  H   H31       1.0  0.7427484022088536  0.8837805501008944  0.07425777148264971  1.0000
  H   H32       1.0  0.8241904196544636  0.9628820354464052  0.9365868277861512  1.0000
  H   H33       1.0  0.7422129981370134  0.9301618175685178  0.9134279772797175  1.0000
  H   H34       1.0  0.03607513934836943  0.3942572809632947  0.7846613793298759  1.0000
  H   H35       1.0  0.2153407439974088  0.1792701786266234  0.17891782055780692  1.0000
  H   H36       1.0  0.8210886622445486  0.6057450932212447  0.35818507672726696  1.0000
  H   H37       1.0  0.6418155324508349  0.8207367309005279  0.9639247070889214  1.0000
  H   H38       1.0  0.24259120812715185  0.043384927666238346  0.9770991769586179  1.0000
  H   H39       1.0  0.29999061543565386  0.017925526584562576  0.027482760311329516  1.0000
  H   H40       1.0  0.2817488198974728  0.9924065575456141  0.958866711620168  1.0000
  H   H41       1.0  0.19716087438590074  0.8572569309573979  0.0925125291049157  1.0000
  H   H42       1.0  0.14103842567043745  0.8837788751704564  0.041961217383487744  1.0000
  H   H43       1.0  0.13869633474959636  0.962883022739078  0.10052895497337026  1.0000
  H   H44       1.0  0.18794932611512383  0.9301623982298822  0.1564072909739451  1.0000
  H   H45       1.0  0.19920818942816246  0.21968617755523911  0.7574137195793257  1.0000
  H   H46       1.0  0.2820645939542317  0.32746928575129164  0.7000129893246057  1.0000
  H   H47       1.0  0.2893414669281567  0.24060761913116813  0.7182595762325407  1.0000
  H   H48       1.0  0.33990423959248517  0.2896667487098766  0.8028462800344801  1.0000
  H   H49       1.0  0.257259540366064  0.1829969599673972  0.8589670986818592  1.0000
  H   H50       1.0  0.17581302894874523  0.23922340637813713  0.8613066412134955  1.0000
  H   H51       1.0  0.2577930083065353  0.3443622319297359  0.8120498862826296  1.0000
  H   H52       1.0  0.9795213679723249  0.9566187499057224  0.8007948612958419  1.0000
  H   H53       1.0  0.954594322087935  0.9820767211858905  0.7179384690712214  1.0000
  H   H54       1.0  0.0487325404320771  0.007595147140250389  0.7106590928203007  1.0000
  H   H55       1.0  0.050237520758201995  0.14274803501876931  0.6600955813779593  1.0000
  H   H56       1.0  0.07426534154334526  0.11622300584550524  0.7427427878885382  1.0000
  H   H57       1.0  0.9365936643379413  0.03712382585800361  0.8241844627805293  1.0000
  H   H58       1.0  0.9134333218752816  0.06984104733115978  0.7422107552203627  1.0000
  H   H59       1.0  0.022902565153735666  0.780311622772743  0.02048654091899495  1.0000
  H   H60       1.0  0.9725189355733405  0.6725310022221861  0.04541161717609304  1.0000
  H   H61       1.0  0.041137560619105604  0.7593889530213145  0.9512773388085026  1.0000
  H   H62       1.0  0.9074935566449226  0.7103377213467394  0.949766473551897  1.0000
  H   H63       1.0  0.9580419090554458  0.8170050255843294  0.9257439343731452  1.0000
  H   H64       1.0  0.8994696911296033  0.7607779261426088  0.06341188544717373  1.0000
  C   C1        1.0  9.599228100284204e-06  0.6172252992707996  0.3827832236200522  1.0000
  C   C2        1.0  7.2719529951802815e-06  0.8817345823432419  0.11826107588193928  1.0000
  C   C3        1.0  0.23685630232395735  0.2758395529557872  0.8534288768060566  1.0000
  C   C4        1.0  0.27750228948226396  0.2504991759919049  0.8162651398297244  1.0000
  C   C5        1.0  0.2613426941136012  0.2600935770960859  0.7439523853322073  1.0000
  C   C6        1.0  0.9610145133942181  0.09028225202897719  0.7631432102503769  1.0000
  C   C7        1.0  0.0269989783901253  0.09375869626232013  0.7225014226959701  1.0000
  C   C8        1.0  0.0012504684249278742  0.005295437667704967  0.7386573856557349  1.0000
  C   C9        1.0  0.8707341493477401  0.7241600687548625  0.03898640482980652  1.0000
  C   C10       1.0  0.9332410129059026  0.7495007059260459  0.9730062616886245  1.0000
  C   C11       1.0  0.995955672106362  0.7399058262535405  0.9987581283404128  1.0000
  C   C12       1.0  0.038986414017138156  0.2758369254605383  0.8707308473450155  1.0000
  C   C13       1.0  0.11827218252197721  0.11826895842079208  0.9999953837845869  1.0000
  C   C14       1.0  0.9730067879640315  0.25049891371195776  0.9332378771560959  1.0000
  C   C15       1.0  0.9987701819210599  0.2600956302764386  0.9959549302695696  1.0000
  C   C16       1.0  0.129266557084847  0.09027902791687839  0.14657643821276886  1.0000
  C   C17       1.0  0.06676102573156577  0.09375753547494264  0.18373729297553615  1.0000
  C   C18       1.0  0.004048527499179521  0.005293319727265119  0.2560479151426094  1.0000
  C   C19       1.0  0.853429382817488  0.7241612021355762  0.23685331055242662  1.0000
  C   C20       1.0  0.8162661789050176  0.7495021486532422  0.27749179696524373  1.0000
  C   C21       1.0  0.743954937745677  0.7399090877167821  0.2613341905142051  1.0000
  C   C22       1.0  0.7631474423001662  0.9097207945663399  0.9610131852826671  1.0000
  C   C23       1.0  0.7225057874763223  0.9062419323117157  0.026995822204121212  1.0000
  C   C24       1.0  7.4962624906818495e-06  0.11826624819410375  0.8817270731576275  1.0000
  C   C25       1.0  0.7386631180505886  0.9947088194460106  0.0012452558246066766  1.0000
  C   C26       1.0  0.14657576536787784  0.9097200405713933  0.12926720372404088  1.0000
  C   C27       1.0  0.18374170167758297  0.9062418986914407  0.06676314893652355  1.0000
  C   C28       1.0  0.2560495158335598  0.994706057879938  0.004048700010926565  1.0000
  C   C29       1.0  0.8817404491127829  0.8817367258074281  0.9999945367059416  1.0000
  C   C30       1.0  0.9099455156000855  0.49992044693364307  0.5899908770663844  1.0000
  C   C31       1.0  0.410014343034696  0.4999955513096737  0.08998806091310031  1.0000
  C   C32       1.0  0.08993969134947119  0.4999526079276251  0.4100309988913439  1.0000
  C   C33       1.0  0.3827816809810826  0.382783463107458  1.973719136624969e-06  1.0000
  C   C34       1.0  0.5899986121650825  0.500080748409992  0.9099648761841482  1.0000
  C   C35       1.0  0.86017516585067  0.4999068785177487  0.639757209151412  1.0000
  C   C36       1.0  0.36025722561146256  0.4999860097821837  0.1397550481301906  1.0000
  C   C37       1.0  0.13971002727219423  0.4999535369815573  0.3602700949446742  1.0000
  C   C38       1.0  0.6397825519317379  0.5001187626848919  0.8601870487788832  1.0000
  C   C39       1.0  0.999996977398908  0.38277992885102197  0.6172197488144707  1.0000
  C   C40       1.0  0.8176852521169451  0.4999485585760792  0.6822775268886974  1.0000
  C   C41       1.0  0.3177344621986933  0.49999194683274334  0.18227321429426985  1.0000
  C   C42       1.0  0.1822443485527003  0.49997005434759956  0.3177462028562062  1.0000
  C   C43       1.0  0.682287905192183  0.5000662418992617  0.8176948885054504  1.0000
  C   C44       1.0  0.6172187966305955  0.617221755373201  1.9816034254054898e-06  1.0000
  C   C45       1.0  0.771362833916996  0.49997630123067455  0.7286103793163436  1.0000
  C   C46       1.0  0.2713925733009788  0.4999933704896478  0.22861446392323612  1.0000
  C   C47       1.0  0.22860206016341078  0.49999645086589345  0.27139209199424386  1.0000
  C   C48       1.0  0.7286011178279993  0.5000167442998206  0.7713782576460703  1.0000
  C   C49       1.0  0.0696105869228985  0.7612744062038813  0.2549041229342136  1.0000
  C   C50       1.0  0.3083440809566511  0.3245033296274612  0.9303972111543858  1.0000
  C   C51       1.0  0.9838406948465704  0.23874102072806352  0.6916566474291418  1.0000
  C   C52       1.0  0.7451025325006667  0.6754988136483104  0.016166264706441908  1.0000
  C   C53       1.0  0.016167639859148226  0.3244992356145531  0.7451029322079422  1.0000
  C   C54       1.0  0.254898452879928  0.23873550692469783  0.06960588547717353  1.0000
  C   C55       1.0  0.9304041071188465  0.675505079214389  0.30834020871520845  1.0000
  C   C56       1.0  0.6916598043706798  0.7612662784425268  0.983840560409398  1.0000
  C   C57       1.0  0.07106379358828704  0.8270975694534926  0.19040870092573672  1.0000
  C   C58       1.0  0.24396908881200818  0.26147018904003966  0.9289383024291523  1.0000
  C   C59       1.0  0.9824995347059727  0.17290761513999064  0.7560342662935757  1.0000
  C   C60       1.0  0.8095943150824993  0.7385327671742346  0.017504457290861714  1.0000
  C   C61       1.0  0.017504194713282642  0.26146753317470944  0.8095944003524879  1.0000
  C   C62       1.0  0.1904067839061767  0.17290540578032676  0.07106189189796207  1.0000
  C   C63       1.0  0.9289422181404279  0.7385348895772667  0.24396681693934844  1.0000
  C   C64       1.0  0.7560373986261482  0.8270987948054724  0.9824963141516035  1.0000
  C   C65       1.0  2.38814739347021e-06  0.8132405773257858  0.1867590730362494  1.0000
  C   C66       1.0  0.18676604452357284  0.18676514673072836  0.9999977081867332  1.0000
  C   C67       1.0  1.3332500828553207e-06  0.18676079779915966  0.8132402484446147  1.0000
  C   C68       1.0  0.8132418007599326  0.8132409836803588  0.9999995644766243  1.0000
  C   C69       1.0  8.60678918699937e-06  0.6856455381116573  0.3143716671052631  1.0000
  C   C70       1.0  0.3143655526947454  0.31436159441791023  5.271674893924843e-06  1.0000
  C   C71       1.0  4.017351862632457e-06  0.3143682319368394  0.6856330975964371  1.0000
  C   C72       1.0  0.6856349669529608  0.685635074025207  4.687165137927881e-06  1.0000
  O   O1        1.0  0.9568480143833609  0.5394975044342443  0.40153471751679615  1.0000
  O   O2        1.0  0.4173578164218911  0.35837096099731275  0.043170321272334874  1.0000
  O   O3        1.0  0.058988376426050544  0.4605274023451216  0.582653147294714  1.0000
  O   O4        1.0  0.5984537273386509  0.6416303447775319  0.9410309779100815  1.0000
  O   O5        1.0  0.9410260603301308  0.35837266419574804  0.5984590724733323  1.0000
  O   O6        1.0  0.4015361647678901  0.4605159162493208  0.9568355421617415  1.0000
  O   O7        1.0  0.04318735079220198  0.6416437371206883  0.4173532617611287  1.0000
  O   O8        1.0  0.5826533811333832  0.5394761097182226  0.058986075811972814  1.0000
  O   O9        1.0  0.8777676063316376  0.45750372460483385  0.5611779683081295  1.0000
  O   O10       1.0  0.4202569003206307  0.4389962775610954  0.12217393859791782  1.0000
  O   O11       1.0  0.9811919360640787  0.5423592100644186  0.5797477585348575  1.0000
  O   O12       1.0  0.4388115798419178  0.5609905305104305  0.018757386563926618  1.0000
  O   O13       1.0  0.01870824126243054  0.43896913243758456  0.438838612099012  1.0000
  O   O14       1.0  0.5611851373112982  0.5424981964847361  0.8777833703444317  1.0000
  O   O15       1.0  0.12213631884925745  0.5609608880823416  0.420267704920157  1.0000
  O   O16       1.0  0.5797549589797696  0.45763598952659373  0.9812080887170399  1.0000
  O   O17       1.0  0.9468409284035316  0.9213096832332395  0.9491517715633437  1.0000
  O   O18       1.0  0.025534637934441818  0.895994594193887  0.053158046310471704  1.0000
  O   O19       1.0  0.12954066446631862  0.0786933673741641  0.974469933008017  1.0000
  O   O20       1.0  0.05085138659160302  0.10400931605548903  0.8704568531736783  1.0000
  O   O21       1.0  0.8704619287846641  0.8959988224317003  0.050851374428987  1.0000
  O   O22       1.0  0.9491521303093718  0.07868736602070897  0.9468444983663322  1.0000
  O   O23       1.0  0.05315298006087938  0.10400747592831999  0.025533189745509312  1.0000
  O   O24       1.0  0.9744709151876946  0.9213156119477688  0.12953798330164557  1.0000
  O   O25       1.0  0.13588086497496468  0.7677499528101207  0.26181880880554337  1.0000
  O   O26       1.0  0.3681343067917096  0.3976906043919754  0.8641313658364854  1.0000
  O   O27       1.0  0.9704431841969595  0.23225978350609466  0.6318695523974259  1.0000
  O   O28       1.0  0.7381825983872119  0.6023125925379275  0.02956110246967826  1.0000
  O   O29       1.0  0.029562473600357433  0.3976887675276473  0.7381823118393599  1.0000
  O   O30       1.0  0.26181965750863156  0.23225853006552907  0.13587336054812485  1.0000
  O   O31       1.0  0.8641383725080729  0.6023190649584931  0.3681318082494587  1.0000
  O   O32       1.0  0.6318703245749546  0.7677436083358132  0.9704392404281282  1.0000
