data_image0
_chemical_formula_structural       Ti4H44C88O20
_chemical_formula_sum              "Ti4 H44 C88 O20"
_cell_length_a       6.776999253609678
_cell_length_b       16.190060038577275
_cell_length_c       29.823789879392955
_cell_angle_alpha    89.9755277926731
_cell_angle_beta     89.45581950928792
_cell_angle_gamma    87.70089964915239

_space_group_name_H-M_alt    "P 1"
_space_group_IT_number       1

loop_
  _space_group_symop_operation_xyz
  'x, y, z'

loop_
  _atom_site_type_symbol
  _atom_site_label
  _atom_site_symmetry_multiplicity
  _atom_site_fract_x
  _atom_site_fract_y
  _atom_site_fract_z
  _atom_site_occupancy
  Ti  Ti1       1.0  0.2837234886336333  0.00020119759840749995  0.2551957878736744  1.0000
  Ti  Ti2       1.0  0.7199527083008379  0.9997977704105663  0.7458317871364386  1.0000
  Ti  Ti3       1.0  0.2196571773326212  0.9996027766244991  0.7550863369397973  1.0000
  Ti  Ti4       1.0  0.784030048507603  8.892462174969984e-05  0.2458772125581419  1.0000
  H   H1        1.0  0.4649422373204716  0.2910833830876953  0.042175008240519694  1.0000
  H   H2        1.0  0.4932733721144161  0.5017291178590071  0.1551570291978948  1.0000
  H   H3        1.0  0.4701180719601724  0.2900728345357066  0.9601248712631189  1.0000
  H   H4        1.0  0.5094666367603367  0.4980658429530962  0.8458317454740722  1.0000
  H   H5        1.0  0.5372327340930384  0.708751151356374  0.9588463992289746  1.0000
  H   H6        1.0  0.5320216361021225  0.7097343776557921  0.0408939486909716  1.0000
  H   H7        1.0  0.9743942615871575  0.2903980305205422  0.5416491133987053  1.0000
  H   H8        1.0  0.019128991927317412  0.49911134235581756  0.6549919820009578  1.0000
  H   H9        1.0  0.962990586203304  0.29080409461612783  0.4596659066442967  1.0000
  H   H10       1.0  0.9852811647837219  0.5006495617077107  0.34583456770771903  1.0000
  H   H11       1.0  0.03177939451867933  0.7093630577812959  0.4591819468493057  1.0000
  H   H12       1.0  0.041756303028670116  0.7090203544788097  0.5411805549987179  1.0000
  H   H13       1.0  0.2681105708557823  0.2998379378156386  0.4052305067439548  1.0000
  H   H14       1.0  0.27272316909004257  0.17008048747886312  0.35972926914354997  1.0000
  H   H15       1.0  0.7140153647977313  0.3772312189754459  0.3458687248072039  1.0000
  H   H16       1.0  0.7132909552813304  0.24473753825333938  0.3027948214255503  1.0000
  H   H17       1.0  0.2184945762945603  0.24542101085781096  0.19968497574276967  1.0000
  H   H18       1.0  0.7785372889247243  0.17105753069539992  0.14056316212072772  1.0000
  H   H19       1.0  0.7735178081177949  0.30080025685018785  0.0949883377268677  1.0000
  H   H20       1.0  0.21924784330807515  0.3780024523361193  0.1566522165195039  1.0000
  H   H21       1.0  0.23254011290780605  0.8331877282322893  0.14416865664845352  1.0000
  H   H22       1.0  0.22027906351131318  0.7035977943998688  0.0988134619644327  1.0000
  H   H23       1.0  0.7869781824509446  0.6225754124717824  0.1505680307810309  1.0000
  H   H24       1.0  0.8055784613247781  0.7555650067313806  0.1926891531596837  1.0000
  H   H25       1.0  0.7266166328557874  0.8322830165808526  0.3573752382716222  1.0000
  H   H26       1.0  0.28183126652280777  0.6219634522339064  0.34899955160390306  1.0000
  H   H27       1.0  0.3007960043773182  0.7550639546765154  0.3068781007691541  1.0000
  H   H28       1.0  0.7140680921199091  0.7025362567183322  0.40276127524284533  1.0000
  H   H29       1.0  0.7027853969882616  0.24480196085212924  0.6936833312929451  1.0000
  H   H30       1.0  0.27766156788326424  0.16748601615785924  0.6436726150503488  1.0000
  H   H31       1.0  0.7224396698195079  0.3778317627167809  0.6515202137219019  1.0000
  H   H32       1.0  0.29081059829904643  0.29707030282213504  0.5981616638689432  1.0000
  H   H33       1.0  0.2904871167956173  0.62292387920764  0.654980999507238  1.0000
  H   H34       1.0  0.29033248930443273  0.7554870650653739  0.698004178912022  1.0000
  H   H35       1.0  0.7302810060507242  0.8293975372303565  0.641156269511363  1.0000
  H   H36       1.0  0.7358832647366711  0.6996686803462921  0.5956269953083576  1.0000
  H   H37       1.0  0.22487463982022157  0.8286729734465794  0.8601187652953755  1.0000
  H   H38       1.0  0.2292974911365279  0.6990692514377699  0.9057812787834791  1.0000
  H   H39       1.0  0.7855567300023123  0.7542403117898502  0.8013440305136755  1.0000
  H   H40       1.0  0.7843672363855632  0.6217785935063702  0.844500951893842  1.0000
  H   H41       1.0  0.7707004253870481  0.166487510645986  0.8571658855479783  1.0000
  H   H42       1.0  0.1983557265940732  0.2440378793709073  0.8081765354587702  1.0000
  H   H43       1.0  0.21636994437291435  0.3771140239196099  0.8502200229740566  1.0000
  H   H44       1.0  0.7823575295180589  0.29625607229161227  0.902447166036943  1.0000
  C   C1        1.0  0.4976871343146314  0.12181305354420151  0.1981889007074642  1.0000
  C   C2        1.0  0.48016236796023287  0.34874625811287535  0.0238565194438323  1.0000
  C   C3        1.0  0.4996089606257002  0.5001814304627742  0.024478247701800595  1.0000
  C   C4        1.0  0.4943303683750245  0.4253637333553754  0.096220708580077  1.0000
  C   C5        1.0  0.49378203550846683  0.42390821765739145  0.048675314874223795  1.0000
  C   C6        1.0  0.49416659531586044  0.501255421948059  0.1185614660748371  1.0000
  C   C7        1.0  0.34057985591457646  0.25884840669917963  0.1771325132044907  1.0000
  C   C8        1.0  0.34151607941903706  0.3324855840794569  0.15302622770729363  1.0000
  C   C9        1.0  0.6527431513044847  0.2888646327656161  0.1182329561446167  1.0000
  C   C10       1.0  0.6558554302487068  0.21645530680365252  0.14336404666089916  1.0000
  C   C11       1.0  0.47373791527476783  0.1196666248415283  0.8042658108397944  1.0000
  C   C12       1.0  0.4829704054118197  0.3481892814130276  0.9780761437591323  1.0000
  C   C13       1.0  0.5030318849370516  0.49961629734237806  0.9765137997239037  1.0000
  C   C14       1.0  0.5051262529377354  0.4232226387689195  0.9053030432248832  1.0000
  C   C15       1.0  0.4998331933264595  0.4227848271053674  0.9528231946132877  1.0000
  C   C16       1.0  0.5084802977050984  0.4985410885450037  0.8824312365614659  1.0000
  C   C17       1.0  0.5060929014245376  0.8778746556605982  0.8026982964514104  1.0000
  C   C18       1.0  0.5223572805212698  0.6510665304638011  0.9771428792990378  1.0000
  C   C19       1.0  0.508525718210919  0.5744619033039767  0.904774803879846  1.0000
  C   C20       1.0  0.5089596043452858  0.5758984962156576  0.9523164715733685  1.0000
  C   C21       1.0  0.5056186659423858  0.79921401520685  0.8283673256408547  1.0000
  C   C22       1.0  0.507451622829926  0.6518798811345403  0.8782740371553359  1.0000
  C   C23       1.0  0.4833811093206961  0.19768062418317098  0.8302777094190149  1.0000
  C   C24       1.0  0.3267718796986614  0.25681024125226765  0.8283885488048384  1.0000
  C   C25       1.0  0.3371632328416112  0.3306166379676014  0.8519792635146074  1.0000
  C   C26       1.0  0.499941216509967  0.3452862515080212  0.8792957437946143  1.0000
  C   C27       1.0  0.6552451061121758  0.2851715512433515  0.8813812132514371  1.0000
  C   C28       1.0  0.6490952928745841  0.21266023409178555  0.8564458779973094  1.0000
  C   C29       1.0  0.5299352518583833  0.879955069805817  0.19688857293194667  1.0000
  C   C30       1.0  0.519471536797994  0.6516189260719116  0.0229211087083456  1.0000
  C   C31       1.0  0.4974625982698697  0.5765780118567249  0.0956877964843272  1.0000
  C   C32       1.0  0.5027543943274396  0.5770015935569647  0.048175027147735215  1.0000
  C   C33       1.0  0.5201389364107527  0.8019752091222471  0.1708559395752403  1.0000
  C   C34       1.0  0.6768509336816564  0.742850950776571  0.17257248873877268  1.0000
  C   C35       1.0  0.6662192807665833  0.6691161429973248  0.14892973971196713  1.0000
  C   C36       1.0  0.503016703493998  0.654488388159109  0.12170923775686049  1.0000
  C   C37       1.0  0.3476885588313793  0.7146196367784866  0.1197784031622504  1.0000
  C   C38       1.0  0.35415275721643985  0.7870441454582389  0.144769943110127  1.0000
  C   C39       1.0  0.49812323082547044  0.2004704852884558  0.17250286976775436  1.0000
  C   C40       1.0  0.4958349336976084  0.3479360329921732  0.1227119853170393  1.0000
  C   C41       1.0  0.6632343935014405  0.7408572999333173  0.8238605490017576  1.0000
  C   C42       1.0  0.6620958750420841  0.6673035302721217  0.8480370862503861  1.0000
  C   C43       1.0  0.35048703297039924  0.7109579548699185  0.882628477689849  1.0000
  C   C44       1.0  0.34762957735390654  0.7832896065729215  0.857434375932229  1.0000
  C   C45       1.0  0.9781721399071585  0.12057893603855518  0.6971811007160441  1.0000
  C   C46       1.0  0.9859540718605545  0.3483544117270512  0.5234023759139035  1.0000
  C   C47       1.0  0.00612859755958791  0.4997829781281169  0.5243720657468387  1.0000
  C   C48       1.0  0.012589092543208795  0.42389684413424794  0.5957464613412283  1.0000
  C   C49       1.0  0.004573835697257811  0.4231422862533734  0.5482912815344037  1.0000
  C   C50       1.0  0.01673012725525781  0.49934484019399145  0.6183957403201178  1.0000
  C   C51       1.0  0.989132719615938  0.19859558546295367  0.6711451580596375  1.0000
  C   C52       1.0  0.8321997077401305  0.2576135364817702  0.6732607056420008  1.0000
  C   C53       1.0  0.8434241935048379  0.3313755951962349  0.6495886066535661  1.0000
  C   C54       1.0  0.0073689250525533065  0.3460855977119266  0.6219349029216374  1.0000
  C   C55       1.0  0.16299160796260284  0.28604316860725726  0.6195710706459893  1.0000
  C   C56       1.0  0.1559777262847604  0.21361322029807184  0.6446202806811384  1.0000
  C   C57       1.0  0.9930437250974721  0.1210909716420616  0.30323871558570664  1.0000
  C   C58       1.0  0.9797240854086624  0.3485881282395198  0.4776615503255996  1.0000
  C   C59       1.0  0.9994558426039647  0.4999935093638966  0.4764444154122316  1.0000
  C   C60       1.0  0.9896455645877469  0.4246655496490633  0.4049808339323775  1.0000
  C   C61       1.0  0.9918680356689719  0.42356090194363816  0.4525172675950699  1.0000
  C   C62       1.0  0.9881045405333566  0.500432910130037  0.38242535442719117  1.0000
  C   C63       1.0  0.9904004731257884  0.3470931033757765  0.3786701538228598  1.0000
  C   C64       1.0  0.025801938308241335  0.879406794807082  0.303815196345731  1.0000
  C   C65       1.0  0.019897311081848616  0.6514235643234443  0.4774150939180828  1.0000
  C   C66       1.0  0.9927393326688474  0.5758856122617004  0.4050659841529054  1.0000
  C   C67       1.0  0.0011996648287464365  0.5766433094042326  0.4525187900732561  1.0000
  C   C68       1.0  0.9926215032121277  0.19967148856882488  0.3289290830128166  1.0000
  C   C69       1.0  0.8351984303724365  0.2580635337893042  0.3249079228968482  1.0000
  C   C70       1.0  0.8361089600237505  0.3316557403313495  0.34901833442669533  1.0000
  C   C71       1.0  0.14718750925558768  0.28792777067980785  0.382542630739799  1.0000
  C   C72       1.0  0.150165174405231  0.2155322503567731  0.3574402567632049  1.0000
  C   C73       1.0  0.009886240374953632  0.8788029787967631  0.6976399108053214  1.0000
  C   C74       1.0  0.025475549552624023  0.6512118340748358  0.5231663129610737  1.0000
  C   C75       1.0  0.015102129006066906  0.5751384987509951  0.595858922614866  1.0000
  C   C76       1.0  0.013250249251058206  0.5762412648778436  0.5483188521942921  1.0000
  C   C77       1.0  0.010614646579085722  0.8001900707943008  0.6719440652587281  1.0000
  C   C78       1.0  0.16846678640895624  0.7419657867047037  0.6759211762758995  1.0000
  C   C79       1.0  0.16806924429191378  0.668353604553701  0.6518235290554202  1.0000
  C   C80       1.0  0.013832313298259229  0.6527104987055806  0.622177970518635  1.0000
  C   C81       1.0  0.8566680367242939  0.7116791855188607  0.6183276187901399  1.0000
  C   C82       1.0  0.8531549675679744  0.7840729551612571  0.6434400900705198  1.0000
  C   C83       1.0  0.014868589568038723  0.8012455961832713  0.3297132807387229  1.0000
  C   C84       1.0  0.1717054740732992  0.7422032983038066  0.327410214519162  1.0000
  C   C85       1.0  0.1608806943657868  0.6684159616860442  0.3510631812882182  1.0000
  C   C86       1.0  0.9974331505203649  0.6536914393569333  0.3788604575276153  1.0000
  C   C87       1.0  0.8417233339885611  0.7136642812366105  0.3813264568570744  1.0000
  C   C88       1.0  0.8483328385429941  0.7861491632333893  0.3563208637950622  1.0000
  O   O1        1.0  0.5193571224403968  0.9995666776821035  0.2770545936580717  1.0000
  O   O2        1.0  0.3348597197655608  0.10132484839093078  0.2158486623057101  1.0000
  O   O3        1.0  0.4843403847969512  0.00037608125907699944  0.7239880234957141  1.0000
  O   O4        1.0  0.6359023314686424  0.07890893244926638  0.7966397824349158  1.0000
  O   O5        1.0  0.34277170504073234  0.9202821445420495  0.8004734984567676  1.0000
  O   O6        1.0  0.30371852873935984  0.09853522685661888  0.7915445851650986  1.0000
  O   O7        1.0  0.6999815833421438  0.9009337836212695  0.20968653644831653  1.0000
  O   O8        1.0  0.6609453273460417  0.0793626928892692  0.20041051435563872  1.0000
  O   O9        1.0  0.3679872006902656  0.9209052007865067  0.204430189447848  1.0000
  O   O10       1.0  0.6689448561016108  0.8984748410235708  0.7850954565061699  1.0000
  O   O11       1.0  0.9822337307217309  0.9997909755692193  0.7769593636289187  1.0000
  O   O12       1.0  0.8072652376608218  0.0993337662149685  0.7099767525658578  1.0000
  O   O13       1.0  0.021457446026531133  0.9999718359410397  0.2240390366331866  1.0000
  O   O14       1.0  0.15625899550583716  0.07844814720561998  0.3009209105016168  1.0000
  O   O15       1.0  0.8642178655181214  0.9202758593244623  0.29642538479426145  1.0000
  O   O16       1.0  0.8314051676318925  0.1007502735469288  0.2856717741104475  1.0000
  O   O17       1.0  0.17157410192646694  0.8992254828590022  0.7151617824218803  1.0000
  O   O18       1.0  0.13990690070955483  0.0799261039288623  0.704731102161503  1.0000
  O   O19       1.0  0.8465961178302807  0.9213676266766768  0.699997150859012  1.0000
  O   O20       1.0  0.19673381431164227  0.9005605403601392  0.2909893165020208  1.0000
