data_image0
_chemical_formula_structural       Al4H31C56N8O20F
_chemical_formula_sum              "Al4 H31 C56 N8 O20 F1"
_cell_length_a       6.671392096961234
_cell_length_b       21.96937244139134
_cell_length_c       23.806138325731574
_cell_angle_alpha    68.0494065160562
_cell_angle_beta     90.17265639192854
_cell_angle_gamma    90.13450052632632

_space_group_name_H-M_alt    "P 1"
_space_group_IT_number       1

loop_
  _space_group_symop_operation_xyz
  'x, y, z'

loop_
  _atom_site_type_symbol
  _atom_site_label
  _atom_site_symmetry_multiplicity
  _atom_site_fract_x
  _atom_site_fract_y
  _atom_site_fract_z
  _atom_site_occupancy
  Al  Al1       1.0  0.09665171313418602  0.5011606297097586  0.49630843837206845  1.0000
  Al  Al2       1.0  0.5962469227994306  0.49934716259812717  0.5001317729622984  1.0000
  Al  Al3       1.0  0.6695103682774075  0.9990243695413451  0.0014749408457392164  1.0000
  Al  Al4       1.0  0.16955491237898462  0.001398639634928094  0.9982320130233829  1.0000
  H   H1        1.0  0.2444591299259855  0.8743712577405064  0.16999693965261997  1.0000
  H   H2        1.0  0.48908728696098797  0.7194732301690009  0.23019782836207273  1.0000
  H   H3        1.0  0.2765978303070966  0.780396407422259  0.2687965394426683  1.0000
  H   H4        1.0  0.5208176431970202  0.6258050002181719  0.3294690449660465  1.0000
  H   H5        1.0  0.1324358964033223  0.6787904197795882  0.346244988142857  1.0000
  H   H6        1.0  0.5906651670067334  0.9075031221225984  0.884053849325319  1.0000
  H   H7        1.0  0.2148943275759336  0.8171945322163553  0.8315577664792144  1.0000
  H   H8        1.0  0.22955202215966616  0.8843363566110722  0.89694420447335  1.0000
  H   H9        1.0  0.5464648024866605  0.6879003147267682  0.6614720494588369  1.0000
  H   H10       1.0  0.5430478678855623  0.6205940211844874  0.5968549579541148  1.0000
  H   H11       1.0  0.18128107027777673  0.65245977289009  0.6901283730913832  1.0000
  H   H12       1.0  0.6753526252822509  0.4043023905048528  0.3865526533766683  1.0000
  H   H13       1.0  0.047425824961706595  0.3198224547471256  0.3283005652554039  1.0000
  H   H14       1.0  0.034350479989690506  0.38727357458568423  0.3934570112247471  1.0000
  H   H15       1.0  0.7222005092671326  0.17977274252655204  0.1713097971916682  1.0000
  H   H16       1.0  0.7341619810406003  0.1129011829623252  0.10561524315448878  1.0000
  H   H17       1.0  0.09298196806066981  0.09675366185979327  0.1122455825122373  1.0000
  H   H18       1.0  0.07972588564511081  0.16237549335843937  0.17892226520991983  1.0000
  H   H19       1.0  0.1348491448538454  0.18066464239952745  0.8470323837584316  1.0000
  H   H20       1.0  0.7428726666666352  0.12555952513573487  0.8298300252485972  1.0000
  H   H21       1.0  0.7748044333018812  0.21882197416225319  0.7305407436279836  1.0000
  H   H22       1.0  0.0229898134449016  0.3748923950993017  0.669810402876152  1.0000
  H   H23       1.0  0.6298342969088466  0.3191846247076241  0.6521095742091206  1.0000
  H   H24       1.0  0.634568555680261  0.820087305634608  0.15238487546277213  1.0000
  H   H25       1.0  0.6897339039351637  0.33788353330047727  0.3205446951541688  1.0000
  H   H26       1.0  0.991082706566502  0.2817040438703913  0.7690991977212677  1.0000
  H   H27       1.0  0.5749000514733353  0.8422674240084973  0.8170210394582753  1.0000
  H   H28       1.0  0.34451564041228283  0.5734894774522131  0.509374434030839  1.0000
  H   H29       1.0  0.8513839015323015  0.41525038869735204  0.5359908931703359  1.0000
  H   H30       1.0  0.4140662961847426  0.914098048465675  0.030844232551601243  1.0000
  H   H31       1.0  0.9149054711250103  0.08655238254916499  0.9705791171830143  1.0000
  C   C1        1.0  0.3480017550250664  0.4377566441970371  0.43377563848473955  1.0000
  C   C2        1.0  0.34153660177007344  0.40704013059075084  0.595125348145011  1.0000
  C   C3        1.0  0.8495385758172561  0.5637428111705204  0.5634208627051437  1.0000
  C   C4        1.0  0.8435839605024641  0.5914853283993934  0.40251036946524016  1.0000
  C   C5        1.0  0.9369085149471916  0.8519902387978177  0.1554405538275675  1.0000
  C   C6        1.0  0.8296285811917417  0.6474553799484895  0.3431138415564449  1.0000
  C   C7        1.0  0.6284105311740262  0.7111779607926891  0.2561073224154526  1.0000
  C   C8        1.0  0.6457847474688805  0.6591325235389718  0.3105187774906355  1.0000
  C   C9        1.0  0.9919597360968454  0.6886936948753615  0.32080453521492563  1.0000
  C   C10       1.0  0.9759929338169685  0.7439360448677874  0.26600124911814044  1.0000
  C   C11       1.0  0.790630866935409  0.7554167690611067  0.23272322359090938  1.0000
  C   C12       1.0  0.774986199302738  0.8105380613477706  0.17780300834549218  1.0000
  C   C13       1.0  0.1201002962792685  0.8406062993872891  0.1884033607861185  1.0000
  C   C14       1.0  0.1376549608802264  0.7884700815642771  0.2427467762667064  1.0000
  C   C15       1.0  0.7260003469908229  0.8876714340098816  0.8718526808955288  1.0000
  C   C16       1.0  0.7172559537878204  0.8514566983077144  0.8349600242110214  1.0000
  C   C17       1.0  0.8939648415307815  0.8255572267676355  0.8206371549987707  1.0000
  C   C18       1.0  0.07937267778474683  0.8375625710608929  0.8429943707109473  1.0000
  C   C19       1.0  0.0873746743469823  0.874543756114356  0.8792521952861706  1.0000
  C   C20       1.0  0.9107715919291621  0.8993328781519735  0.8943509885819693  1.0000
  C   C21       1.0  0.8707711234422959  0.7151166260221585  0.7172266059843794  1.0000
  C   C22       1.0  0.8852576942253523  0.7856943518957564  0.783008541828032  1.0000
  C   C23       1.0  0.6834471875513728  0.6657451697284457  0.6532141528904917  1.0000
  C   C24       1.0  0.6820917806871093  0.6286851683969346  0.6170623539071868  1.0000
  C   C25       1.0  0.8577131497286458  0.600459401478595  0.605091281040032  1.0000
  C   C26       1.0  0.0349420080365448  0.6100691179194512  0.6328006868113079  1.0000
  C   C27       1.0  0.0407662430031124  0.6464270987873987  0.6694024913285403  1.0000
  C   C28       1.0  0.8640405304554193  0.6752656878058545  0.6794661512443838  1.0000
  C   C29       1.0  0.5392847992391978  0.3855787995738281  0.3732613852039747  1.0000
  C   C30       1.0  0.5472429319145321  0.348812183090402  0.3368829854177733  1.0000
  C   C31       1.0  0.36937643234246315  0.32476750318986797  0.3207477148650142  1.0000
  C   C32       1.0  0.1837694425174945  0.3387883619819974  0.3411287546822948  1.0000
  C   C33       1.0  0.17656702722109688  0.3759935879929087  0.3771758524244789  1.0000
  C   C34       1.0  0.3541383195013168  0.39930554136458335  0.393733887198465  1.0000
  C   C35       1.0  0.3921163591350094  0.21483036349429335  0.21669729181738973  1.0000
  C   C36       1.0  0.3775138401402743  0.28496107896219763  0.282987059578261  1.0000
  C   C37       1.0  0.5855719192016339  0.1611090933700865  0.15830441362525252  1.0000
  C   C38       1.0  0.5920790703686762  0.12425277312927109  0.12191782670233661  1.0000
  C   C39       1.0  0.4142256358186884  0.10142553371854747  0.1049947453576792  1.0000
  C   C40       1.0  0.22944242429515782  0.11514120963259696  0.1256937275229006  1.0000
  C   C41       1.0  0.2221006211133627  0.1515099413215708  0.16244006460993185  1.0000
  C   C42       1.0  0.4001983589425677  0.1752401880949535  0.17876614021430734  1.0000
  C   C43       1.0  0.43604453975046914  0.1482500334432757  0.8440500665527964  1.0000
  C   C44       1.0  0.3290039479995245  0.3517765475505854  0.6551599113021283  1.0000
  C   C45       1.0  0.1294743594747843  0.28932728017100817  0.7430030826122617  1.0000
  C   C46       1.0  0.14691011044322977  0.3410318256884181  0.6883598628423044  1.0000
  C   C47       1.0  0.490200469578113  0.3101494367160953  0.6776725058460116  1.0000
  C   C48       1.0  0.47481899249783055  0.2555036707195199  0.7329645075435778  1.0000
  C   C49       1.0  0.29048246745831113  0.24466007912042187  0.7664291172638613  1.0000
  C   C50       1.0  0.27479467289037274  0.18986044931739335  0.8215758033417657  1.0000
  C   C51       1.0  0.6187584456610438  0.15929352519762577  0.8111359616124288  1.0000
  C   C52       1.0  0.6361481575364893  0.21103754270148298  0.7565240288927484  1.0000
  C   C53       1.0  0.42276973623249603  0.09255959546764099  0.9036471333538287  1.0000
  C   C54       1.0  0.41960850540264266  0.06367620906034689  0.0642601884048801  1.0000
  C   C55       1.0  0.9235841690905746  0.9077334195879486  0.09592487691237753  1.0000
  C   C56       1.0  0.9174552431707924  0.9370316865397327  0.9351770072148184  1.0000
  N   N1        1.0  0.05706208331073982  0.7568509829126383  0.7753479950767855  1.0000
  N   N2        1.0  0.0496421052542004  0.7211341312953151  0.741751705967552  1.0000
  N   N3        1.0  0.6988178616349145  0.7435500641607644  0.7250635304658247  1.0000
  N   N4        1.0  0.7062576585837023  0.7796371716430526  0.7584246167486556  1.0000
  N   N5        1.0  0.203011802025955  0.26070310913515016  0.2706627939180565  1.0000
  N   N6        1.0  0.21039974688233803  0.2250467363578181  0.2369631576595594  1.0000
  N   N7        1.0  0.5666694027023667  0.23898822071566875  0.22911191722749893  1.0000
  N   N8        1.0  0.5592592168868437  0.2746245613304196  0.26282543938518194  1.0000
  O   O1        1.0  0.5147999230444427  0.42622286634471596  0.5728537281803625  1.0000
  O   O2        1.0  0.1766228403844394  0.45234568789813057  0.4485947843495168  1.0000
  O   O3        1.0  0.016962986950865403  0.570691678056505  0.4233354054145409  1.0000
  O   O4        1.0  0.17418876659965582  0.43005354451729977  0.5703523285776341  1.0000
  O   O5        1.0  0.0154099320878487  0.5525055420419419  0.5430237990574511  1.0000
  O   O6        1.0  0.5157742398571301  0.45244228813735526  0.4508885139826759  1.0000
  O   O7        1.0  0.347443649712389  0.5395228817675672  0.4925491782991004  1.0000
  O   O8        1.0  0.6763281736308145  0.5478267423010336  0.5505711935343385  1.0000
  O   O9        1.0  0.6779586163722799  0.5693491049655177  0.42853691083798406  1.0000
  O   O10       1.0  0.846770688355477  0.460477558480548  0.5079113483522947  1.0000
  O   O11       1.0  0.2508916140503317  0.05070668209164349  0.04613758609548311  1.0000
  O   O12       1.0  0.5891890278166089  0.06939626816689778  0.92884583347562  1.0000
  O   O13       1.0  0.7492141825669378  0.9500962670749757  0.9530888384636071  1.0000
  O   O14       1.0  0.5910732622791883  0.04831498729734559  0.0500743744124748  1.0000
  O   O15       1.0  0.7504105779474273  0.9276068069930617  0.07390946873599798  1.0000
  O   O16       1.0  0.24968807613645794  0.07267817133388378  0.9254860333568757  1.0000
  O   O17       1.0  0.4184204182595935  0.9609192645365778  0.007890783101736036  1.0000
  O   O18       1.0  0.0899329228152581  0.9309868026654369  0.07078876711270972  1.0000
  O   O19       1.0  0.08940745086592732  0.9521667144638285  0.9495186252270429  1.0000
  O   O20       1.0  0.918784385616597  0.039417954891121085  0.9917161714462637  1.0000
  F   F1        1.0  0.21083248612917072  0.5827755062424486  0.6254218484326586  1.0000
