data_image0
_chemical_formula_structural       Mg4H48C48N8O28
_chemical_formula_sum              "Mg4 H48 C48 N8 O28"
_cell_length_a       7.435668577041952
_cell_length_b       11.97374440000074
_cell_length_c       14.861657099346832
_cell_angle_alpha    90.00001264078576
_cell_angle_beta     97.10570784831802
_cell_angle_gamma    89.99996015615304

_space_group_name_H-M_alt    "P 1"
_space_group_IT_number       1

loop_
  _space_group_symop_operation_xyz
  'x, y, z'

loop_
  _atom_site_type_symbol
  _atom_site_label
  _atom_site_symmetry_multiplicity
  _atom_site_fract_x
  _atom_site_fract_y
  _atom_site_fract_z
  _atom_site_occupancy
  Mg  Mg1       1.0  0.779125276726731  0.9452272311002831  0.7865998504034837  1.0000
  Mg  Mg2       1.0  0.720874882002427  0.4452256784339425  0.21339987094388146  1.0000
  Mg  Mg3       1.0  0.2208751657494403  0.05477399165830118  0.21340010708317442  1.0000
  Mg  Mg4       1.0  0.27912420237410634  0.5547747091641995  0.7865993310208454  1.0000
  H   H1        1.0  0.09766208372263213  0.9313202771792601  0.7342210668163249  1.0000
  H   H2        1.0  0.40233823411323755  0.4313186599772365  0.26577916823781333  1.0000
  H   H3        1.0  0.9023397140290683  0.0686801104184056  0.2657789731463042  1.0000
  H   H4        1.0  0.5976622083638363  0.5686808924600727  0.7342207892487452  1.0000
  H   H5        1.0  0.1352181312678056  0.9120998964409283  0.8385155939759913  1.0000
  H   H6        1.0  0.3647822074142866  0.4120974317565499  0.1614846389634366  1.0000
  H   H7        1.0  0.8647823140338178  0.08790049115711436  0.16148503655647062  1.0000
  H   H8        1.0  0.6352168797877056  0.5879021206810434  0.8385152360471013  1.0000
  H   H9        1.0  0.43033071198292555  0.9497221314593388  0.7134945094558844  1.0000
  H   H10       1.0  0.0696695858944025  0.4497214998077225  0.2865057276229166  1.0000
  H   H11       1.0  0.5696697333186976  0.0502782561387036  0.28650612107657036  1.0000
  H   H12       1.0  0.9303308565826712  0.5502780526295864  0.713494229863642  1.0000
  H   H13       1.0  0.43392215695465813  0.88422049512009  0.8095700112881872  1.0000
  H   H14       1.0  0.06607685668884503  0.384219003471749  0.19043013610792062  1.0000
  H   H15       1.0  0.5660769302468722  0.1157798924781446  0.19042986372239312  1.0000
  H   H16       1.0  0.9339222361645058  0.61577804348412  0.8095710849941826  1.0000
  H   H17       1.0  0.9020146205464314  0.8222773430964239  0.657139072751086  1.0000
  H   H18       1.0  0.5979843190793231  0.3222767146136433  0.3428612256389699  1.0000
  H   H19       1.0  0.0979831142045668  0.17772387966282105  0.3428613928293771  1.0000
  H   H20       1.0  0.40201612339729564  0.6777236729842996  0.6571387318476385  1.0000
  H   H21       1.0  0.7227752872146027  0.7549851512676323  0.6742740513599871  1.0000
  H   H22       1.0  0.777225083494507  0.25498360495542016  0.3257269951482726  1.0000
  H   H23       1.0  0.2772238028119318  0.2450152363306941  0.325726496696447  1.0000
  H   H24       1.0  0.22277671425764822  0.7450159474816045  0.6742730448143137  1.0000
  H   H25       1.0  0.7355303003632729  0.06285833950418859  0.9762628947169534  1.0000
  H   H26       1.0  0.7644634966947166  0.5628563482934722  0.0237363721812827  1.0000
  H   H27       1.0  0.2644701421124367  0.9371437184150369  0.023737062769740205  1.0000
  H   H28       1.0  0.23553287995846262  0.4371406986627804  0.9762633378770718  1.0000
  H   H29       1.0  0.7804481026739084  0.4177790461230657  0.9399636796659652  1.0000
  H   H30       1.0  0.7195520914748246  0.917777084422134  0.0600373847531799  1.0000
  H   H31       1.0  0.21955234262680537  0.5822230117962517  0.060036950866589216  1.0000
  H   H32       1.0  0.28044834817860226  0.0822199625331734  0.93996189968739  1.0000
  H   H33       1.0  0.8307287226726174  0.38232727946361666  0.7809497322524379  1.0000
  H   H34       1.0  0.669271507100831  0.8823253833241437  0.21905065522037864  1.0000
  H   H35       1.0  0.16927578280380126  0.6176739432940294  0.21904979961642113  1.0000
  H   H36       1.0  0.3307275744520553  0.11767249879199675  0.7809478736983594  1.0000
  H   H37       1.0  0.9207884541450682  0.337378062437061  0.6586758263235738  1.0000
  H   H38       1.0  0.5792104691036217  0.8373762390664298  0.34132447372782343  1.0000
  H   H39       1.0  0.07921199115655501  0.6626223251609814  0.3413248042088882  1.0000
  H   H40       1.0  0.420788620923375  0.1626233133712631  0.658676074328568  1.0000
  H   H41       1.0  0.920915415894399  0.2830834121398809  0.49781553848098536  1.0000
  H   H42       1.0  0.5790822137898176  0.7830824681847092  0.5021853461666838  1.0000
  H   H43       1.0  0.07907960830688408  0.7169169754592913  0.5021847621473867  1.0000
  H   H44       1.0  0.42091958961279374  0.21691624909186663  0.4978160398875532  1.0000
  H   H45       1.0  0.7160021542782148  0.9608188282581622  0.5645837949317285  1.0000
  H   H46       1.0  0.7839993484659118  0.46081730913908814  0.43541735669877824  1.0000
  H   H47       1.0  0.2839969413983283  0.0391815593403493  0.4354180992164133  1.0000
  H   H48       1.0  0.21600380456133197  0.5391822432976525  0.5645827657398216  1.0000
  C   C1        1.0  0.7570047184572176  0.13538451399423929  0.9346659508201827  1.0000
  C   C2        1.0  0.742988997115937  0.635383378713918  0.06533265101172253  1.0000
  C   C3        1.0  0.2429970764694858  0.8646158736033411  0.06533341609658551  1.0000
  C   C4        1.0  0.25700466616161327  0.3646145034034447  0.9346662210487866  1.0000
  C   C5        1.0  0.7540834498249609  0.24323048301445033  0.971147029847309  1.0000
  C   C6        1.0  0.7459101487817537  0.7432301716003593  0.02885158385007001  1.0000
  C   C7        1.0  0.245914279276029  0.7567707397446097  0.028852089641446803  1.0000
  C   C8        1.0  0.2540889355952345  0.2567693808371486  0.9711476181146141  1.0000
  C   C9        1.0  0.7829834918732105  0.332687030258235  0.9145265502510185  1.0000
  C   C10       1.0  0.717014081187287  0.832686746971106  0.08547366680832623  1.0000
  C   C11       1.0  0.21701559532787237  0.6673141925006333  0.08547332475961161  1.0000
  C   C12       1.0  0.28298364791506714  0.16731197030604514  0.9145254526802946  1.0000
  C   C13       1.0  0.8117916834276643  0.31233164153775306  0.8253562505339149  1.0000
  C   C14       1.0  0.6882059088850099  0.8123305601211965  0.17464329123999534  1.0000
  C   C15       1.0  0.18820740377341852  0.6876695812211154  0.17464362447671536  1.0000
  C   C16       1.0  0.3117918173923402  0.18766815715586194  0.8253551552027647  1.0000
  C   C17       1.0  0.8099855175752426  0.2021664331634483  0.7940189190589637  1.0000
  C   C18       1.0  0.6900108389436993  0.7021653595720423  0.20598052811832457  1.0000
  C   C19       1.0  0.19001628017645802  0.7978339544342173  0.20598112090366535  1.0000
  C   C20       1.0  0.3099868873331958  0.29783419286565044  0.7940179183244781  1.0000
  C   C21       1.0  0.8252270401348697  0.1751180691249558  0.6981245986060431  1.0000
  C   C22       1.0  0.6747693541947869  0.6751170285118204  0.30187686473288994  1.0000
  C   C23       1.0  0.1747706974415877  0.8248823184737473  0.3018765400202241  1.0000
  C   C24       1.0  0.3252297358322096  0.324882523925865  0.6981236833235018  1.0000
  C   C25       1.0  0.8800404679319201  0.2534828417046811  0.637071654454367  1.0000
  C   C26       1.0  0.6199571938565358  0.7534810065471262  0.3629292269365437  1.0000
  C   C27       1.0  0.11995726681863061  0.7465192162152048  0.362928811126146  1.0000
  C   C28       1.0  0.3800432514455423  0.24651854589027516  0.6370714035958684  1.0000
  C   C29       1.0  0.8779790117377928  0.223729396862332  0.5465368399544701  1.0000
  C   C30       1.0  0.6220200347698324  0.7237284208444592  0.4534634475931228  1.0000
  C   C31       1.0  0.12201736491311982  0.7762718258971046  0.45346287010411873  1.0000
  C   C32       1.0  0.37798447635749716  0.27627113159209665  0.5465374303673515  1.0000
  C   C33       1.0  0.813274414053133  0.11830707978167959  0.5178011001903116  1.0000
  C   C34       1.0  0.6867261020660608  0.6183077538370512  0.4821992582346156  1.0000
  C   C35       1.0  0.18672061014815003  0.8816933078174924  0.4821992004380605  1.0000
  C   C36       1.0  0.3132811196109841  0.38169263375957035  0.5178017846779497  1.0000
  C   C37       1.0  0.7644355402738087  0.044323559247139585  0.5835341158536951  1.0000
  C   C38       1.0  0.7355637036357336  0.5443233588383619  0.4164668250012014  1.0000
  C   C39       1.0  0.2355621973031035  0.9556759931909226  0.4164670227725297  1.0000
  C   C40       1.0  0.2644394522160525  0.4556770287591121  0.5835339704833019  1.0000
  C   C41       1.0  0.7161514329985793  0.26092825616525056  0.06742779759709093  1.0000
  C   C42       1.0  0.7838489256149472  0.76092650624296  0.9325719034733169  1.0000
  C   C43       1.0  0.2838517143777466  0.7390729665925875  0.9325709787498939  1.0000
  C   C44       1.0  0.21615015593793882  0.2390713758731806  0.06742662544542101  1.0000
  C   C45       1.0  0.7861212920064561  0.08621936536003008  0.41958117588205124  1.0000
  C   C46       1.0  0.7138792617394075  0.5862192194322304  0.5804198520583344  1.0000
  C   C47       1.0  0.21387643991999286  0.9137810222384886  0.5804186166525085  1.0000
  C   C48       1.0  0.28612524938701267  0.4137820033255936  0.4195810259022395  1.0000
  N   N1        1.0  0.782836558948148  0.11469840276627959  0.8488255797726725  1.0000
  N   N2        1.0  0.7171571790608767  0.6146964671470982  0.15117301978326486  1.0000
  N   N3        1.0  0.21716523597810072  0.8853028199919347  0.1511737871441525  1.0000
  N   N4        1.0  0.28283783949176206  0.38530141496998743  0.848825934753258  1.0000
  N   N5        1.0  0.7752078923132758  0.07021688937804528  0.6714997790881085  1.0000
  N   N6        1.0  0.7247926759642598  0.5702149991629425  0.3285005740456982  1.0000
  N   N7        1.0  0.22478984243727504  0.9297851685418408  0.3285006864923973  1.0000
  N   N8        1.0  0.27520912178835033  0.42978371811344834  0.6714994659168312  1.0000
  O   O1        1.0  0.705060076576359  0.36141144937183606  0.09360992608151972  1.0000
  O   O2        1.0  0.7949442417073059  0.8614088522699602  0.9063907065181241  1.0000
  O   O3        1.0  0.2949444289000525  0.6385897733858101  0.9063896057873466  1.0000
  O   O4        1.0  0.20506297149609054  0.13858902984447496  0.09360831725673793  1.0000
  O   O5        1.0  0.6963942751886449  0.17406237389281637  0.11432248611159682  1.0000
  O   O6        1.0  0.8036048195365311  0.6740606024921334  0.8856764498797747  1.0000
  O   O7        1.0  0.3036061644625221  0.8259388488656823  0.8856767983292004  1.0000
  O   O8        1.0  0.1963942676677206  0.3259347741422757  0.11432342513053582  1.0000
  O   O9        1.0  0.8830923165095541  0.13723512442330593  0.3660299566038604  1.0000
  O   O10       1.0  0.6169081819049966  0.6372375408693002  0.6339710769495215  1.0000
  O   O11       1.0  0.11690812879297144  0.8627635928534615  0.6339706739285093  1.0000
  O   O12       1.0  0.38309361867170827  0.362762846728458  0.3660296360589612  1.0000
  O   O13       1.0  0.6653114914765298  0.015755214812834598  0.3936821246362996  1.0000
  O   O14       1.0  0.8346877805922405  0.5157550234550143  0.6063181400296004  1.0000
  O   O15       1.0  0.3346862404503739  0.9842443376250427  0.6063176678982105  1.0000
  O   O16       1.0  0.16531673335964575  0.4842453641422679  0.3936834109767844  1.0000
  O   O17       1.0  0.060089711193114716  0.9581824000989769  0.792606278641934  1.0000
  O   O18       1.0  0.439909225058976  0.45818075051279544  0.2073945499374616  1.0000
  O   O19       1.0  0.9399107341080609  0.04181882265969959  0.2073943518905708  1.0000
  O   O20       1.0  0.5600885096920295  0.5418204722464494  0.7926059156430015  1.0000
  O   O21       1.0  0.5033577021330018  0.9338582474510131  0.7729810401099331  1.0000
  O   O22       1.0  0.9966438213753435  0.4338590840626465  0.22701808941689453  1.0000
  O   O23       1.0  0.4966413907176347  0.0661438104686809  0.22702018099245447  1.0000
  O   O24       1.0  0.0033593316509908005  0.5661421386953763  0.7729820330218047  1.0000
  O   O25       1.0  0.791293609649621  0.8252012687250526  0.6874152064987628  1.0000
  O   O26       1.0  0.7087039687053365  0.32519974860463197  0.3125843366910602  1.0000
  O   O27       1.0  0.2087041222759183  0.174800789194741  0.31258458603588934  1.0000
  O   O28       1.0  0.2912964737712826  0.6748006389933182  0.6874156207955482  1.0000
