data_image0
_chemical_formula_structural       Zn2H47C70N9O22
_chemical_formula_sum              "Zn2 H47 C70 N9 O22"
_cell_length_a       14.589854912010873
_cell_length_b       15.946165939265946
_cell_length_c       16.865854457470295
_cell_angle_alpha    87.89220304859845
_cell_angle_beta     82.19841312906804
_cell_angle_gamma    88.89111258303758

_space_group_name_H-M_alt    "P 1"
_space_group_IT_number       1

loop_
  _space_group_symop_operation_xyz
  'x, y, z'

loop_
  _atom_site_type_symbol
  _atom_site_label
  _atom_site_symmetry_multiplicity
  _atom_site_fract_x
  _atom_site_fract_y
  _atom_site_fract_z
  _atom_site_occupancy
  Zn  Zn1       1.0  0.4073290921956597  0.5129115847373029  0.5016707553532311  1.0000
  Zn  Zn2       1.0  0.600817412485938  0.50340135904284  0.49286855354773684  1.0000
  H   H1        1.0  0.5985855414350778  0.3953267136712811  0.7232769807752246  1.0000
  H   H2        1.0  0.6616585206233622  0.4011818612670622  0.2518111668258668  1.0000
  H   H3        1.0  0.588954711258367  0.3780862073828287  0.9857540979924689  1.0000
  H   H4        1.0  0.3820094765364672  0.4495298936503359  0.11856978617259264  1.0000
  H   H5        1.0  0.3758726620668752  0.37644804586775377  0.01914853251911099  1.0000
  H   H6        1.0  0.5812448091341478  0.33646179655862335  0.8630805012628924  1.0000
  H   H7        1.0  0.44626746908198794  0.9365917388499978  0.3774218222959077  1.0000
  H   H8        1.0  0.6046779226929713  0.9543894458902425  0.38164683629592827  1.0000
  H   H9        1.0  0.6408040451730485  0.06846850924491579  0.5121444533012818  1.0000
  H   H10       1.0  0.4174129251888772  0.9298998100601565  0.5967799082719905  1.0000
  H   H11       1.0  0.5357499097830922  0.9284629892547968  0.6106992970289368  1.0000
  H   H12       1.0  0.36702982382015387  0.9370495269654382  0.46586179476373946  1.0000
  H   H13       1.0  0.36309936630549794  0.07816241059419579  0.46699012753594343  1.0000
  H   H14       1.0  0.5349018751100018  0.07529516260963479  0.6090879040251094  1.0000
  H   H15       1.0  0.0900015350425107  0.577856864237077  0.385281028881927  1.0000
  H   H16       1.0  0.9392742785837596  0.40334921302562776  0.4168832670632978  1.0000
  H   H17       1.0  0.09951776583780263  0.4207509190873466  0.40344929111859057  1.0000
  H   H18       1.0  0.09843563944315997  0.3742509652589519  0.5009781522684233  1.0000
  H   H19       1.0  0.9158141124469024  0.5818812428865668  0.6035405505830054  1.0000
  H   H20       1.0  0.0718740331919392  0.5685140465176416  0.6168969343302135  1.0000
  H   H21       1.0  0.9149689121147586  0.6268906536558274  0.4777040930845399  1.0000
  H   H22       1.0  0.0681921031494568  0.4578518464432405  0.6209197042828263  1.0000
  H   H23       1.0  0.599801189252652  0.2295600956479972  0.07360215846643567  1.0000
  H   H24       1.0  0.7354861948571381  0.14902462369327904  0.009992401738308813  1.0000
  H   H25       1.0  0.8945481065668943  0.204286565243109  0.007637182985760673  1.0000
  H   H26       1.0  0.9164057500888345  0.34098273363157716  0.06899328790689908  1.0000
  H   H27       1.0  0.7802518142156742  0.4214253568646099  0.13270668998902824  1.0000
  H   H28       1.0  0.36527464792901293  0.2127919428280052  0.39926507073927536  1.0000
  H   H29       1.0  0.3704884341177888  0.28790665429186646  0.2681895125249766  1.0000
  H   H30       1.0  0.4410428811636605  0.21866352886667778  0.14358355582390905  1.0000
  H   H31       1.0  0.507328119449646  0.0736148494797817  0.15324303622193006  1.0000
  H   H32       1.0  0.5038698120855826  0.9999154830269815  0.283638934457329  1.0000
  H   H33       1.0  0.7183951859613131  0.8577938037051566  0.3569276493810704  1.0000
  H   H34       1.0  0.8598252103794763  0.7844122336002712  0.3904754735873439  1.0000
  H   H35       1.0  0.9118740037547893  0.8024794953465032  0.5242162523700526  1.0000
  H   H36       1.0  0.8205133481400748  0.894755621903421  0.6224674250876774  1.0000
  H   H37       1.0  0.6826735357618146  0.9708885302826713  0.5874959750043941  1.0000
  H   H38       1.0  0.6787132111799037  0.21182638855060523  0.472419401746478  1.0000
  H   H39       1.0  0.7680037030696524  0.3013866696105154  0.3698907263565444  1.0000
  H   H40       1.0  0.8075400811519059  0.25201061187532753  0.2294827100090585  1.0000
  H   H41       1.0  0.7542076012220204  0.11225874171447707  0.1957466171171802  1.0000
  H   H42       1.0  0.6623934706496327  0.023926322790927698  0.29746836704826757  1.0000
  H   H43       1.0  0.7901377732968057  0.6386802781812546  0.4041286518878948  1.0000
  H   H44       1.0  0.7307103705791888  0.6319890873881349  0.27485945285535246  1.0000
  H   H45       1.0  0.8223916440421204  0.5593496233599354  0.16088943465118175  1.0000
  H   H46       1.0  0.9731213125491108  0.4901730673075875  0.1798290384570649  1.0000
  H   H47       1.0  0.0326291928126707  0.4950965145013696  0.3086335790748293  1.0000
  C   C1        1.0  0.5129712856977163  0.6693678543327762  0.4876828384868615  1.0000
  C   C2        1.0  0.48218025257239094  0.4940615968948023  0.6524289461030859  1.0000
  C   C3        1.0  0.4894252262950687  0.3459403072126577  0.5046567381718744  1.0000
  C   C4        1.0  0.5293683607969938  0.48604390857803986  0.34353157503600323  1.0000
  C   C5        1.0  0.4692538075132544  0.4622558998289889  0.7380108489018509  1.0000
  C   C6        1.0  0.537112854778016  0.4093066242709823  0.7652759283393562  1.0000
  C   C7        1.0  0.5267490686787113  0.3763229093800786  0.8430718193892371  1.0000
  C   C8        1.0  0.447657563138506  0.3940740247438512  0.8978380174448684  1.0000
  C   C9        1.0  0.3766871458008366  0.44216708739307353  0.8679397323894374  1.0000
  C   C10       1.0  0.38860541817347627  0.47772968277577377  0.7905318082553376  1.0000
  C   C11       1.0  0.4429999105755584  0.43542743535473954  0.14764354115945363  1.0000
  C   C12       1.0  0.447016360701724  0.4658388918269976  0.2227006250316065  1.0000
  C   C13       1.0  0.6015086898979973  0.4121868211114687  0.2206864795740842  1.0000
  C   C14       1.0  0.5997306741082227  0.3796274848866261  0.1447973344111445  1.0000
  C   C15       1.0  0.519779772912514  0.3935690384279552  0.10623103041289989  1.0000
  C   C16       1.0  0.44419878651797257  0.37795932406955035  0.9838157210894919  1.0000
  C   C17       1.0  0.5205111077765705  0.3787107875282628  0.021279160790022896  1.0000
  C   C18       1.0  0.52676630414863  0.4565847656675642  0.26053745207170204  1.0000
  C   C19       1.0  0.43386788556027495  0.9615536657560992  0.4376905633219933  1.0000
  C   C20       1.0  0.6046729105103736  0.9643314209985758  0.4457572088352533  1.0000
  C   C21       1.0  0.6052864821424605  0.059601331343500916  0.45951393554744846  1.0000
  C   C22       1.0  0.49077446586179707  0.25577477127141895  0.5029308761612226  1.0000
  C   C23       1.0  0.5102933079916312  0.9268392263835209  0.4859035121133741  1.0000
  C   C24       1.0  0.43034572763004764  0.058597299280549485  0.43516190064129023  1.0000
  C   C25       1.0  0.5028222211687137  0.09079355998121487  0.48765925346655337  1.0000
  C   C26       1.0  0.4833764632559934  0.0505985738603556  0.5748610059146415  1.0000
  C   C27       1.0  0.4857532963111878  0.9545747958457225  0.5731020786433445  1.0000
  C   C28       1.0  0.49711886465474453  0.18068762161501437  0.49427970699387186  1.0000
  C   C29       1.0  0.5132725955538076  0.8359803762634782  0.48507826388770053  1.0000
  C   C30       1.0  0.5155196372973663  0.7598407442689206  0.48522741733699337  1.0000
  C   C31       1.0  0.9475679342226184  0.571188681056924  0.4484859083781173  1.0000
  C   C32       1.0  0.9635564500587886  0.41455704668254606  0.47420069191415576  1.0000
  C   C33       1.0  0.06851885670610607  0.42478483150041757  0.4662350979671998  1.0000
  C   C34       1.0  0.914076388778099  0.4948434428299606  0.5088730003878865  1.0000
  C   C35       1.0  0.05291259237976221  0.5799343467632595  0.4461411385331074  1.0000
  C   C36       1.0  0.09165186231910379  0.510081680980086  0.4996400897889615  1.0000
  C   C37       1.0  0.04739954049977511  0.5142753266788773  0.5882447244342754  1.0000
  C   C38       1.0  0.9421084443679529  0.5180401584755926  0.5906139742061568  1.0000
  C   C39       1.0  0.19105400872351908  0.5162127618053772  0.4960135006949215  1.0000
  C   C40       1.0  0.8146214030921539  0.48982503098942937  0.5104399054633432  1.0000
  C   C41       1.0  0.6804879296546816  0.3317755541513137  0.10644532762313466  1.0000
  C   C42       1.0  0.6690798107264724  0.25475577870144406  0.07124101977133529  1.0000
  C   C43       1.0  0.7455732838268077  0.20913561931065766  0.036212669665978595  1.0000
  C   C44       1.0  0.8347794533291121  0.23982993772439437  0.03524360553237932  1.0000
  C   C45       1.0  0.846996035141224  0.31642229766151075  0.06995330728174307  1.0000
  C   C46       1.0  0.770592583895251  0.36171716206079196  0.1055932548593148  1.0000
  C   C47       1.0  0.4359362206580356  0.1012167447755132  0.352269160194396  1.0000
  C   C48       1.0  0.39763261192903326  0.18235095424164877  0.34547956868676266  1.0000
  C   C49       1.0  0.4002660232540336  0.22476165099740086  0.2714099542751071  1.0000
  C   C50       1.0  0.4400023559051788  0.1860959361313945  0.20171960240791253  1.0000
  C   C51       1.0  0.4767966806316223  0.1050162396954875  0.20717184397180688  1.0000
  C   C52       1.0  0.4747336722192016  0.06329043901973108  0.28168528538021315  1.0000
  C   C53       1.0  0.6897061847865585  0.9194283219544984  0.4693922660140969  1.0000
  C   C54       1.0  0.7408959469332498  0.8660023221291976  0.4152966894485245  1.0000
  C   C55       1.0  0.8201910399059428  0.8240852048756011  0.43455823142633676  1.0000
  C   C56       1.0  0.8492384567168256  0.8340376327941783  0.5091841629307936  1.0000
  C   C57       1.0  0.7983301853350964  0.8863214720059743  0.5640874971043955  1.0000
  C   C58       1.0  0.719825553554237  0.9289832217410137  0.5440553295704689  1.0000
  C   C59       1.0  0.6607657230563219  0.11167036887700728  0.39285557578669017  1.0000
  C   C60       1.0  0.6936930250490788  0.18980059399708435  0.4115610950677107  1.0000
  C   C61       1.0  0.7450560898883791  0.24048358732954253  0.35338679703768605  1.0000
  C   C62       1.0  0.7669869801863313  0.2131254618457845  0.27529430385021664  1.0000
  C   C63       1.0  0.7369487728727435  0.13471057421764235  0.2563298826592941  1.0000
  C   C64       1.0  0.6844149641458869  0.08476487633023305  0.3145243981624261  1.0000
  C   C65       1.0  0.9153655755111739  0.5668337585108529  0.3668660661010178  1.0000
  C   C66       1.0  0.8307598701479293  0.6057284326419391  0.35535650375885536  1.0000
  C   C67       1.0  0.7971399227480305  0.602344643451829  0.28197971959399126  1.0000
  C   C68       1.0  0.8480785336860917  0.5608678049939042  0.21862246765539334  1.0000
  C   C69       1.0  0.9324154092483212  0.52208629277073  0.22915528655122583  1.0000
  C   C70       1.0  0.9657469118400497  0.5249053277240207  0.3028408295999724  1.0000
  N   N1        1.0  0.2699906834902706  0.5200014339352562  0.49605821148799817  1.0000
  N   N2        1.0  0.7373080481761389  0.4923001926865849  0.5019230973599916  1.0000
  N   N3        1.0  0.39256046607761147  0.08333725307259948  0.6191213598877283  1.0000
  N   N4        1.0  0.36483162914299777  0.5149278612200945  0.25722787877349157  1.0000
  N   N5        1.0  0.9305854612758605  0.337317911933411  0.5268408573426127  1.0000
  N   N6        1.0  0.8947726542544244  0.46633321132713224  0.6628806987494611  1.0000
  N   N7        1.0  0.07774166391697429  0.6658168014327611  0.4749059017067194  1.0000
  N   N8        1.0  0.2916149469892416  0.4619724042439087  0.9221463743720333  1.0000
  N   N9        1.0  0.31478337118812755  0.5340987530670559  0.7654233447437873  1.0000
  O   O1        1.0  0.43311102439098176  0.6374862936145788  0.49349023474592696  1.0000
  O   O2        1.0  0.5904274798449549  0.6297604128400067  0.4841301678302228  1.0000
  O   O3        1.0  0.40839915709943847  0.5084626143032908  0.6216521012049369  1.0000
  O   O4        1.0  0.5646373431021843  0.5004320916383803  0.6180656172296748  1.0000
  O   O5        1.0  0.41104044878923657  0.38280567365770685  0.5096659057209718  1.0000
  O   O6        1.0  0.5687475247410987  0.3796398875884036  0.4997785219775324  1.0000
  O   O7        1.0  0.4502247678347543  0.49920941702398364  0.3831626869095712  1.0000
  O   O8        1.0  0.6072387924427076  0.49300711696616867  0.3680557434043051  1.0000
  O   O9        1.0  0.39822395281973383  0.13791852938427238  0.6683207631003895  1.0000
  O   O10       1.0  0.3194910279490131  0.054488462630111194  0.602466349725965  1.0000
  O   O11       1.0  0.2922681943559055  0.47544360424949855  0.27730902174018  1.0000
  O   O12       1.0  0.3726747977229151  0.5916568870213367  0.2585754473522498  1.0000
  O   O13       1.0  0.8594396393630886  0.30515176880449246  0.5112768649385655  1.0000
  O   O14       1.0  0.9759020345645762  0.31486796945442547  0.5809140459592184  1.0000
  O   O15       1.0  0.9315644984886402  0.4680046217859014  0.7241582671751627  1.0000
  O   O16       1.0  0.8219339370221516  0.43124990020983484  0.6552418669220329  1.0000
  O   O17       1.0  0.025658623902401697  0.6960696237890005  0.5312981445218765  1.0000
  O   O18       1.0  0.14990180193384353  0.6965631796223518  0.4412209502462828  1.0000
  O   O19       1.0  0.2709401502458987  0.5369897360254539  0.9312068470049226  1.0000
  O   O20       1.0  0.24778628494706106  0.401794940102249  0.9557550064902284  1.0000
  O   O21       1.0  0.2399422345436903  0.501468339963978  0.7593117473050766  1.0000
  O   O22       1.0  0.3339112480970171  0.608807434069831  0.7545497196177988  1.0000
