data_image0
_chemical_formula_structural       Zr6H20C54S10O41
_chemical_formula_sum              "Zr6 H20 C54 S10 O41"
_cell_length_a       16.4496104488587
_cell_length_b       16.4199484387458
_cell_length_c       16.501399588775566
_cell_angle_alpha    61.98815880564426
_cell_angle_beta     59.789839288525975
_cell_angle_gamma    60.321931103490364

_space_group_name_H-M_alt    "P 1"
_space_group_IT_number       1

loop_
  _space_group_symop_operation_xyz
  'x, y, z'

loop_
  _atom_site_type_symbol
  _atom_site_label
  _atom_site_symmetry_multiplicity
  _atom_site_fract_x
  _atom_site_fract_y
  _atom_site_fract_z
  _atom_site_occupancy
  Zr  Zr1       1.0  0.8888853681795225  0.9034665756772287  0.5951103297782013  1.0000
  Zr  Zr2       1.0  0.11407942746380682  0.10176547036125774  0.39745933335994005  1.0000
  Zr  Zr3       1.0  0.10382373208762635  0.8931078511880061  0.6056531543028784  1.0000
  Zr  Zr4       1.0  0.8997633477148811  0.11130803178710387  0.38765403606861787  1.0000
  Zr  Zr5       1.0  0.11133609903971811  0.8926581926387699  0.38719168593061687  1.0000
  Zr  Zr6       1.0  0.8918967733611255  0.11122808559036192  0.6067042192183081  1.0000
  H   H1        1.0  0.07952782953786658  0.7526079060693506  0.5736456485290374  1.0000
  H   H2        1.0  0.0959925563532451  0.08005354862019232  0.24667479430470243  1.0000
  H   H3        1.0  0.08372911111377584  0.08108017375054287  0.5901914774573456  1.0000
  H   H4        1.0  0.7460111635864024  0.09505310905876747  0.5756204991230048  1.0000
  H   H5        1.0  0.12359268959471581  0.613482312772078  0.3570788427745839  1.0000
  H   H6        1.0  0.6094798537667644  0.12878950377114512  0.8977054388432038  1.0000
  H   H7        1.0  0.8748498005119888  0.12928733725892977  0.11098299507271761  1.0000
  H   H8        1.0  0.6267290228211877  0.39791958869730615  0.35926068311703585  1.0000
  H   H9        1.0  0.10229999941282823  0.637350169781243  0.8633863819125337  1.0000
  H   H10       1.0  0.8442727949505198  0.6493891015209458  0.8487768528353002  1.0000
  H   H11       1.0  0.8982772789026614  0.37011669759267096  0.1302236257696094  1.0000
  H   H12       1.0  0.15643075621393607  0.3573580896541274  0.14545599701194328  1.0000
  H   H13       1.0  0.623473935485201  0.8765062338962368  0.6076015794941939  1.0000
  H   H14       1.0  0.8201488036837504  0.44080507931224855  0.6862507857963251  1.0000
  H   H15       1.0  0.4475846153606256  0.8128536434117211  0.05923855158374644  1.0000
  H   H16       1.0  0.16518879821439464  0.8036544221868385  0.9383915451915357  1.0000
  H   H17       1.0  0.42115947402561466  0.5707522906586179  0.6834024823655794  1.0000
  H   H18       1.0  0.4323317140877307  0.17258852496142654  0.3184859713743862  1.0000
  H   H19       1.0  0.09670836176329065  0.644366492000721  0.9918272540802207  1.0000
  H   H20       1.0  0.7669504413331867  0.5043126392271445  0.13376179811579206  1.0000
  C   C1        1.0  0.9953754663003948  0.7394145602372648  0.48220402960207326  1.0000
  C   C2        1.0  0.28381554299451045  0.9873548493511634  0.23423474781071718  1.0000
  C   C3        1.0  0.9980247546289649  0.2719931787625782  0.5052822444392505  1.0000
  C   C4        1.0  0.7252099643874602  0.009141703404438258  0.7667484681703413  1.0000
  C   C5        1.0  0.9810101715358215  0.7394193203072276  0.7625915334767156  1.0000
  C   C6        1.0  0.7325732871434737  0.007407647436899352  0.48364669005866295  1.0000
  C   C7        1.0  0.01700399484687414  0.2696169596747993  0.2338323485205649  1.0000
  C   C8        1.0  0.276888614796711  0.990852387487877  0.5012186292595829  1.0000
  C   C9        1.0  0.2734044947367025  0.7293002710229075  0.4953876334482601  1.0000
  C   C10       1.0  0.9899642029146063  0.9946756476973134  0.7782212822946876  1.0000
  C   C11       1.0  0.7357362215130439  0.28203395003416915  0.4916048216015343  1.0000
  C   C12       1.0  0.002313903712348141  0.9997916121745551  0.2245355758297478  1.0000
  C   C13       1.0  0.9286537251492816  0.41975548847284483  0.5671152352083341  1.0000
  C   C14       1.0  0.061467016745282814  0.5933199514695106  0.4205425226761931  1.0000
  C   C15       1.0  0.9951997506991221  0.36338379362202033  0.5022003772335566  1.0000
  C   C16       1.0  0.9949537959114991  0.6492192098397068  0.4845870570919288  1.0000
  C   C17       1.0  0.03725595672866427  0.5098586938020802  0.44994612757432867  1.0000
  C   C18       1.0  0.9528365304872963  0.5039552986532956  0.5364665850653623  1.0000
  C   C19       1.0  0.4250363157346444  0.9240238595206518  0.08795124706649199  1.0000
  C   C20       1.0  0.5894118979387458  0.06630878396070733  0.9172447005648792  1.0000
  C   C21       1.0  0.37263882572843704  0.9872871705311186  0.14576643190478225  1.0000
  C   C22       1.0  0.6401641316604914  0.004203420673427175  0.8596069384156094  1.0000
  C   C23       1.0  0.5110776635167512  0.03719573437878413  0.0009194949067178867  1.0000
  C   C24       1.0  0.5043202180872726  0.9530162421980963  0.004988074567023749  1.0000
  C   C25       1.0  0.05401012906435897  0.922125413326711  0.9202441949270577  1.0000
  C   C26       1.0  0.9329506249235778  0.06438808398119285  0.0892009092291773  1.0000
  C   C27       1.0  0.9896513415821391  0.9918273250696573  0.8682784397349582  1.0000
  C   C28       1.0  0.998183887115424  0.9964488115757035  0.13910300659012617  1.0000
  C   C29       1.0  0.9530513394013129  0.03773812856883301  0.009340106384790757  1.0000
  C   C30       1.0  0.033152906771696966  0.9490801143262504  0.0005953280559226043  1.0000
  C   C31       1.0  0.4121076225067953  0.5926790476895151  0.5630365410618765  1.0000
  C   C32       1.0  0.5997719965943277  0.42136193732903127  0.42274737779023747  1.0000
  C   C33       1.0  0.36430044300521314  0.6433882788033713  0.49436667577575827  1.0000
  C   C34       1.0  0.6468383029480265  0.3715127088651471  0.4909003520557889  1.0000
  C   C35       1.0  0.5145283770101301  0.5023819636295173  0.44830158767289413  1.0000
  C   C36       1.0  0.4982998364402675  0.512236881127869  0.5360458104465807  1.0000
  C   C37       1.0  0.042299774807183534  0.6078051172788366  0.8967179391133584  1.0000
  C   C38       1.0  0.8965713123395672  0.6145192352551876  0.8870403602980376  1.0000
  C   C39       1.0  0.8875892589722484  0.5350702074857024  0.969992701959491  1.0000
  C   C40       1.0  0.957464939085469  0.488086789989076  0.019398690659571116  1.0000
  C   C41       1.0  0.9543619028829373  0.403360189362509  0.10134021182175716  1.0000
  C   C42       1.0  0.10141795235651326  0.39502552696778553  0.10986618173232196  1.0000
  C   C43       1.0  0.10734028067186327  0.4777602466476695  0.03008252077209761  1.0000
  C   C44       1.0  0.036188334728535713  0.5262322215690532  0.9818562866147715  1.0000
  C   C45       1.0  0.9734052352304587  0.6517478418843653  0.8510694685451342  1.0000
  C   C46       1.0  0.023961292871874113  0.35833691063874806  0.14630016206597668  1.0000
  C   C47       1.0  0.41708045745168226  0.05930002626821812  0.4286587346030116  1.0000
  C   C48       1.0  0.5977605708050788  0.935749277026375  0.5489652328804837  1.0000
  C   C49       1.0  0.367646783963522  0.9915711800995269  0.49602135353890725  1.0000
  C   C50       1.0  0.6455473521238562  0.003724385400730135  0.4829917107366697  1.0000
  C   C51       1.0  0.5146893423719019  0.9552612991942484  0.5293113078119731  1.0000
  C   C52       1.0  0.5012539262086905  0.03807466946422972  0.44815301497160226  1.0000
  C   C53       1.0  0.19170225190538306  0.5118203917452605  0.9974336509872755  1.0000
  C   C54       1.0  0.802377295260115  0.5018710432227849  0.0037960858315742836  1.0000
  S   S1        1.0  0.08695596559630284  0.41256785750766073  0.40542124277781266  1.0000
  S   S2        1.0  0.9025616588438793  0.6014063490920666  0.5810803592971753  1.0000
  S   S3        1.0  0.4204026844229176  0.0809149395049928  0.0990760113015554  1.0000
  S   S4        1.0  0.59402630528605  0.9096532490360475  0.9061906704664581  1.0000
  S   S5        1.0  0.9034647868534194  0.08846953173943445  0.9189020836469057  1.0000
  S   S6        1.0  0.08406968010870468  0.8989907262334926  0.09010277799771434  1.0000
  S   S7        1.0  0.42464276193921086  0.5922832456829641  0.39809298821472083  1.0000
  S   S8        1.0  0.5881432839070726  0.4225632507200601  0.5865550372001351  1.0000
  S   S9        1.0  0.42436687664231704  0.9027927306410749  0.5818643959505182  1.0000
  S   S10       1.0  0.5906807028859691  0.09169424526154295  0.3960008425324304  1.0000
  O   O1        1.0  0.9234926638869895  0.7779455852002998  0.5498658455736701  1.0000
  O   O2        1.0  0.2491967779303081  0.05608501037410459  0.271720911757761  1.0000
  O   O3        1.0  0.07090421617111518  0.23345052589616  0.4376607156294625  1.0000
  O   O4        1.0  0.7580207282407585  0.9428408594119947  0.7269618030603481  1.0000
  O   O5        1.0  0.052438725897267786  0.7689830125629343  0.7327314956322084  1.0000
  O   O6        1.0  0.7680044072556031  0.07538932609124767  0.4177788789076828  1.0000
  O   O7        1.0  0.9455537259674996  0.23978776168871016  0.26352126997855413  1.0000
  O   O8        1.0  0.2399921967973453  0.9244177668988559  0.569671130112326  1.0000
  O   O9        1.0  0.24106262989072758  0.7618253454099391  0.4256635393702624  1.0000
  O   O10       1.0  0.9231815139798417  0.06678964986776498  0.7433628682411567  1.0000
  O   O11       1.0  0.7658756238437974  0.24716976307114893  0.5629367407064549  1.0000
  O   O12       1.0  0.07106131749090101  0.9305446646050941  0.2575666694581997  1.0000
  O   O13       1.0  0.05838496791970003  0.9256875864073849  0.7399941728692099  1.0000
  O   O14       1.0  0.7741033728240437  0.24606588982298663  0.42098243212340236  1.0000
  O   O15       1.0  0.9369532905879654  0.0728893907489551  0.257558059783861  1.0000
  O   O16       1.0  0.23219844409756962  0.7650543380574819  0.5667487849202432  1.0000
  O   O17       1.0  0.9146859428723392  0.7766002822086406  0.7244495088244562  1.0000
  O   O18       1.0  0.2402200330273275  0.05957966645229362  0.43574931050157767  1.0000
  O   O19       1.0  0.08433226253563932  0.23105889555007053  0.27079484575984475  1.0000
  O   O20       1.0  0.7643009759814492  0.9412059129190948  0.5530873080452068  1.0000
  O   O21       1.0  0.7584776204578249  0.07871017624229644  0.7333057686737873  1.0000
  O   O22       1.0  0.06730991508229056  0.7703762093057734  0.4153189746581347  1.0000
  O   O23       1.0  0.24601764718106978  0.9212225585388014  0.266417704280805  1.0000
  O   O24       1.0  0.929235631218653  0.23692200656547852  0.5742347932713657  1.0000
  O   O25       1.0  0.8184705455203131  0.06970516902347865  0.552461361250657  1.0000
  O   O26       1.0  0.05990116776609954  0.05801538221204079  0.5645563207824082  1.0000
  O   O27       1.0  0.06855928698365688  0.05832652736285845  0.3177261818609977  1.0000
  O   O28       1.0  0.05627796626932755  0.8236732549480126  0.5519465762719447  1.0000
  O   O29       1.0  0.13485476322461654  0.9530042569436006  0.455689233767579  1.0000
  O   O30       1.0  0.9574550675590741  0.9613535582241612  0.44638705767392406  1.0000
  O   O31       1.0  0.959886976227189  0.13412215586661363  0.455810382766231  1.0000
  O   O32       1.0  0.9511469227336568  0.9610149929843176  0.628461488624325  1.0000
  O   O33       1.0  0.8520564328988558  0.39531159424672074  0.6481186625222081  1.0000
  O   O34       1.0  0.4011503358267063  0.8462183363696241  0.10962982689301279  1.0000
  O   O35       1.0  0.12582716341554354  0.8395236308912076  0.895830953329245  1.0000
  O   O36       1.0  0.37859888397098745  0.6180399967908342  0.6445311097533164  1.0000
  O   O37       1.0  0.38696382445844807  0.13520399063011015  0.3553473942720231  1.0000
  O   O38       1.0  0.16787637846726972  0.6093872840739394  0.9818046214575631  1.0000
  O   O39       1.0  0.2774430678649578  0.45708772656150387  0.9879588300387  1.0000
  O   O40       1.0  0.7431175879804359  0.48864826056151145  0.10099020068396689  1.0000
  O   O41       1.0  0.7822672288568671  0.48998359487076487  0.949503489523778  1.0000
