data_image0
_chemical_formula_structural       Co2H38C36N10O8
_chemical_formula_sum              "Co2 H38 C36 N10 O8"
_cell_length_a       9.111798047976038
_cell_length_b       9.895741365477948
_cell_length_c       11.236508805753996
_cell_angle_alpha    73.60744395029668
_cell_angle_beta     81.96056458707713
_cell_angle_gamma    64.84163691040706

_space_group_name_H-M_alt    "P 1"
_space_group_IT_number       1

loop_
  _space_group_symop_operation_xyz
  'x, y, z'

loop_
  _atom_site_type_symbol
  _atom_site_label
  _atom_site_symmetry_multiplicity
  _atom_site_fract_x
  _atom_site_fract_y
  _atom_site_fract_z
  _atom_site_occupancy
  Co  Co1       1.0  0.8078791753016645  0.6968371539610844  0.38997123834354847  1.0000
  Co  Co2       1.0  0.19211190781681614  0.3031918595107329  0.6100815093853456  1.0000
  H   H1        1.0  0.7014301676738697  0.8873680978165055  0.5751758695209334  1.0000
  H   H2        1.0  0.29855778201766725  0.11266454780875533  0.42485055229682434  1.0000
  H   H3        1.0  0.5149118046041677  0.9406425951562625  0.9403609049357726  1.0000
  H   H4        1.0  0.4850556147421868  0.059383263396668426  0.059662668719198605  1.0000
  H   H5        1.0  0.9458330329704694  0.5432889736880071  0.8977044010026702  1.0000
  H   H6        1.0  0.05412735353711176  0.45672297094064623  0.10234311240141385  1.0000
  H   H7        1.0  0.7967430589759914  0.36254642094353784  0.5373154489856802  1.0000
  H   H8        1.0  0.20322355583709134  0.6374616190175787  0.46262188934091597  1.0000
  H   H9        1.0  0.5468650984896186  0.3456252644895913  0.707672949337521  1.0000
  H   H10       1.0  0.4531396799111461  0.6543845196016849  0.29232413781495126  1.0000
  H   H11       1.0  0.47574692768159105  0.81226804860831  0.5602971151610561  1.0000
  H   H12       1.0  0.5242508105151346  0.1877455556425502  0.4396473874550537  1.0000
  H   H13       1.0  0.31300310514870217  0.5324738921189793  0.7880830962152386  1.0000
  H   H14       1.0  0.6870184639926863  0.4675347870082336  0.21189613799792537  1.0000
  H   H15       1.0  0.22492010091060166  0.7190105653547507  0.6885232508346348  1.0000
  H   H16       1.0  0.7750862282679523  0.2810164766263983  0.31146933098040813  1.0000
  H   H17       1.0  0.3608487523549186  0.8199618934163341  0.7907965734899491  1.0000
  H   H18       1.0  0.639162573756046  0.1800432177462312  0.2092079795028283  1.0000
  H   H19       1.0  0.4847047263081379  0.6339329891819362  0.8751917907647311  1.0000
  H   H20       1.0  0.5153067266256955  0.36606639615914116  0.12480972615772154  1.0000
  H   H21       1.0  0.1134935145772644  0.772220193485687  0.9068708791688493  1.0000
  H   H22       1.0  0.8865174053702564  0.22777232907614586  0.09312618835824786  1.0000
  H   H23       1.0  0.2553922006311991  0.603646334693231  0.002452792941816987  1.0000
  H   H24       1.0  0.7446162765203964  0.3963519508434389  0.9975431417476769  1.0000
  H   H25       1.0  0.3711576103264063  0.7675166755753511  0.059503214400933806  1.0000
  H   H26       1.0  0.6288415586864461  0.23248043349096284  0.9405030832619302  1.0000
  H   H27       1.0  0.22826364691549356  0.9340699723193568  0.9625553957746006  1.0000
  H   H28       1.0  0.771734939233511  0.06592597627344082  0.03745304505449102  1.0000
  H   H29       1.0  0.03314969731371781  0.6723054079060091  0.1313715206636985  1.0000
  H   H30       1.0  0.9668969519452946  0.3276477840520472  0.8686424567534202  1.0000
  H   H31       1.0  0.9399207787302398  0.9635370013199215  0.3672176589498831  1.0000
  H   H32       1.0  0.0601041012645922  0.03640242120818732  0.6328078308412941  1.0000
  H   H33       1.0  0.1711669661847708  0.0071602601566028  0.18729527564271822  1.0000
  H   H34       1.0  0.8287931416290704  0.9928634790930388  0.8127057133028117  1.0000
  H   H35       1.0  0.667775879736858  0.7483594536444759  0.1193770657349589  1.0000
  H   H36       1.0  0.33223107525834916  0.2516098558075229  0.8806583401539213  1.0000
  H   H37       1.0  0.8357269035839251  0.5907546840936321  0.10432983610796501  1.0000
  H   H38       1.0  0.16425585955777675  0.4092517765891588  0.8956628340563455  1.0000
  C   C1        1.0  0.8405333033109841  0.7081932773385874  0.7282499019419078  1.0000
  C   C2        1.0  0.1594836900775434  0.291831181502566  0.27177936934181446  1.0000
  C   C3        1.0  0.7126726026706012  0.8465810737705227  0.6753411448298722  1.0000
  C   C4        1.0  0.2873513096922906  0.15343993728374986  0.3246836687769488  1.0000
  C   C5        1.0  0.5966984736869989  0.9288222379974442  0.7531319442731643  1.0000
  C   C6        1.0  0.40328832900913625  0.07118633598980752  0.2468863930282552  1.0000
  C   C7        1.0  0.6086113521869975  0.8761712633101769  0.8818202158367398  1.0000
  C   C8        1.0  0.39136510191197976  0.12384548442297934  0.11818491789107807  1.0000
  C   C9        1.0  0.7334209889043353  0.7350378091579658  0.9368471656617742  1.0000
  C   C10       1.0  0.2665499620202992  0.2649846308828999  0.06316969800708704  1.0000
  C   C11       1.0  0.9602909559936633  0.6150292774981098  0.6451869375868853  1.0000
  C   C12       1.0  0.039713097238084985  0.38498039289373054  0.3548280703749711  1.0000
  C   C13       1.0  0.4507736496253827  0.06831043228275042  0.7000331632357089  1.0000
  C   C14       1.0  0.549230374157496  0.9316741569702387  0.299951620353866  1.0000
  C   C15       1.0  0.692551271913153  0.45311207298500744  0.5667979533872654  1.0000
  C   C16       1.0  0.3074359365851506  0.5468957090221097  0.43316534651404487  1.0000
  C   C17       1.0  0.8496152912174535  0.6535638820118524  0.8573711444045243  1.0000
  C   C18       1.0  0.150384593940629  0.34645843365062495  0.14264567857560448  1.0000
  C   C19       1.0  0.573741765755976  0.44260000960846224  0.6540832860664878  1.0000
  C   C20       1.0  0.4262487743064299  0.5574054182974849  0.3458864141234129  1.0000
  C   C21       1.0  0.5303753726789039  0.6879298068700452  0.5742638217582652  1.0000
  C   C22       1.0  0.46961550800647694  0.3120825426045358  0.4257014365988426  1.0000
  C   C23       1.0  0.33321029412496733  0.6368451577721644  0.7425529357171213  1.0000
  C   C24       1.0  0.6667977909725308  0.3631693054863946  0.2574292165576465  1.0000
  C   C25       1.0  0.3623029904591988  0.7059126407549601  0.8380285478896069  1.0000
  C   C26       1.0  0.6377116382710496  0.2940867799796294  0.16196544099109642  1.0000
  C   C27       1.0  0.23623968619885716  0.7196539756046507  0.9443807484197392  1.0000
  C   C28       1.0  0.7637710299804609  0.2803442962944231  0.055615798686417944  1.0000
  C   C29       1.0  0.24867584261875922  0.8184148793316127  0.021764424040462395  1.0000
  C   C30       1.0  0.7513286276772463  0.18157994430106333  0.9782364386082419  1.0000
  C   C31       1.0  0.03567551383832062  0.7591372385297678  0.17045818268495333  1.0000
  C   C32       1.0  0.9643349286314518  0.2408356915575639  0.8295482889286915  1.0000
  C   C33       1.0  0.9921795311150845  0.9109052767111766  0.29020793308979626  1.0000
  C   C34       1.0  0.007840261720126303  0.08906413316229592  0.7098035844917803  1.0000
  C   C35       1.0  0.105732768317246  0.9341763516496897  0.20196003417831326  1.0000
  C   C36       1.0  0.8942737675560577  0.06580345673422272  0.7980514402430003  1.0000
  N   N1        1.0  0.6644684497463729  0.6064850948670042  0.5174316225207676  1.0000
  N   N2        1.0  0.33552487561194505  0.3935191491695563  0.4825415840217673  1.0000
  N   N3        1.0  0.4720856078549076  0.5922593586342019  0.6577519639958709  1.0000
  N   N4        1.0  0.5279069097580233  0.40775182260819787  0.3422151608213113  1.0000
  N   N5        1.0  0.13142756519085463  0.8374696423361456  0.12593302153541694  1.0000
  N   N6        1.0  0.8685772416506765  0.16252173326989802  0.8740677700461176  1.0000
  N   N7        1.0  0.9494366769172659  0.8012810097410042  0.2696828391045543  1.0000
  N   N8        1.0  0.05058317362694709  0.19868838249565363  0.7303313458454639  1.0000
  N   N9        1.0  0.7334204640495656  0.6763433143655532  0.06304277893222834  1.0000
  N   N10       1.0  0.2665649746010815  0.32365497033195817  0.9369685088912973  1.0000
  O   O1        1.0  0.0742854798144421  0.4874857458792549  0.695142575459748  1.0000
  O   O2        1.0  0.9257396321672997  0.5125054599568629  0.3048708408542638  1.0000
  O   O3        1.0  0.9431040155799693  0.6685471976351921  0.5283539538090308  1.0000
  O   O4        1.0  0.056895447104878386  0.3314210510454815  0.47167286676793196  1.0000
  O   O5        1.0  0.40139016111544384  0.18882655506165247  0.7411954646395528  1.0000
  O   O6        1.0  0.5985618131304946  0.811166545477491  0.2587518933873553  1.0000
  O   O7        1.0  0.37407323259228786  0.06398635018192782  0.6157566077277963  1.0000
  O   O8        1.0  0.6259476198998185  0.9359753775370766  0.38419884119650044  1.0000
