data_image0
_chemical_formula_structural       Cd4H32C48N8O16
_chemical_formula_sum              "Cd4 H32 C48 N8 O16"
_cell_length_a       7.821725294
_cell_length_b       12.31978571792227
_cell_length_c       12.7701
_cell_angle_alpha    104.83815867288837
_cell_angle_beta     90.0
_cell_angle_gamma    90.0

_space_group_name_H-M_alt    "P 1"
_space_group_IT_number       1

loop_
  _space_group_symop_operation_xyz
  'x, y, z'

loop_
  _atom_site_type_symbol
  _atom_site_label
  _atom_site_symmetry_multiplicity
  _atom_site_fract_x
  _atom_site_fract_y
  _atom_site_fract_z
  _atom_site_occupancy
  Cd  Cd1       1.0  0.8773882669165474  0.1601231553682325  0.3850693096662496  1.0000
  Cd  Cd2       1.0  0.3773898838232483  0.3398752313924476  0.11493142723322336  1.0000
  Cd  Cd3       1.0  0.1226046637991303  0.8398752975611216  0.6149302298079957  1.0000
  Cd  Cd4       1.0  0.6226119963246077  0.6601249009449077  0.8850708763916657  1.0000
  H   H1        1.0  0.4788444824152904  0.120595769072942  0.3796396201248484  1.0000
  H   H2        1.0  0.9788505364504587  0.3794034573917315  0.12035975807266647  1.0000
  H   H3        1.0  0.5211471698100782  0.8794068823764007  0.6203609566318348  1.0000
  H   H4        1.0  0.0211564576586341  0.6205907970176341  0.8796379610399254  1.0000
  H   H5        1.0  0.2787569133465411  0.1605984278310686  0.7010926352382327  1.0000
  H   H6        1.0  0.7787591319107747  0.3394016383376055  0.7989085165742151  1.0000
  H   H7        1.0  0.7212347388788274  0.8394017045062796  0.2989073191489879  1.0000
  H   H8        1.0  0.2212414697467651  0.6605959748877552  0.20109159852277253  1.0000
  H   H9        1.0  0.5813039743914103  0.1739732331103454  0.7697324341463981  1.0000
  H   H10       1.0  0.08130559129810423  0.3260276727623221  0.7302665758848617  1.0000
  H   H11       1.0  0.4186889563242673  0.8260243801150082  0.2302661147921369  1.0000
  H   H12       1.0  0.9186962888497447  0.6739749786870205  0.2697332177925914  1.0000
  H   H13       1.0  0.8209953378094212  0.1580171777413852  0.6337005424578948  1.0000
  H   H14       1.0  0.3209982332064243  0.3419820487232883  0.8662980526603903  1.0000
  H   H15       1.0  0.1789975929062564  0.8419821148919624  0.3662976383143927  1.0000
  H   H16       1.0  0.6790062039220501  0.6580197630220539  0.13370153356057551  1.0000
  H   H17       1.0  0.6540845922989007  0.8688459251942362  0.08879742208472408  1.0000
  H   H18       1.0  0.15408876618622  0.6311576321277812  0.4112052970201104  1.0000
  H   H19       1.0  0.3459083384167769  0.1311575659591  0.9112025790492168  1.0000
  H   H20       1.0  0.8459143924519452  0.3688441796175681  0.5887974215177535  1.0000
  H   H21       1.0  0.8618149764439949  0.1508662584948866  0.991876991464231  1.0000
  H   H22       1.0  0.3618140363700704  0.3491338076737946  0.5081218111105484  1.0000
  H   H23       1.0  0.1381894606844796  0.8491338738424686  0.008119830606098265  1.0000
  H   H24       1.0  0.6381942362293316  0.6508680040715547  0.49187855818964715  1.0000
  H   H25       1.0  0.8130763688260032  0.0420708497050697  0.7959798456255739  1.0000
  H   H26       1.0  0.3130741502617624  0.45792669735161695  0.7040199007381885  1.0000
  H   H27       1.0  0.1869344607540242  0.9579259238162905  0.20401771277725078  1.0000
  H   H28       1.0  0.6869328438473303  0.5420725952817378  0.2959814123509972  1.0000
  H   H29       1.0  0.6979828356012305  0.8477735533657977  0.7602868638373151  1.0000
  H   H30       1.0  0.1979793385466877  0.6522241260282371  0.7397144030721136  1.0000
  H   H31       1.0  0.3020254369981714  0.152224059859563  0.23971168510122  1.0000
  H   H32       1.0  0.8020212631108521  0.3477734871971164  0.26028806126254267  1.0000
  C   C1        1.0  0.4968801452259229  0.1320845991728348  0.46634895699859397  1.0000
  C   C2        1.0  0.996884920770782  0.36791294788384477  0.03364922320672289  1.0000
  C   C3        1.0  0.5031127854897548  0.8679155331645134  0.533648648150958  1.0000
  C   C4        1.0  0.0031207948480017  0.6320838256375154  0.9663506844337771  1.0000
  C   C5        1.0  0.3564303136724334  0.1411970669585401  0.5355739085163903  1.0000
  C   C6        1.0  0.856432532236667  0.3588021595061334  0.9644270358395699  1.0000
  C   C7        1.0  0.6435638955335605  0.8588055844908026  0.4644282343987384  1.0000
  C   C8        1.0  0.1435706264014982  0.6411937743112262  0.03557266434443562  1.0000
  C   C9        1.0  0.386612912923404  0.1556861594430927  0.6462709772650185  1.0000
  C   C10       1.0  0.8866138529973284  0.3443147464295819  0.8537295989246942  1.0000
  C   C11       1.0  0.6133812962825829  0.84431649200625  0.35372959949166466  1.0000
  C   C12       1.0  0.1133893056408297  0.6556837064997723  0.14626994054955836  1.0000
  C   C13       1.0  0.5541769669826024  0.1610098827900686  0.6837120452381953  1.0000
  C   C14       1.0  0.0541811408699147  0.3389901833786126  0.8162883234950229  1.0000
  C   C15       1.0  0.4458159637330752  0.8389877304352922  0.31628728677956264  1.0000
  C   C16       1.0  0.9458245747488689  0.6610124680707372  0.1837130363408761  1.0000
  C   C17       1.0  0.6870427940140332  0.1532224679131176  0.609559998462764  1.0000
  C   C18       1.0  0.187044410920727  0.3467784379595571  0.8904405777269417  1.0000
  C   C19       1.0  0.3129514151919537  0.8467768247202372  0.3904373992302935  1.0000
  C   C20       1.0  0.812957469227122  0.6532225340817917  0.10956193335443484  1.0000
  C   C21       1.0  0.1783851960475147  0.1436532011525316  0.4931223245226731  1.0000
  C   C22       1.0  0.6783886931020646  0.35634602531214904  0.0068786198332873  1.0000
  C   C23       1.0  0.8216090131584721  0.8563486105928177  0.5068764786190698  1.0000
  C   C24       1.0  0.3216183010070282  0.6436507482092111  0.9931236370448814  1.0000
  C   C25       1.0  0.6912336852519518  0.9099460770776773  0.026200395051851885  1.0000
  C   C26       1.0  0.1912340236683363  0.5900566405403396  0.4738013335172724  1.0000
  C   C27       1.0  0.3087643594249698  0.0900548949636644  0.9737966344749578  1.0000
  C   C28       1.0  0.8087691349698292  0.4099451712050097  0.5262021680998217  1.0000
  C   C29       1.0  0.7604409227415161  0.0178705804842778  0.05411869346676209  1.0000
  C   C30       1.0  0.2604399826675916  0.4821311650923974  0.4458836563378838  1.0000
  C   C31       1.0  0.2395571219354053  0.9821320709650649  0.945881883289921  1.0000
  C   C32       1.0  0.739565732951192  0.5178698069489514  0.5541196378227226  1.0000
  C   C33       1.0  0.8046408897571311  0.0675239572907955  0.9707869156866238  1.0000
  C   C34       1.0  0.3046386711928903  0.4324761088778857  0.5292126699673716  1.0000
  C   C35       1.0  0.195360990390725  0.9324761750465598  0.029211472542144172  1.0000
  C   C36       1.0  0.6953657659355772  0.5675240234594696  0.47078885057829467  1.0000
  C   C37       1.0  0.7784280029203501  0.0081921522039536  0.8638300394082065  1.0000
  C   C38       1.0  0.2784245058658002  0.4918070742607199  0.636170121868524  1.0000
  C   C39       1.0  0.22158282665967732  0.9918046213173994  0.13616751899461824  1.0000
  C   C40       1.0  0.7215824882432926  0.5081922183726348  0.3638304081414318  1.0000
  C   C41       1.0  0.7131355027616237  0.8995631371430832  0.8426843807980474  1.0000
  C   C42       1.0  0.2131320057070809  0.6004362216589456  0.6573157348659038  1.0000
  C   C43       1.0  0.2868740483280874  0.100435315786271  0.15731359251774527  1.0000
  C   C44       1.0  0.7868711529310843  0.3995630709744091  0.3426863613024976  1.0000
  C   C45       1.0  0.7975324836305903  0.0757732093666093  0.16998473986751608  1.0000
  C   C46       1.0  0.2975302650663494  0.4242268568020648  0.3300156288657092  1.0000
  C   C47       1.0  0.2024591685947783  0.9242286023787329  0.830014063274227  1.0000
  C   C48       1.0  0.7024716150814996  0.5757757946472779  0.6699857309701968  1.0000
  N   N1        1.0  0.6587740947579235  0.1393278858591103  0.5027952138762473  1.0000
  N   N2        1.0  0.1587782686452428  0.3606713406055633  0.9972033812420449  1.0000
  N   N3        1.0  0.34121883595775426  0.8606722464782379  0.4972039574317506  1.0000
  N   N4        1.0  0.8412261684832316  0.6393279520277915  0.0027947995302426104  1.0000
  N   N5        1.0  0.6702907354751702  0.8514355025008342  0.922579511193298  1.0000
  N   N6        1.0  0.170292352381864  0.6485638563011946  0.5774206044706529  1.0000
  N   N7        1.0  0.3297111446726788  0.1485654695405145  0.07741908449195727  1.0000
  N   N8        1.0  0.8297108062562941  0.3514345966281596  0.4225805011620379  1.0000
  O   O1        1.0  0.0632801564099523  0.1923938197132813  0.5579914438404572  1.0000
  O   O2        1.0  0.5632849319548114  0.3076070861593934  0.9420114815869238  1.0000
  O   O3        1.0  0.936710217325107  0.8076121905520566  0.4420068304252779  1.0000
  O   O4        1.0  0.4367207836639722  0.6923863285459717  0.05799386086141566  1.0000
  O   O5        1.0  0.15252005857519896  0.09985340091569128  0.3918539701673112  1.0000
  O   O6        1.0  0.6525209986491234  0.40014666525298276  0.10815031396202807  1.0000
  O   O7        1.0  0.8474754291210973  0.9001467314216569  0.6081491165368077  1.0000
  O   O8        1.0  0.3474834384793439  0.5998568259003605  0.8918496871719127  1.0000
  O   O9        1.0  0.8776848766685958  0.1682976737882314  0.19091815597167988  1.0000
  O   O10       1.0  0.3776711516915583  0.3316990335644476  0.30908294909404077  1.0000
  O   O11       1.0  0.1223221174404969  0.8316990997331217  0.8090809685895904  1.0000
  O   O12       1.0  0.6223243360047377  0.6683010987729006  0.6909185714516254  1.0000
  O   O13       1.0  0.750980094443598  0.02705442310981  0.242906936220102  1.0000
  O   O14       1.0  0.2509881038018449  0.4729498415788598  0.2570929036371083  1.0000
  O   O15       1.0  0.248996215898039  0.9729524268595284  0.7570907624228908  1.0000
  O   O16       1.0  0.7490176118169387  0.5270544892784841  0.7429088711117727  1.0000
