data_image0
_chemical_formula_structural       Al6H53C87N3O28
_chemical_formula_sum              "Al6 H53 C87 N3 O28"
_cell_length_a       13.41546771027922
_cell_length_b       13.402024631204926
_cell_length_c       27.57829697538774
_cell_angle_alpha    90.55040912199723
_cell_angle_beta     90.52455656876165
_cell_angle_gamma    120.02082246016305

_space_group_name_H-M_alt    "P 1"
_space_group_IT_number       1

loop_
  _space_group_symop_operation_xyz
  'x, y, z'

loop_
  _atom_site_type_symbol
  _atom_site_label
  _atom_site_symmetry_multiplicity
  _atom_site_fract_x
  _atom_site_fract_y
  _atom_site_fract_z
  _atom_site_occupancy
  Al  Al1       1.0  0.40206978933722587  0.8195980921786942  0.4944613665990261  1.0000
  Al  Al2       1.0  0.6410333279929077  0.0602811054784524  0.4979743779431303  1.0000
  Al  Al3       1.0  0.4220611848522253  0.06821356986048951  0.4991209615011911  1.0000
  Al  Al4       1.0  0.9125590057116425  0.8348750168687575  0.9865086000883353  1.0000
  Al  Al5       1.0  0.9139036616893604  0.5958995669275495  0.9850539755314287  1.0000
  Al  Al6       1.0  0.6853078892809491  0.5845413503144388  0.9827734885032555  1.0000
  H   H1        1.0  0.8479057410428298  0.3463252537962519  0.21430402970494808  1.0000
  H   H2        1.0  0.8262796630778836  0.4794569504805394  0.2899047544996023  1.0000
  H   H3        1.0  0.5005389577745945  0.2873466526208405  0.7815705216666018  1.0000
  H   H4        1.0  0.5334954355497316  0.34891128124974113  0.8681547807570452  1.0000
  H   H5        1.0  0.7907421515506455  0.25608741186479733  0.7141736180379894  1.0000
  H   H6        1.0  0.8615186956977253  0.39945102338959515  0.7683381183221272  1.0000
  H   H7        1.0  0.8915731182336089  0.4536961309491544  0.8556662047998884  1.0000
  H   H8        1.0  0.5266173929768669  0.34924608733594914  0.7045625025631566  1.0000
  H   H9        1.0  0.49569997129513876  0.2910784315706252  0.6175942920912759  1.0000
  H   H10       1.0  0.30557244949346085  0.06128766066519382  0.6349215721898743  1.0000
  H   H11       1.0  0.18759956073797224  0.6865029260863411  0.7776997025050604  1.0000
  H   H12       1.0  0.2867327486784744  0.7615155877607548  0.2112225674017338  1.0000
  H   H13       1.0  0.12336429281614161  0.6505261477580433  0.8633218227292474  1.0000
  H   H14       1.0  0.6628078953896831  0.14603715934109832  0.2522718249626905  1.0000
  H   H15       1.0  0.24660770042935806  0.026303343826455706  0.7212060886133145  1.0000
  H   H16       1.0  0.09563587828218807  0.9516312274993411  0.7701875572010053  1.0000
  H   H17       1.0  0.037998788327300394  0.9189550755756886  0.856670578597793  1.0000
  H   H18       1.0  0.12741966873235105  0.6645738790693515  0.699557132974391  1.0000
  H   H19       1.0  0.19510049286272854  0.7028695182845155  0.6142363648750973  1.0000
  H   H20       1.0  0.4518687214368884  0.7221043265797606  0.6202534846381128  1.0000
  H   H21       1.0  0.7763562408127813  0.9847876342997071  0.7831569740901685  1.0000
  H   H22       1.0  0.8047314519018797  0.947258942118964  0.8691629814333338  1.0000
  H   H23       1.0  0.9655339014131242  0.7083654680423735  0.2216885419325578  1.0000
  H   H24       1.0  0.47595772231080963  0.6857115754169174  0.7067543683973979  1.0000
  H   H25       1.0  0.5595458707656888  0.6193503018383809  0.7575570299557697  1.0000
  H   H26       1.0  0.5071490757858398  0.180430421857352  0.1925806861764485  1.0000
  H   H27       1.0  0.5811741437219881  0.5843469871905145  0.8444682033983426  1.0000
  H   H28       1.0  0.8242988683809996  0.9710925447879009  0.7063783206679517  1.0000
  H   H29       1.0  0.796756055577994  0.009630610618053504  0.6206228125849975  1.0000
  H   H30       1.0  0.48449303155506124  0.309788534935187  0.2687594900795105  1.0000
  H   H31       1.0  0.6695896425052295  0.5118690674907427  0.230079843992435  1.0000
  H   H32       1.0  0.22861329449180798  0.0272500107923648  0.2043870128322993  1.0000
  H   H33       1.0  0.051982946519210455  0.9202599564521422  0.2736988042315147  1.0000
  H   H34       1.0  0.7328302782133492  0.7175582541875516  0.2859353999745551  1.0000
  H   H35       1.0  0.07211394772640746  0.6227816840367383  0.3181420958634078  1.0000
  H   H36       1.0  0.05772220453251008  0.461036712358684  0.2771879817995213  1.0000
  H   H37       1.0  0.14418802831769287  0.5501022155779439  0.2296252202705347  1.0000
  H   H38       1.0  0.9989212289205084  0.5174174712047162  0.2340549496969686  1.0000
  H   H39       1.0  0.4999304835806909  0.583556890218418  0.1802179276956579  1.0000
  H   H40       1.0  0.40215527356772185  0.42998413688668796  0.23488652440629923  1.0000
  H   H41       1.0  0.38337391383648634  0.5445201739628873  0.2581272477827383  1.0000
  H   H42       1.0  0.4910632278831954  0.5192174039476996  0.2834244482754329  1.0000
  H   H43       1.0  0.44603208409711204  0.0293160041534648  0.2368075940772272  1.0000
  H   H44       1.0  0.5434339270098362  0.004410822589491701  0.2979068173329225  1.0000
  H   H45       1.0  0.4634553251112408  0.7635954029001227  0.2613295000036473  1.0000
  H   H46       1.0  0.416223927540159  0.8679240635511081  0.30284018926968775  1.0000
  H   H47       1.0  0.43705978302040904  0.9859375821307881  0.3400043159654373  1.0000
  H   H48       1.0  0.5941895153156906  0.9340797546063655  0.1918386881285699  1.0000
  H   H49       1.0  0.7844894954983133  0.03184673436128801  0.2580923160474882  1.0000
  H   H50       1.0  0.8622597084983284  0.8888550471265618  0.2164874746694423  1.0000
  H   H51       1.0  0.7632048180751169  0.2043975345602008  0.6265704675989596  1.0000
  H   H52       1.0  0.3487350400231292  0.6286910537609318  0.5119761653293011  1.0000
  H   H53       1.0  0.03795266486100249  0.025853633512419094  0.9644366867526344  1.0000
  C   C1        1.0  0.6044265435944567  0.8979503187291442  0.4271027983511928  1.0000
  C   C2        1.0  0.636308283538895  0.27029786651217347  0.3395221192628313  1.0000
  C   C3        1.0  0.10354947033913946  0.8848677169121261  0.2591531817569788  1.0000
  C   C4        1.0  0.5979471370552715  0.1946329660312288  0.42972863855788995  1.0000
  C   C5        1.0  0.20209645047853547  0.9447748753595988  0.2216840161734197  1.0000
  C   C6        1.0  0.10116607270654043  0.7871904069043794  0.10049927320520172  1.0000
  C   C7        1.0  0.21822945005844477  0.8825684333566174  0.3863347485255204  1.0000
  C   C8        1.0  0.055764354770794104  0.766998996726109  0.2317637882219117  1.0000
  C   C9        1.0  0.15530288426320746  0.8262634546226906  0.1932850144754568  1.0000
  C   C10       1.0  0.13803330149495727  0.7382420663633058  0.2635777958281977  1.0000
  C   C11       1.0  0.18239806180393026  0.8561715388532182  0.2921231053193125  1.0000
  C   C12       1.0  0.6231784333014616  0.2436580405922157  0.3821909291344809  1.0000
  C   C13       1.0  0.2349591671648599  0.7972488373752573  0.2253580905305981  1.0000
  C   C14       1.0  0.28242854940229034  0.9171242503227435  0.2532668842631907  1.0000
  C   C15       1.0  0.13147392121376092  0.8066502543046709  0.1429923678013836  1.0000
  C   C16       1.0  0.27503696951140444  0.9035684186063903  0.43268355965573596  1.0000
  C   C17       1.0  0.19884691006823385  0.8710539614292475  0.3427254339621228  1.0000
  C   C18       1.0  0.7021153051328356  0.7654784809033331  0.264595360464476  1.0000
  C   C19       1.0  0.595893331386961  0.7110229003062547  0.2284775796570244  1.0000
  C   C20       1.0  0.6761236777863289  0.7679170284171094  0.09733103749792349  1.0000
  C   C21       1.0  0.6368034043949465  0.8774945409307906  0.38013629818987477  1.0000
  C   C22       1.0  0.7740106939809125  0.8610855975465415  0.22717816910734  1.0000
  C   C23       1.0  0.6692563678347698  0.4310889954935036  0.2358794393647869  1.0000
  C   C24       1.0  0.6679181775264666  0.806605697786253  0.1903712982889445  1.0000
  C   C25       1.0  0.730516059352169  0.940182224811764  0.2491089581983772  1.0000
  C   C26       1.0  0.6578204691384285  0.8447982770449514  0.2875074070736829  1.0000
  C   C27       1.0  0.6241834031139248  0.8862073707572409  0.2136288545601133  1.0000
  C   C28       1.0  0.6022933704225437  0.8929993999097692  0.5651670490057157  1.0000
  C   C29       1.0  0.5516697720948754  0.790980557795521  0.250838105689418  1.0000
  C   C30       1.0  0.671376709893096  0.7860407678858935  0.1404104039479463  1.0000
  C   C31       1.0  0.64971978365206  0.8627863951479429  0.3375109959628659  1.0000
  C   C32       1.0  0.6287829847459392  0.24579121135267462  0.6164014835267223  1.0000
  C   C33       1.0  0.7127926906443777  0.23752463335740262  0.6439445292835231  1.0000
  C   C34       1.0  0.6825078873709459  0.35798673049854557  0.1931878046996971  1.0000
  C   C35       1.0  0.728046315597723  0.2671342155573272  0.6929794225162027  1.0000
  C   C36       1.0  0.6612677516607164  0.30725945686010186  0.716077040648706  1.0000
  C   C37       1.0  0.5779256926119629  0.3161261731594181  0.6879153411112497  1.0000
  C   C38       1.0  0.5612382169771664  0.2852080622092431  0.6389718585230995  1.0000
  C   C39       1.0  0.5869835267282397  0.32533964885738004  0.7973392272481732  1.0000
  C   C40       1.0  0.6052254342132387  0.2022535298280559  0.5654505186281185  1.0000
  C   C41       1.0  0.604475972975493  0.3580641538411414  0.8460796265074181  1.0000
  C   C42       1.0  0.8059835379257904  0.41591605818467764  0.8391505606327386  1.0000
  C   C43       1.0  0.7883111342688451  0.3847562054969131  0.7902674804226635  1.0000
  C   C44       1.0  0.6786424104708003  0.33895398453516634  0.7682322649621796  1.0000
  C   C45       1.0  0.5656187241786126  0.3190271577647792  0.2562333533223935  1.0000
  C   C46       1.0  0.7143052227780017  0.4036460491081898  0.8675206164293882  1.0000
  C   C47       1.0  0.2533729530235221  0.8839856030992197  0.6195548468858618  1.0000
  C   C48       1.0  0.26607670729733723  0.9747230993053793  0.6495420396547686  1.0000
  C   C49       1.0  0.23208844039459112  0.9543683237622035  0.6975952425098058  1.0000
  C   C50       1.0  0.18254251015122955  0.8428266553567242  0.7166813183715277  1.0000
  C   C51       1.0  0.16853836231717886  0.7521769297235467  0.6858813990667585  1.0000
  C   C52       1.0  0.2985349548430136  0.906204831826372  0.5694469475961199  1.0000
  C   C53       1.0  0.2045260661334326  0.7724620931065617  0.6381145458941546  1.0000
  C   C54       1.0  0.15310669370242636  0.7365572240991867  0.7945729237684844  1.0000
  C   C55       1.0  0.1186162917870704  0.7169213599165688  0.842609409739623  1.0000
  C   C56       1.0  0.6508960687721128  0.3002205658786608  0.2898953763899144  1.0000
  C   C57       1.0  0.07178686054578523  0.8693513138834491  0.8388889698295827  1.0000
  C   C58       1.0  0.10478421206387635  0.8875270653872961  0.7907595266101167  1.0000
  C   C59       1.0  0.146601963567818  0.8219804314335235  0.7676854819470903  1.0000
  C   C60       1.0  0.07820186504975624  0.7836879905177837  0.8652347301231629  1.0000
  C   C61       1.0  0.6230045045135315  0.867417320236655  0.6152822087331558  1.0000
  C   C62       1.0  0.5332898877942468  0.7751831501290527  0.6395594551550018  1.0000
  C   C63       1.0  0.5476151519621553  0.7551430345988096  0.6877220024302488  1.0000
  C   C64       1.0  0.7554749174862821  0.4129664481924351  0.267922781204355  1.0000
  C   C65       1.0  0.6519842110582629  0.8257306146011912  0.7128459765101525  1.0000
  C   C66       1.0  0.7418079153081012  0.9172245964288737  0.6878971615634697  1.0000
  C   C67       1.0  0.5778506938608955  0.2456192245266849  0.21500899847310254  1.0000
  C   C68       1.0  0.7274637724036097  0.9383747962028651  0.6398436285128994  1.0000
  C   C69       1.0  0.7352528080076652  0.8966028417992291  0.7961609302875418  1.0000
  C   C70       1.0  0.7500522015865343  0.8766275589418485  0.8442873368281312  1.0000
  C   C71       1.0  0.6229930058583548  0.6716895049447659  0.8305776801602747  1.0000
  C   C72       1.0  0.6105994841915461  0.6919593195953554  0.7821827694267256  1.0000
  C   C73       1.0  0.6660905400350928  0.8046315333692748  0.7641027586528608  1.0000
  C   C74       1.0  0.6935588223351561  0.7639472559015134  0.8618559126581431  1.0000
  C   C75       1.0  0.04440038058408651  0.7613735400142473  0.05391265722398939  1.0000
  C   C76       1.0  0.7674478975428085  0.3388935990571298  0.22678989540627734  1.0000
  C   C77       1.0  0.7359865205821522  0.46180640641272674  0.053237543157003096  1.0000
  C   C78       1.0  0.6639325482754754  0.22736240224944743  0.2471071710843233  1.0000
  C   C79       1.0  0.7083267318809446  0.7493793749931825  0.050073822306046595  1.0000
  C   C80       1.0  0.03493748027756279  0.761473107117574  0.9156160122212142  1.0000
  C   C81       1.0  0.7368441519993637  0.44976919138119353  0.9180498582417088  1.0000
  C   C82       1.0  0.7160361467021443  0.74249763011575  0.9123996491904549  1.0000
  C   C83       1.0  0.7129107592171736  0.41415281526791864  0.1009765080252976  1.0000
  C   C84       1.0  0.07672656131808263  0.5365336473967092  0.2554845245002184  1.0000
  C   C85       1.0  0.4476164077366888  0.5186342580772703  0.2493170770003488  1.0000
  C   C86       1.0  0.4503796767307195  0.9617074272071311  0.3035832879126659  1.0000
  C   C87       1.0  0.6979794781452354  0.38769153655888283  0.1436196458297161  1.0000
  N   N1        1.0  0.11783334514807123  0.637580731655632  0.2871179481370731  1.0000
  N   N2        1.0  0.5331215504684225  0.5936493021085526  0.2145318341709128  1.0000
  N   N3        1.0  0.39659490558578653  0.999486313107781  0.2668912868106901  1.0000
  O   O1        1.0  0.2999824549341882  0.8293365548382782  0.44689964885457556  1.0000
  O   O2        1.0  0.6601361486387204  0.4813833046060411  0.0341172230893889  1.0000
  O   O3        1.0  0.6363537614582739  0.6566645552426352  0.0265693851585596  1.0000
  O   O4        1.0  0.502625973485202  0.8299141745198214  0.4399259217905467  1.0000
  O   O5        1.0  0.8045586424022915  0.820700504766542  0.9339524805746892  1.0000
  O   O6        1.0  0.011808212767121636  0.833181871012471  0.9351233529967686  1.0000
  O   O7        1.0  0.019808666423600168  0.6682493909526743  0.9355526139357409  1.0000
  O   O8        1.0  0.8350894342194052  0.4789547888500608  0.9373782984722893  1.0000
  O   O9        1.0  0.6593946735590774  0.4639045458987566  0.938534877626644  1.0000
  O   O10       1.0  0.6451025067594928  0.6429457139845028  0.9300966456271169  1.0000
  O   O11       1.0  0.8363901905725442  0.669803655658413  0.9846590727904784  1.0000
  O   O12       1.0  0.6754532211216143  0.1759991139549727  0.545898793025863  1.0000
  O   O13       1.0  0.6812596146931469  0.9870397407574032  0.4513245746640848  1.0000
  O   O14       1.0  0.6707805967842616  0.17119456094751945  0.4491678814518778  1.0000
  O   O15       1.0  0.5022881297164189  0.1734268772084562  0.4482506220497058  1.0000
  O   O16       1.0  0.30124042943774776  0.9994163026518241  0.4547578582298115  1.0000
  O   O17       1.0  0.313799127083918  0.8301547809162173  0.5491232627465621  1.0000
  O   O18       1.0  0.5101170290776056  0.8205685010758547  0.5436207868259615  1.0000
  O   O19       1.0  0.6782718178364959  0.9904267577939765  0.5475504112772214  1.0000
  O   O20       1.0  0.5127490907878071  0.18738494856300758  0.544684991247216  1.0000
  O   O21       1.0  0.32263325995548103  0.0038365451509534015  0.550901156824871  1.0000
  O   O22       1.0  0.48959038162892204  0.9845744388044722  0.4972263900351521  1.0000
  O   O23       1.0  0.8072605395241581  0.8240636092033641  0.0364792657402901  1.0000
  O   O24       1.0  0.011330485575335742  0.8289418996201761  0.0390365758995515  1.0000
  O   O25       1.0  0.027978128556476682  0.6682821175062229  0.0319762345328911  1.0000
  O   O26       1.0  0.8318225898591648  0.48551914795061907  0.0341791425262699  1.0000
  O   O27       1.0  0.3219699952272848  0.6684565296907009  0.49124034796849964  1.0000
  O   O28       1.0  0.9810901234697624  0.9859259088505257  0.9889511668746422  1.0000
