data_image0
_chemical_formula_structural       Zn3H22C30O16
_chemical_formula_sum              "Zn3 H22 C30 O16"
_cell_length_a       7.766019624031715
_cell_length_b       10.262672187785894
_cell_length_c       10.791412083298763
_cell_angle_alpha    65.37838639045889
_cell_angle_beta     74.82801715832979
_cell_angle_gamma    70.27350676798427

_space_group_name_H-M_alt    "P 1"
_space_group_IT_number       1

loop_
  _space_group_symop_operation_xyz
  'x, y, z'

loop_
  _atom_site_type_symbol
  _atom_site_label
  _atom_site_symmetry_multiplicity
  _atom_site_fract_x
  _atom_site_fract_y
  _atom_site_fract_z
  _atom_site_occupancy
  Zn  Zn1       1.0  0.49999735175634885  0.9999998104169096  0.9999977347084226  1.0000
  Zn  Zn2       1.0  0.6758899238704785  0.6284901619461536  0.9919640879516577  1.0000
  Zn  Zn3       1.0  0.324123288085076  0.3715032726956764  0.008037438065891021  1.0000
  H   H1        1.0  0.754174063470387  0.40291776840810906  0.9316144724040143  1.0000
  H   H2        1.0  0.24583421109917938  0.5970746072355554  0.06839124785301452  1.0000
  H   H3        1.0  0.9548037703093114  0.42887790799665737  0.912823827365422  1.0000
  H   H4        1.0  0.045204410066190845  0.5711189118970736  0.08717737663608456  1.0000
  H   H5        1.0  0.5980931715125806  0.1269693557093134  0.15545952831502766  1.0000
  H   H6        1.0  0.40190960430459904  0.8730231315381615  0.8445426223623258  1.0000
  H   H7        1.0  0.7307218608801025  0.9668448305398554  0.18402523063025444  1.0000
  H   H8        1.0  0.2692906115600309  0.033154241684478294  0.8159612427043612  1.0000
  H   H9        1.0  0.1620853523689334  0.7061893030504861  0.7377577221655827  1.0000
  H   H10       1.0  0.8379210651916295  0.29380968705650895  0.2622513221247544  1.0000
  H   H11       1.0  0.41990139625528394  0.8624261957293696  0.3196039577665671  1.0000
  H   H12       1.0  0.5800949301601932  0.1375795724582503  0.6804035182889336  1.0000
  H   H13       1.0  0.7744582210780208  0.4302995854994192  0.6667604120580678  1.0000
  H   H14       1.0  0.22554549075045568  0.5696984299787502  0.3332375135107953  1.0000
  H   H15       1.0  0.38368521389030963  0.0571677970368825  0.4147966570947972  1.0000
  H   H16       1.0  0.6163148060649846  0.9428335852632653  0.5852006835995097  1.0000
  H   H17       1.0  0.8594143959958062  0.4622838899624283  0.41757204891751337  1.0000
  H   H18       1.0  0.14057111273054812  0.5377166153867561  0.582424856606643  1.0000
  H   H19       1.0  0.8838566764578885  0.16071759927670826  0.6853243525450806  1.0000
  H   H20       1.0  0.11613181094459431  0.8392861883216793  0.31466972960921424  1.0000
  H   H21       1.0  0.12767076895239882  0.24334507373549732  0.48743898902441163  1.0000
  H   H22       1.0  0.8723158453618113  0.7566598953179521  0.5125485163719788  1.0000
  C   C1        1.0  0.5277861504451877  0.6035412212291077  0.7837294409563855  1.0000
  C   C2        1.0  0.4722187697376796  0.3964534112491619  0.2162760646232798  1.0000
  C   C3        1.0  0.6857109539108703  0.671215288359626  0.20936592026162507  1.0000
  C   C4        1.0  0.31427976181225864  0.3287906217390884  0.790634289403215  1.0000
  C   C5        1.0  0.5555460924327279  0.6323790826365681  0.6324190771991097  1.0000
  C   C6        1.0  0.4444614969247667  0.36761993450144803  0.3675841590162463  1.0000
  C   C7        1.0  0.009662622134406686  0.9289598527058018  0.7210722387124305  1.0000
  C   C8        1.0  0.9903387655127319  0.07104150358760108  0.2789257633261144  1.0000
  C   C9        1.0  0.8524157285567356  0.8809432634644595  0.8263432992565141  1.0000
  C   C10       1.0  0.14758314758661584  0.1190580842278379  0.1736607737155254  1.0000
  C   C11       1.0  0.15896724863726075  0.8233570386058913  0.6838242523103731  1.0000
  C   C12       1.0  0.8410326017414747  0.17664540822069338  0.3161782634032164  1.0000
  C   C13       1.0  0.5021256227431438  0.7713248443676618  0.3957779080984096  1.0000
  C   C14       1.0  0.4978749483394509  0.22867978885011542  0.6042254527677713  1.0000
  C   C15       1.0  0.45506380405112873  0.75714706148171  0.5346964400116718  1.0000
  C   C16       1.0  0.5449397941707729  0.24285200336925067  0.4653085089819626  1.0000
  C   C17       1.0  0.7002265950115713  0.5267866978122624  0.5894204591002108  1.0000
  C   C18       1.0  0.2997724227233505  0.47321359293042037  0.4105775146498018  1.0000
  C   C19       1.0  0.297365401891078  0.8683062922732958  0.5755175823766548  1.0000
  C   C20       1.0  0.7026337557687866  0.1316939605852738  0.4244850123870875  1.0000
  C   C21       1.0  0.28094458344147455  0.020660391583817297  0.5027400013035006  1.0000
  C   C22       1.0  0.7190520923662121  0.9793388260313305  0.4972588683607384  1.0000
  C   C23       1.0  0.7485778730513601  0.5443803992592748  0.4513985317111491  1.0000
  C   C24       1.0  0.2514177623118669  0.4556221558948366  0.5485983031587551  1.0000
  C   C25       1.0  0.0007465662618742021  0.08057147368299408  0.653387366260695  1.0000
  C   C26       1.0  0.9992442630678366  0.9194333870429291  0.3466058199793735  1.0000
  C   C27       1.0  0.1357310512665677  0.12578955235697006  0.5434236022276551  1.0000
  C   C28       1.0  0.8642659797734995  0.8742129692135734  0.45657481818923157  1.0000
  C   C29       1.0  0.6474919154822699  0.6665288521722061  0.3536047077113126  1.0000
  C   C30       1.0  0.3525041310833145  0.3334769917836482  0.6463935263167355  1.0000
  O   O1        1.0  0.817903943934006  0.5711672318728415  0.17744959189653292  1.0000
  O   O2        1.0  0.18208345562651107  0.4288365059640569  0.8225530709409838  1.0000
  O   O3        1.0  0.5316197147716792  0.4699798733707112  0.8639797359589921  1.0000
  O   O4        1.0  0.4683904243136896  0.5300147232719891  0.13602009717288874  1.0000
  O   O5        1.0  0.5765552110618088  0.7663853094505697  0.12167004964789636  1.0000
  O   O6        1.0  0.4234304273503896  0.23361957953409263  0.8783297332427082  1.0000
  O   O7        1.0  0.8490324578709832  0.747387984904982  0.8602290535579372  1.0000
  O   O8        1.0  0.15097352050222676  0.2526077239770999  0.13977766737151134  1.0000
  O   O9        1.0  0.5241216608045391  0.7054408494393059  0.8237963816908971  1.0000
  O   O10       1.0  0.4758849645566625  0.29455264704483847  0.17621015543019775  1.0000
  O   O11       1.0  0.8326971796747102  0.4289337527878914  0.9713505308343499  1.0000
  O   O12       1.0  0.16731139415725954  0.571061941964821  0.028652891769837718  1.0000
  O   O13       1.0  0.7335126469804295  0.9801213401576799  0.8682690678110488  1.0000
  O   O14       1.0  0.26648634276949673  0.019878958161832792  0.1317279817362191  1.0000
  O   O15       1.0  0.6534761268159244  0.0466246553245568  0.1177779876216363  1.0000
  O   O16       1.0  0.3465271355861078  0.9533745004482836  0.8822158709390491  1.0000
