data_image0
_chemical_formula_structural       Mn2H32C40S4N20O12
_chemical_formula_sum              "Mn2 H32 C40 S4 N20 O12"
_cell_length_a       7.494403398209736
_cell_length_b       11.578068047532991
_cell_length_c       14.400967336844774
_cell_angle_alpha    89.97749005514581
_cell_angle_beta     89.96362809130464
_cell_angle_gamma    103.3433676260696

_space_group_name_H-M_alt    "P 1"
_space_group_IT_number       1

loop_
  _space_group_symop_operation_xyz
  'x, y, z'

loop_
  _atom_site_type_symbol
  _atom_site_label
  _atom_site_symmetry_multiplicity
  _atom_site_fract_x
  _atom_site_fract_y
  _atom_site_fract_z
  _atom_site_occupancy
  Mn  Mn1       1.0  0.9999856776051173  5.157192575199902e-06  0.5000029444198193  1.0000
  Mn  Mn2       1.0  0.4999733715245966  0.49999460465935636  0.999998677220674  1.0000
  H   H1        1.0  0.5364533349597165  0.8683834015699217  0.4852616736722554  1.0000
  H   H2        1.0  0.9633206056963032  0.631539922673312  0.9852161697013673  1.0000
  H   H3        1.0  0.46358968753344937  0.1315978874568913  0.5147687234360276  1.0000
  H   H4        1.0  0.036661119836864466  0.36846730942164635  0.014792707149041504  1.0000
  H   H5        1.0  0.9666092285513629  0.8601729992069881  0.29750154933029194  1.0000
  H   H6        1.0  0.533610396405912  0.6398842562074736  0.797463891341586  1.0000
  H   H7        1.0  0.033406450644911004  0.1398101447062672  0.7025205192400392  1.0000
  H   H8        1.0  0.4663905543406273  0.36010604848780753  0.202524153047932  1.0000
  H   H9        1.0  0.6705598699998276  0.6721725643060168  0.2570119828700896  1.0000
  H   H10       1.0  0.8298050090901936  0.828010083602642  0.7570143995984895  1.0000
  H   H11       1.0  0.32942338991369974  0.32784622179269  0.7429767543738777  1.0000
  H   H12       1.0  0.17018582046298283  0.17198912896398613  0.24298822742309062  1.0000
  H   H13       1.0  0.1797060467525569  0.7732976756986575  0.3818960899208364  1.0000
  H   H14       1.0  0.3201845267468997  0.726752596902756  0.8818410415984702  1.0000
  H   H15       1.0  0.8203107145474674  0.22670679986428874  0.6180988936038646  1.0000
  H   H16       1.0  0.6797869971347338  0.2732448916681705  0.11816089449272482  1.0000
  H   H17       1.0  0.9239899141678121  0.5717847339813389  0.38935398664376925  1.0000
  H   H18       1.0  0.5759632242567249  0.9282386345891569  0.889406812022692  1.0000
  H   H19       1.0  0.07601917304053529  0.428220652114895  0.6106382204172223  1.0000
  H   H20       1.0  0.42400840215152863  0.0717517513504546  0.11057845961831701  1.0000
  H   H21       1.0  0.24815723821735952  0.28646823035273167  0.4693497893849496  1.0000
  H   H22       1.0  0.2516715534255026  0.21341964966848084  0.9694153261897754  1.0000
  H   H23       1.0  0.7518562064714587  0.7135344739817384  0.530654222139262  1.0000
  H   H24       1.0  0.7483381574191981  0.7865617372250355  0.03059632767686791  1.0000
  H   H25       1.0  0.8033356235827397  0.3593074974657497  0.3166392980430075  1.0000
  H   H26       1.0  0.6967732001300174  0.1407643601164708  0.8165570343603579  1.0000
  H   H27       1.0  0.1966747352860523  0.6406756667179182  0.6833668002543476  1.0000
  H   H28       1.0  0.30320115979574047  0.8592482397541797  0.1834060126080247  1.0000
  H   H29       1.0  0.7280441332110286  0.11956857391149361  0.3626349428231492  1.0000
  H   H30       1.0  0.7721272131480885  0.380402689017096  0.8625628617781232  1.0000
  H   H31       1.0  0.2719711490560072  0.8804207983070993  0.6373662928990314  1.0000
  H   H32       1.0  0.22784190243041993  0.6196028156548438  0.1374036591621746  1.0000
  C   C1        1.0  0.6138706074495843  0.8445597015873006  0.42755577207771017  1.0000
  C   C2        1.0  0.8860580062200398  0.6553653739350693  0.9274950668784498  1.0000
  C   C3        1.0  0.38615339692550066  0.15542431056408654  0.5724593509991536  1.0000
  C   C4        1.0  0.11391540026041011  0.3446409928843224  0.07251242268963412  1.0000
  C   C5        1.0  0.8325847636958768  0.8340142578941537  0.3297722144217374  1.0000
  C   C6        1.0  0.6675461855250331  0.6660130589098828  0.8297250274793059  1.0000
  C   C7        1.0  0.16744132362007488  0.16599018966373083  0.6702297115417013  1.0000
  C   C8        1.0  0.33243067502031914  0.33398441729082146  0.17027065814942693  1.0000
  C   C9        1.0  0.6882300440415958  0.7419467491769469  0.3083890962916983  1.0000
  C   C10       1.0  0.811922283410304  0.7581268971873953  0.8083464202310255  1.0000
  C   C11       1.0  0.3117708599195765  0.2580728736984952  0.6916093594692896  1.0000
  C   C12       1.0  0.18807392130720757  0.2418687455213373  0.19165898405255183  1.0000
  C   C13       1.0  0.3805200362515037  0.6653735253610762  0.3769648385145531  1.0000
  C   C14       1.0  0.1194233761741259  0.834684566162025  0.8769250269872517  1.0000
  C   C15       1.0  0.6194814158763008  0.3346292140276503  0.6230329254092055  1.0000
  C   C16       1.0  0.8805660747140394  0.16531820408398804  0.12307829410176652  1.0000
  C   C17       1.0  0.2067328965922925  0.6847909677908249  0.3820284222751483  1.0000
  C   C18       1.0  0.29316876507341766  0.8152351798931151  0.8819996638996914  1.0000
  C   C19       1.0  0.7932751790582695  0.31521530936412023  0.6179644792112668  1.0000
  C   C20       1.0  0.7068061626308192  0.18475696986854467  0.11799741168128013  1.0000
  C   C21       1.0  0.07053669205919993  0.5770540849186219  0.3876494634963308  1.0000
  C   C22       1.0  0.4293804035915941  0.9229635492741226  0.8876459211219867  1.0000
  C   C23       1.0  0.9294847553279054  0.4229485997495529  0.6123482971251024  1.0000
  C   C24       1.0  0.5706078117008317  0.0770321195198065  0.11234767971681951  1.0000
  C   C25       1.0  0.1448379479910358  0.4788974762110456  0.3873116255557889  1.0000
  C   C26       1.0  0.3551132062355649  0.021126956014157403  0.8872901560396829  1.0000
  C   C27       1.0  0.8551828995722415  0.5210998783700518  0.6126875247977283  1.0000
  C   C28       1.0  0.6448656794673724  0.9788687390566723  0.1127013631462717  1.0000
  C   C29       1.0  0.11654452699400507  0.2707902622459955  0.434656234862139  1.0000
  C   C30       1.0  0.3833962987089022  0.22917277327209012  0.9347037843393766  1.0000
  C   C31       1.0  0.8834749865309701  0.7292070954893716  0.5653443045074908  1.0000
  C   C32       1.0  0.6166020234826703  0.7708139807378203  0.0652946770108827  1.0000
  C   C33       1.0  0.8805054957780667  0.30743595240980437  0.35591814148092044  1.0000
  C   C34       1.0  0.6195561007343284  0.19258926729695963  0.8558916820959868  1.0000
  C   C35       1.0  0.11952927922936141  0.6925666945436079  0.6440830889288662  1.0000
  C   C36       1.0  0.3804187469056117  0.8074099959587713  0.14409150442394753  1.0000
  C   C37       1.0  0.8479497600407054  0.18920461302879227  0.37819130121760486  1.0000
  C   C38       1.0  0.6521318406633299  0.3107957328043937  0.8781828943581547  1.0000
  C   C39       1.0  0.15207144697220096  0.8107900712284105  0.6218182654636308  1.0000
  C   C40       1.0  0.3478559289890839  0.6892097168449354  0.12179473386769503  1.0000
  S   S1        1.0  0.3811810138109378  0.5157556573947916  0.37800274048728977  1.0000
  S   S2        1.0  0.11879521645119691  0.9842749525083221  0.8779446247526936  1.0000
  S   S3        1.0  0.6188183680220545  0.48425241740204666  0.6219991893285624  1.0000
  S   S4        1.0  0.881199530558021  0.0157313618676298  0.12204619574132641  1.0000
  N   N1        1.0  0.7853139031802883  0.8971792996900663  0.40410680190003495  1.0000
  N   N2        1.0  0.7146803698276541  0.602774810096804  0.9040284190682899  1.0000
  N   N3        1.0  0.21470740176467018  0.10280827971389073  0.5958923499128517  1.0000
  N   N4        1.0  0.285308344804001  0.3972332924030439  0.09597767889669481  1.0000
  N   N5        1.0  0.5494276989460544  0.7488928057899144  0.37082207991210947  1.0000
  N   N6        1.0  0.9505785005037451  0.7511117205026211  0.8707675955282925  1.0000
  N   N7        1.0  0.4505773820633222  0.2511125877941041  0.6291798493811032  1.0000
  N   N8        1.0  0.04941664905029341  0.2488883682836871  0.1292364194360758  1.0000
  N   N9        1.0  0.05256945218320652  0.35872109481502434  0.39207115393761444  1.0000
  N   N10       1.0  0.4473912782038453  0.1412794642179094  0.892069573212041  1.0000
  N   N11       1.0  0.9474453316489857  0.6412816088339783  0.6079245245906436  1.0000
  N   N12       1.0  0.5526141791019014  0.8587232671892836  0.10791985727546922  1.0000
  N   N13       1.0  0.9959417870070552  0.16731058097236226  0.4270836193442947  1.0000
  N   N14       1.0  0.5040859045675034  0.3326531544246053  0.927127082870868  1.0000
  N   N15       1.0  0.0040944021029716594  0.8326849493326949  0.5729301111104165  1.0000
  N   N16       1.0  0.4959019821183047  0.667341623502317  0.0728755453344263  1.0000
  N   N17       1.0  0.7079175592639759  0.9734104467174592  0.6564372458419926  1.0000
  N   N18       1.0  0.7918654408617201  0.5265276293723532  0.1564041572524033  1.0000
  N   N19       1.0  0.2921051278029267  0.0265993413778602  0.343564679845791  1.0000
  N   N20       1.0  0.20811063216380887  0.47347873039785066  0.8436026374773891  1.0000
  O   O1        1.0  0.7707447508092143  0.0329752808457968  0.5821628549239649  1.0000
  O   O2        1.0  0.7290732928104616  0.4669460192632683  0.08219069714623832  1.0000
  O   O3        1.0  0.22930298317979242  0.9670299942728776  0.4178439281101519  1.0000
  O   O4        1.0  0.2708753765823531  0.5330399776225933  0.9178202717061623  1.0000
  O   O5        1.0  0.7746840300423159  0.0115035095066673  0.7340824662162222  1.0000
  O   O6        1.0  0.7249909357733414  0.4885201262935723  0.23412015348751686  1.0000
  O   O7        1.0  0.22533971218805954  0.9885018325110692  0.2659208487907776  1.0000
  O   O8        1.0  0.27499812911880633  0.5114853014385261  0.7659088599688744  1.0000
  O   O9        1.0  0.5852347501911126  0.8798791263882608  0.6491866262547816  1.0000
  O   O10       1.0  0.9145774558569428  0.6200783019706648  0.1490675531378116  1.0000
  O   O11       1.0  0.4147683629334578  0.12015026461512689  0.3508111332085448  1.0000
  O   O12       1.0  0.08540533504985603  0.3799244889843437  0.8509288250721667  1.0000
