data_image0
_chemical_formula_structural       Ag4H40C24N24O8
_chemical_formula_sum              "Ag4 H40 C24 N24 O8"
_cell_length_a       11.15075733067916
_cell_length_b       11.364954734396157
_cell_length_c       11.688730939101239
_cell_angle_alpha    92.8991128679326
_cell_angle_beta     116.3986558306714
_cell_angle_gamma    118.46810090953942

_space_group_name_H-M_alt    "P 1"
_space_group_IT_number       1

loop_
  _space_group_symop_operation_xyz
  'x, y, z'

loop_
  _atom_site_type_symbol
  _atom_site_label
  _atom_site_symmetry_multiplicity
  _atom_site_fract_x
  _atom_site_fract_y
  _atom_site_fract_z
  _atom_site_occupancy
  Ag  Ag1       1.0  0.05403669047986163  0.37951930258056166  0.19281456744531061  1.0000
  Ag  Ag2       1.0  0.9459638159921653  0.6204816625245186  0.8071845345922954  1.0000
  Ag  Ag3       1.0  0.7540512339680134  0.5128391264373348  0.50670964659502  1.0000
  Ag  Ag4       1.0  0.24594872171107335  0.4871576255426077  0.49329241151255593  1.0000
  H   H1        1.0  0.2748814422137187  0.0024990516699717013  0.7289088016471085  1.0000
  H   H2        1.0  0.7251128558803398  0.9974934498029664  0.2710915913517552  1.0000
  H   H3        1.0  0.14648752569978998  0.05129527249411579  0.6285200398256167  1.0000
  H   H4        1.0  0.8535052823659728  0.9486962034092629  0.37148482973518077  1.0000
  H   H5        1.0  0.22817994849374665  0.866141807846823  0.5187550775371363  1.0000
  H   H6        1.0  0.77181788211346  0.13385808858487278  0.48124288715726493  1.0000
  H   H7        1.0  0.08924192087297911  0.9056120661723241  0.41706754515028177  1.0000
  H   H8        1.0  0.9107577377404042  0.09439210628134728  0.5829356827511775  1.0000
  H   H9        1.0  0.31431929456118707  0.16875430931359148  0.5321407525987496  1.0000
  H   H10       1.0  0.6856808163423337  0.8312456535327184  0.4678658345340452  1.0000
  H   H11       1.0  0.3263444613829947  0.06687180694792967  0.4247514882775718  1.0000
  H   H12       1.0  0.6736517936789566  0.9331333998771637  0.5752487210843426  1.0000
  H   H13       1.0  0.527443423486865  0.05161561003315999  0.627964756240914  1.0000
  H   H14       1.0  0.47255340110736915  0.9483811050027813  0.37203261855339786  1.0000
  H   H15       1.0  0.5229905748042041  0.15967824008938436  0.736822631217848  1.0000
  H   H16       1.0  0.4770093533458633  0.8403216831708773  0.2631787451711671  1.0000
  H   H17       1.0  0.9929390402244779  0.6169388973688255  0.4297451996876164  1.0000
  H   H18       1.0  0.0070680342726276955  0.38306425478450723  0.5702626593988357  1.0000
  H   H19       1.0  0.06496790865391935  0.5952661864025259  0.3271507799155415  1.0000
  H   H20       1.0  0.935040108008444  0.40473695607322197  0.6728557454176709  1.0000
  H   H21       1.0  0.4052615928058644  0.07700596425027578  0.22710298621551328  1.0000
  H   H22       1.0  0.5947367522755868  0.9229917829528983  0.7728907804741567  1.0000
  H   H23       1.0  0.524979216380295  0.2283398190952255  0.37080037978746105  1.0000
  H   H24       1.0  0.47502195686051585  0.7716590297697008  0.6291988665318939  1.0000
  H   H25       1.0  0.5856172700819897  0.0260443628651146  0.9549363811198861  1.0000
  H   H26       1.0  0.41438324058622567  0.9739618273014515  0.04505361350578598  1.0000
  H   H27       1.0  0.7789783953304763  0.17088353997601757  0.9959934313749557  1.0000
  H   H28       1.0  0.22102686414631006  0.8291300948507964  0.004000617308704895  1.0000
  H   H29       1.0  0.43110992927102376  0.3395636269292622  0.4372565918733642  1.0000
  H   H30       1.0  0.5688863170012581  0.660432046261853  0.5627430572723497  1.0000
  H   H31       1.0  0.2238426201654845  0.2734768292914182  0.33314044153547684  1.0000
  H   H32       1.0  0.7761515590228355  0.7265188236688188  0.666856664372922  1.0000
  H   H33       1.0  0.7178371302211628  0.7060039440020701  0.1892010995460396  1.0000
  H   H34       1.0  0.2821621586891324  0.2939949242180261  0.81080081427978  1.0000
  H   H35       1.0  0.797086341461906  0.6736283598177193  0.3431921737146553  1.0000
  H   H36       1.0  0.20291258067519638  0.3263683820467803  0.6568086127742632  1.0000
  H   H37       1.0  0.18407546877261885  0.5330099927980497  0.9244575138590323  1.0000
  H   H38       1.0  0.8159274715565631  0.4669931188935051  0.07554525875278985  1.0000
  H   H39       1.0  0.04478788807918467  0.4072819098820516  0.955739386776102  1.0000
  H   H40       1.0  0.9552130156249418  0.5927211881762914  0.04426171105570385  1.0000
  C   C1        1.0  0.8556312463946653  0.41836595788137027  0.2911900200392168  1.0000
  C   C2        1.0  0.1443752815056883  0.5816382062083107  0.7088116877052714  1.0000
  C   C3        1.0  0.704453736306007  0.20797996056076326  0.11411602774101227  1.0000
  C   C4        1.0  0.2955526147006893  0.792030519698855  0.8858808427371656  1.0000
  C   C5        1.0  0.6144801777365885  0.23384553487431248  0.2487248757817397  1.0000
  C   C6        1.0  0.3855212738305908  0.7661585984311826  0.7512730792413579  1.0000
  C   C7        1.0  0.2833423549302482  0.4820079811269338  0.09120833488248793  1.0000
  C   C8        1.0  0.7166548059782797  0.5179908536669231  0.908789298791433  1.0000
  C   C9        1.0  0.37397729041058614  0.41765223927323086  0.2807425989595842  1.0000
  C   C10       1.0  0.6260212678832174  0.5823455541136722  0.7192572469311571  1.0000
  C   C11       1.0  0.5492076204002386  0.5698172224073659  0.22538755028566024  1.0000
  C   C12       1.0  0.45079200189445595  0.4301805876926537  0.7746144356810447  1.0000
  C   C13       1.0  0.026725793137664596  0.8351950609638477  0.6186130467585328  1.0000
  C   C14       1.0  0.9732723649941447  0.16479742159179267  0.38138461659927714  1.0000
  C   C15       1.0  0.16864201439723553  0.9667397118182774  0.6275980071168377  1.0000
  C   C16       1.0  0.8313552654170239  0.0332559714882805  0.37240291364753386  1.0000
  C   C17       1.0  0.20064287015409119  0.9473939175172387  0.5161431739422895  1.0000
  C   C18       1.0  0.7993541096645771  0.05260600838506949  0.48385872987724116  1.0000
  C   C19       1.0  0.3355292524278966  0.08458848475402898  0.5225872384563601  1.0000
  C   C20       1.0  0.6644687638626433  0.9154146291417073  0.47741612372055897  1.0000
  C   C21       1.0  0.5060376309809911  0.1360175597920446  0.6361345444075752  1.0000
  C   C22       1.0  0.49396320887542794  0.8639823471929587  0.3638646297709016  1.0000
  C   C23       1.0  0.6427267958833127  0.2680825588318214  0.6393528768904702  1.0000
  C   C24       1.0  0.35727547474719046  0.7319194912218875  0.3606495647008714  1.0000
  N   N1        1.0  0.8443861801240543  0.338979993603118  0.18993296518804204  1.0000
  N   N2        1.0  0.15561496558773769  0.6610220265421275  0.8100655994127524  1.0000
  N   N3        1.0  0.5858656747369936  0.1524067930073301  0.13933992355263305  1.0000
  N   N4        1.0  0.41413100342248993  0.8475962447962214  0.8606534824326602  1.0000
  N   N5        1.0  0.7446440661509539  0.3670591107332938  0.3254941901088059  1.0000
  N   N6        1.0  0.25535814356172887  0.6329429261250681  0.6745065145679378  1.0000
  N   N7        1.0  0.9825741119778821  0.5525789151332672  0.3562637192416742  1.0000
  N   N8        1.0  0.017428152792838512  0.4474167791644631  0.6437383488721978  1.0000
  N   N9        1.0  0.5029822611378093  0.17726966519015253  0.2821781516073614  1.0000
  N   N10       1.0  0.4970250870921689  0.8227344628312493  0.7178187485547057  1.0000
  N   N11       1.0  0.6842073996933207  0.1314353863762675  0.008452950367349424  1.0000
  N   N12       1.0  0.31579570298637094  0.8685793391211405  0.9915454305964959  1.0000
  N   N13       1.0  0.24864723556421336  0.4129124696763922  0.17515077866642056  1.0000
  N   N14       1.0  0.7513496194889341  0.5870842519572219  0.8248474645851899  1.0000
  N   N15       1.0  0.43115618962109176  0.5620917736462799  0.11225647871351899  1.0000
  N   N16       1.0  0.5688450749964459  0.43790709501167396  0.8877453729777329  1.0000
  N   N17       1.0  0.5268005471428835  0.49736122342607536  0.3105671542394859  1.0000
  N   N18       1.0  0.47319734145224146  0.5026355083229817  0.6894323606307751  1.0000
  N   N19       1.0  0.3410621734981446  0.3400635854979796  0.35768776098669974  1.0000
  N   N20       1.0  0.6589343786295173  0.6599342008533852  0.6423112785813317  1.0000
  N   N21       1.0  0.7009791343223667  0.6552674772023721  0.2546233247906925  1.0000
  N   N22       1.0  0.2990198182736492  0.3447292712598013  0.7453783301555249  1.0000
  N   N23       1.0  0.16010032317844033  0.46831958965501735  0.9790322429648414  1.0000
  N   N24       1.0  0.8398995411239198  0.5316771425319047  0.020967209770844777  1.0000
  O   O1        1.0  0.9616414921086475  0.7166242022418314  0.529625277330247  1.0000
  O   O2        1.0  0.0383533233895506  0.2833693278805782  0.4703711044026094  1.0000
  O   O3        1.0  0.9816823806153109  0.8477177416361027  0.6971219318266506  1.0000
  O   O4        1.0  0.018314220710593087  0.15226734639863787  0.3028780977010399  1.0000
  O   O5        1.0  0.5999952809205736  0.32440664319119605  0.5486644459476651  1.0000
  O   O6        1.0  0.4000041890795813  0.6755911339204487  0.45133319773255215  1.0000
  O   O7        1.0  0.7868786763921206  0.314103466749735  0.7273018190222444  1.0000
  O   O8        1.0  0.2131252974790385  0.6858996550572626  0.27270222520823484  1.0000
