data_image0
_chemical_formula_structural       Zn6H24C28N16O20
_chemical_formula_sum              "Zn6 H24 C28 N16 O20"
_cell_length_a       8.017123764973222
_cell_length_b       9.407443095389514
_cell_length_c       15.526863888244389
_cell_angle_alpha    85.23992243005478
_cell_angle_beta     78.76495133376022
_cell_angle_gamma    64.77384789629957

_space_group_name_H-M_alt    "P 1"
_space_group_IT_number       1

loop_
  _space_group_symop_operation_xyz
  'x, y, z'

loop_
  _atom_site_type_symbol
  _atom_site_label
  _atom_site_symmetry_multiplicity
  _atom_site_fract_x
  _atom_site_fract_y
  _atom_site_fract_z
  _atom_site_occupancy
  Zn  Zn1       1.0  0.0608552845577961  0.8784214037795409  0.2499664599475793  1.0000
  Zn  Zn2       1.0  0.9391441534185604  0.12158032156481369  0.7500344368813786  1.0000
  Zn  Zn3       1.0  0.6066820672951677  0.6429075642252898  0.5032136284277728  1.0000
  Zn  Zn4       1.0  0.750444224850611  0.6429073819918971  0.9968540665543769  1.0000
  Zn  Zn5       1.0  0.39332049362189286  0.3570929859671851  0.49678766551696896  1.0000
  Zn  Zn6       1.0  0.24955454513766995  0.35709316831793814  0.0031456644240180063  1.0000
  H   H1        1.0  0.03598004213645827  0.7804598714983655  0.6034143561873222  1.0000
  H   H2        1.0  0.18326217357619606  0.7802394555680436  0.8966035760133124  1.0000
  H   H3        1.0  0.9640213597269992  0.21954302874478773  0.39658564811225727  1.0000
  H   H4        1.0  0.8167370955416403  0.21975756963243503  0.10339563391749348  1.0000
  H   H5        1.0  0.5061161137145831  0.903050157800891  0.368978263542715  1.0000
  H   H6        1.0  0.5908474315207005  0.9030633230830531  0.1310593901142454  1.0000
  H   H7        1.0  0.49388458790470235  0.0969515675043482  0.6310231542750274  1.0000
  H   H8        1.0  0.4091494711057777  0.09693840236369058  0.868941109579346  1.0000
  H   H9        1.0  0.3499460656950007  0.9660804022070696  0.2926640317761837  1.0000
  H   H10       1.0  0.6840334957407069  0.9661100091043338  0.20732722074815513  1.0000
  H   H11       1.0  0.6500545393989868  0.03391897306246249  0.7073375098557548  1.0000
  H   H12       1.0  0.3159641794631655  0.03389524138849251  0.7926736761396214  1.0000
  H   H13       1.0  0.13981891454728407  0.5587967762193105  0.3557563993719342  1.0000
  H   H14       1.0  0.30126868602550877  0.5582186991606691  0.1445558814750569  1.0000
  H   H15       1.0  0.8601805234290725  0.4412049491250514  0.6442444974570307  1.0000
  H   H16       1.0  0.6987281039476232  0.4417806762986772  0.8554460317170864  1.0000
  H   H17       1.0  0.9685599629647187  0.43139184949817644  0.4161892045510811  1.0000
  H   H18       1.0  0.6003689503964298  0.43136604002479834  0.08386912315823736  1.0000
  H   H19       1.0  0.031440070666491335  0.5686087007725433  0.5838110474160985  1.0000
  H   H20       1.0  0.3996265920618214  0.5686333354253605  0.9161309793607657  1.0000
  H   H21       1.0  0.8195137990314194  0.4749121677166742  0.3527287790804792  1.0000
  H   H22       1.0  0.7060956805457297  0.47481347566127147  0.1472984060054259  1.0000
  H   H23       1.0  0.18048889066703566  0.5250907324149028  0.6472698116813334  1.0000
  H   H24       1.0  0.2939047637537657  0.5251811994402259  0.8527008038861652  1.0000
  C   C1        1.0  0.7933390147426992  0.8106192377575214  0.5017903955058786  1.0000
  C   C2        1.0  0.39592622633326613  0.8102211282198227  0.9981224068253596  1.0000
  C   C3        1.0  0.2066635623024098  0.18938131238665082  0.49820960875449327  1.0000
  C   C4        1.0  0.6040761737893022  0.18977472180462482  0.0018765553790344991  1.0000
  C   C5        1.0  0.023360993326953412  0.875985708958794  0.5569547427711328  1.0000
  C   C6        1.0  0.10048892499698792  0.8758248340695333  0.9430623067765113  1.0000
  C   C7        1.0  0.976640312011206  0.12401484124864481  0.4430453853426428  1.0000
  C   C8        1.0  0.8995129921240731  0.1241745410159609  0.05693588679110921  1.0000
  C   C9        1.0  0.871496258819356  0.03873885702194001  0.4412935404009559  1.0000
  C   C10       1.0  0.0899661974133039  0.038644493753793106  0.05860294352846299  1.0000
  C   C11       1.0  0.1285032033490695  0.9612628682499603  0.5587054219014577  1.0000
  C   C12       1.0  0.9100357197077577  0.9613548813317007  0.9413952500391645  1.0000
  C   C13       1.0  0.8966229836914438  0.9109953682780018  0.49942080242559683  1.0000
  C   C14       1.0  0.19232395961803672  0.9107474525065271  0.000545237085759707  1.0000
  C   C15       1.0  0.10337958528963752  0.08900518189032171  0.5005798466769562  1.0000
  C   C16       1.0  0.8076809919824585  0.08924839736722129  0.9994528325696522  1.0000
  C   C17       1.0  0.36453356990607955  0.7686491339476972  0.3614882904043597  1.0000
  C   C18       1.0  0.866856245859026  0.7685366496303274  0.1385950935178499  1.0000
  C   C19       1.0  0.6354683149588851  0.23135024123440223  0.6385124825319934  1.0000
  C   C20       1.0  0.13313449128327193  0.23146977620419307  0.8614057778143618  1.0000
  C   C21       1.0  0.23023425332307554  0.611396436232525  0.3674836315575405  1.0000
  C   C22       1.0  0.15830565642547598  0.6110092181634956  0.13275750937047093  1.0000
  C   C23       1.0  0.769770778674669  0.3886017637252408  0.6325156039680381  1.0000
  C   C24       1.0  0.841693202024075  0.38899368220619834  0.8672427426359093  1.0000
  C   C25       1.0  0.7402404509742339  0.09117080754386112  0.37536257825320263  1.0000
  C   C26       1.0  0.16907051876113846  0.0908459895145413  0.12446166402678933  1.0000
  C   C27       1.0  0.25975712770433995  0.908832092913258  0.624638442448763  1.0000
  C   C28       1.0  0.8309295309981124  0.9091545607078687  0.8755372982560203  1.0000
  N   N1        1.0  0.4367384385549542  0.654956318620009  0.4199729590459853  1.0000
  N   N2        1.0  0.9083358918113473  0.6548632641902403  0.08010194269485993  1.0000
  N   N3        1.0  0.5632640258368157  0.3450418815367584  0.5800284587129454  1.0000
  N   N4        1.0  0.09166161453399727  0.3451372861587103  0.9198972672947578  1.0000
  N   N5        1.0  0.4109331740774636  0.889715782669569  0.3394195164658386  1.0000
  N   N6        1.0  0.6993892404508631  0.8896958729912825  0.1606093343358808  1.0000
  N   N7        1.0  0.5890674229524961  0.11028359262411411  0.6605826700082814  1.0000
  N   N8        1.0  0.30061511549478587  0.11030115195610793  0.8393893801813164  1.0000
  N   N9        1.0  0.2340321813134453  0.7440113309360967  0.3273723667286035  1.0000
  N   N10       1.0  0.02193193946187937  0.7437463416802077  0.17280659798745288  1.0000
  N   N11       1.0  0.765972255029446  0.2559880440953179  0.6726275136587603  1.0000
  N   N12       1.0  0.9780656392166949  0.25625655877690434  0.8271944227145127  1.0000
  N   N13       1.0  0.34830799345168384  0.5551964187563667  0.4231445851649553  1.0000
  N   N14       1.0  0.09644679335665529  0.5549050513268625  0.0770479626778595  1.0000
  N   N15       1.0  0.6516938914132738  0.4448029564257396  0.5768561877713978  1.0000
  N   N16       1.0  0.9035501012057882  0.44509667414403253  0.9229531818579063  1.0000
  O   O1        1.0  0.6664974183237291  0.8474838391817555  0.45554587445897005  1.0000
  O   O2        1.0  0.4861053733283994  0.8470539917470391  0.044278291090492396  1.0000
  O   O3        1.0  0.33350446654123544  0.15251553600035092  0.544454898477376  1.0000
  O   O4        1.0  0.513895079035116  0.15294068333030714  0.9557202739589242  1.0000
  O   O5        1.0  0.8337471981188503  0.6878540114310283  0.5506193923310008  1.0000
  O   O6        1.0  0.4780975734783227  0.6874374485218906  0.9493238118511088  1.0000
  O   O7        1.0  0.16625479133543306  0.3121477137626343  0.4493806119489747  1.0000
  O   O8        1.0  0.5219015829861676  0.3125572266911902  0.050676811578256264  1.0000
  O   O9        1.0  0.8587831951533997  0.5191738341090258  0.3950755139212348  1.0000
  O   O10       1.0  0.6225022656993673  0.5190953165507254  0.10497643138653963  1.0000
  O   O11       1.0  0.14121810212073177  0.4808267161225642  0.6049252590347223  1.0000
  O   O12       1.0  0.37749514412068647  0.480902883762518  0.8950229024172742  1.0000
  O   O13       1.0  0.5845051235740827  0.20676671478361192  0.3914466481913479  1.0000
  O   O14       1.0  0.20918045579805528  0.2064387210693184  0.10840446488256109  1.0000
  O   O15       1.0  0.4154943144022739  0.7932350105607427  0.608554248637617  1.0000
  O   O16       1.0  0.7908201896160492  0.7935606540794495  0.8915938525384705  1.0000
  O   O17       1.0  0.8009878322514439  0.02231360831256521  0.29985573264352183  1.0000
  O   O18       1.0  0.17737357117501767  0.021832275431016502  0.19992356366117295  1.0000
  O   O19       1.0  0.19900985101644872  0.9776916421561098  0.7001445194020733  1.0000
  O   O20       1.0  0.8226288531396193  0.9781635745209768  0.8000734640166769  1.0000
