data_image0
_chemical_formula_structural       Al4H23C25NO20
_chemical_formula_sum              "Al4 H23 C25 N1 O20"
_cell_length_a       6.666994347785597
_cell_length_b       13.443050748024762
_cell_length_c       16.896418026628602
_cell_angle_alpha    90.20490006137656
_cell_angle_beta     88.57490639946312
_cell_angle_gamma    88.70844683639146

_space_group_name_H-M_alt    "P 1"
_space_group_IT_number       1

loop_
  _space_group_symop_operation_xyz
  'x, y, z'

loop_
  _atom_site_type_symbol
  _atom_site_label
  _atom_site_symmetry_multiplicity
  _atom_site_fract_x
  _atom_site_fract_y
  _atom_site_fract_z
  _atom_site_occupancy
  Al  Al1       1.0  0.8908697011392732  0.5029258834965802  0.49357165982962675  1.0000
  Al  Al2       1.0  0.3876682482259994  0.5033245797045821  0.4949955090118153  1.0000
  Al  Al3       1.0  0.37378967898501264  0.004827124164805201  0.9997035845516039  1.0000
  Al  Al4       1.0  0.8734538925251484  0.003583080466029302  0.9986645568693012  1.0000
  H   H1        1.0  0.4165984783911085  0.17684180387873735  0.18290528710324597  1.0000
  H   H2        1.0  0.9595634274320588  0.1957359025745262  0.20904831063893436  1.0000
  H   H3        1.0  0.008651935647499403  0.30251819954911235  0.29896655687701224  1.0000
  H   H4        1.0  0.8291947490848058  0.30928160247533043  0.6903934677485142  1.0000
  H   H5        1.0  0.29017432911392393  0.30704011624550986  0.6996949322494503  1.0000
  H   H6        1.0  0.8268823777973041  0.20742419802221684  0.8111970434415172  1.0000
  H   H7        1.0  0.2868754076397692  0.1918848869089302  0.7907116467917847  1.0000
  H   H8        1.0  0.9265516999852607  0.8007177812424047  0.17758519114697446  1.0000
  H   H9        1.0  0.4699249642254983  0.8193771445488952  0.20927740895837846  1.0000
  H   H10       1.0  0.9408587134409885  0.6988415497060175  0.2991145319098508  1.0000
  H   H11       1.0  0.47924683361261344  0.6946219389501991  0.293685211541039  1.0000
  H   H12       1.0  0.9362417448582933  0.8133376072369031  0.795666337479169  1.0000
  H   H13       1.0  0.4795360870078725  0.7866831642944659  0.8122484777721584  1.0000
  H   H14       1.0  0.9309050772554031  0.6965757154887059  0.6833745796591871  1.0000
  H   H15       1.0  0.4696089618880137  0.7154704234244278  0.6931143775224344  1.0000
  H   H16       1.0  0.586865849210774  0.1916588028220829  0.2822221832157511  1.0000
  H   H17       1.0  0.6223960022454731  0.311001393629141  0.4151688204109193  1.0000
  H   H18       1.0  0.6772822658449299  0.18034526487880242  0.4089879221942426  1.0000
  H   H19       1.0  0.4335605647371709  0.22470169714144816  0.44135433098296073  1.0000
  H   H20       1.0  0.642625745803194  0.39199812271434104  0.5420423478414592  1.0000
  H   H21       1.0  0.13002764974280007  0.6262315271314448  0.5270284145407659  1.0000
  H   H22       1.0  0.6218486030432402  0.12686091712544112  0.9656839900273158  1.0000
  H   H23       1.0  0.13335486617173586  0.8786293527487317  0.9727302302838087  1.0000
  C   C1        1.0  0.6427738342270075  0.6144674512847316  0.38342767524482474  1.0000
  C   C2        1.0  0.6270625451974894  0.6268620501887553  0.6019088190344634  1.0000
  C   C3        1.0  0.13443539182942027  0.3887021300153961  0.6081403824891539  1.0000
  C   C4        1.0  0.15416628683791336  0.37748120672232927  0.3916289399430753  1.0000
  C   C5        1.0  0.2798319461454426  0.20148190726541773  0.21543288498192942  1.0000
  C   C6        1.0  0.10616823552353342  0.17810941891536192  0.18197640374286556  1.0000
  C   C7        1.0  0.3091289527812719  0.25161648066836756  0.2916384349923505  1.0000
  C   C8        1.0  0.153595529604253  0.3066148218946977  0.3269016742686689  1.0000
  C   C9        1.0  0.9742878218344019  0.28752374198074193  0.7145794662073188  1.0000
  C   C10       1.0  0.14003853744063827  0.3237103665876758  0.6784508358123562  1.0000
  C   C11       1.0  0.9726406894430683  0.2233846409424913  0.783591660542392  1.0000
  C   C12       1.0  0.13679518775457922  0.18138662158271762  0.816045617307495  1.0000
  C   C13       1.0  0.7850241334536677  0.7848203498712324  0.20867522157323756  1.0000
  C   C14       1.0  0.6168902119539937  0.8288939596016363  0.18087682672356215  1.0000
  C   C15       1.0  0.7930820874011957  0.719029740658094  0.2766517203965719  1.0000
  C   C16       1.0  0.6314570202194006  0.6797720527878327  0.3135253767369407  1.0000
  C   C17       1.0  0.7905021044029893  0.7855039480905859  0.7786722448784718  1.0000
  C   C18       1.0  0.629486149709585  0.8127976112273103  0.8243612655584017  1.0000
  C   C19       1.0  0.786501410809464  0.7220851843682965  0.7089868776094053  1.0000
  C   C20       1.0  0.6199971413214626  0.692843076361079  0.672246376382674  1.0000
  C   C21       1.0  0.63891521615907  0.8808173702193473  0.892884050626144  1.0000
  C   C22       1.0  0.6173579627885247  0.8928793528112279  0.11016299361754993  1.0000
  C   C23       1.0  0.1059899348895783  0.12013988662491219  0.10749035704584743  1.0000
  C   C24       1.0  0.1309043538784636  0.11811016547522261  0.8872422186868081  1.0000
  C   C25       1.0  0.5612065611899267  0.23838850519134516  0.4006810439443387  1.0000
  N   N1        1.0  0.49652685102892485  0.23284144777579743  0.3193311813895718  1.0000
  O   O1        1.0  0.4567414835105766  0.5987762625187826  0.5778759884588922  1.0000
  O   O2        1.0  0.8139442663271198  0.5863684545581834  0.40786737535496104  1.0000
  O   O3        1.0  0.9806674896329425  0.4055007787011888  0.4199733578192452  1.0000
  O   O4        1.0  0.7984998677116905  0.6034715520039808  0.5712139290020916  1.0000
  O   O5        1.0  0.9641620905633063  0.41628465879883686  0.5822205287342399  1.0000
  O   O6        1.0  0.47343104330784774  0.5919866135993886  0.41454974682785223  1.0000
  O   O7        1.0  0.6414603753905581  0.44324235440173243  0.501726139027781  1.0000
  O   O8        1.0  0.3062717866922355  0.4116518012393584  0.578967974150075  1.0000
  O   O9        1.0  0.32024245406118  0.41167255277187553  0.4157256905544032  1.0000
  O   O10       1.0  0.13620143059311832  0.5647443902205609  0.49687520685891684  1.0000
  O   O11       1.0  0.7840045259130335  0.908414471440942  0.07416026410537313  1.0000
  O   O12       1.0  0.4697346014903516  0.900972281405956  0.9275145062409538  1.0000
  O   O13       1.0  0.3025249209618154  0.08631995202426168  0.909757553070712  1.0000
  O   O14       1.0  0.44628292535244896  0.9275457544019685  0.0897778012684753  1.0000
  O   O15       1.0  0.2732730877469081  0.10471678382572241  0.07074244634152653  1.0000
  O   O16       1.0  0.8085811395139048  0.9141388474328593  0.912313045731516  1.0000
  O   O17       1.0  0.6217835221580331  0.0654196917067011  0.9954789022277599  1.0000
  O   O18       1.0  0.9365820854258261  0.08889301513183061  0.08569797765220243  1.0000
  O   O19       1.0  0.9614821133311866  0.10057904550696863  0.9206544994363741  1.0000
  O   O20       1.0  0.12667663077414199  0.9432441303155981  0.9983743003251607  1.0000
