data_image0
_chemical_formula_structural       Ag12H20C48N16O32
_chemical_formula_sum              "Ag12 H20 C48 N16 O32"
_cell_length_a       10.158735247
_cell_length_b       11.3224297146681
_cell_length_c       13.348
_cell_angle_alpha    107.98684641955862
_cell_angle_beta     90.0
_cell_angle_gamma    90.0

_space_group_name_H-M_alt    "P 1"
_space_group_IT_number       1

loop_
  _space_group_symop_operation_xyz
  'x, y, z'

loop_
  _atom_site_type_symbol
  _atom_site_label
  _atom_site_symmetry_multiplicity
  _atom_site_fract_x
  _atom_site_fract_y
  _atom_site_fract_z
  _atom_site_occupancy
  Ag  Ag1       1.0  0.5436473995747589  0.0839719404745765  0.3591905437556377  1.0000
  Ag  Ag2       1.0  0.043649134387173695  0.4160265035419854  0.14080871154371977  1.0000
  Ag  Ag3       1.0  0.4563540526729497  0.9160295904834896  0.6408099321783425  1.0000
  Ag  Ag4       1.0  0.956352317860535  0.5839713130761339  0.8591907914627724  1.0000
  Ag  Ag5       1.0  0.983933507170768  0.6662931580268463  0.5062080273719118  1.0000
  Ag  Ag6       1.0  0.4839342576086736  0.833706816947789  0.993793202213233  1.0000
  Ag  Ag7       1.0  0.0160649919534208  0.33370651576125  0.49379271127422436  1.0000
  Ag  Ag8       1.0  0.5160642415155152  0.16629285684030043  0.006206787256999698  1.0000
  Ag  Ag9       1.0  0.9978358283324198  0.1056980434413362  0.8302417935184393  1.0000
  Ag  Ag10      1.0  0.4978346100213145  0.3943022577452098  0.6697579482446585  1.0000
  Ag  Ag11      1.0  0.0021626707917689995  0.894303487516737  0.16975718406372658  1.0000
  Ag  Ag12      1.0  0.5021629047283724  0.6056992732128635  0.3302425276893217  1.0000
  H   H1        1.0  0.7614402592374176  0.29261012994256674  0.5848724693163659  1.0000
  H   H2        1.0  0.2614400253008213  0.207392028413949  0.91512850808639  1.0000
  H   H3        1.0  0.23855823988677116  0.7073914010154994  0.4151287557935247  1.0000
  H   H4        1.0  0.7385604425723855  0.7926076453741475  0.08487148138384272  1.0000
  H   H5        1.0  0.630196559349315  0.8079720125873777  0.2696429243468613  1.0000
  H   H6        1.0  0.1301943566637007  0.6920279623872574  0.23035830523829048  1.0000
  H   H7        1.0  0.3698039085238918  0.19202858978570703  0.7303573083552449  1.0000
  H   H8        1.0  0.8698031580859861  0.30797078281584334  0.7696429393518824  1.0000
  H   H9        1.0  0.8018133952654621  0.6683406879256211  0.3067570896441012  1.0000
  H   H10       1.0  0.30180922383082986  0.8316602156340026  0.1932428848211103  1.0000
  H   H11       1.0  0.1981851038587266  0.3316589858624753  0.693242150650228  1.0000
  H   H12       1.0  0.6981853377953299  0.16834038673908222  0.8067565987050926  1.0000
  H   H13       1.0  0.6905820291036447  0.3501071838212084  0.4181313756563155  1.0000
  H   H14       1.0  0.19058081079253947  0.14989404595031894  0.08186860933866312  1.0000
  H   H15       1.0  0.3094194231440639  0.6498934185518763  0.5818688570457908  1.0000
  H   H16       1.0  0.8094196570806672  0.8501065564227589  0.9181316233634432  1.0000
  H   H17       1.0  0.8466231071963292  0.4737854183872728  0.3446995895537697  1.0000
  H   H18       1.0  0.3466228732597258  0.0262148827992661  0.1553001522093282  1.0000
  H   H19       1.0  0.1533773606768776  0.5262142554008236  0.6552996507405524  1.0000
  H   H20       1.0  0.6533775946134739  0.9737857195738117  0.8447008296686888  1.0000
  C   C1        1.0  0.9099922160812284  0.9446680801017209  0.6224843561980649  1.0000
  C   C2        1.0  0.4099929665191339  0.5553337520428911  0.8775158614990205  1.0000
  C   C3        1.0  0.0900072674174694  0.055332522271363906  0.37751437815223443  1.0000
  C   C4        1.0  0.5900075013540729  0.4446677789151821  0.12248461443495977  1.0000
  C   C5        1.0  0.8323083331162663  0.9083734072565406  0.520500619631015  1.0000
  C   C6        1.0  0.332307114805154  0.5916284248880643  0.9794988488901595  1.0000
  C   C7        1.0  0.1676911503824314  0.0916262665315486  0.4794986206633069  1.0000
  C   C8        1.0  0.6676933530680457  0.4083731060700019  0.0205008778679172  1.0000
  C   C9        1.0  0.7407437852288012  0.9884313620062458  0.4968679188628967  1.0000
  C   C10       1.0  0.24074355129219774  0.5115695415533779  0.0031313064264039845  1.0000
  C   C11       1.0  0.2592556982698966  0.0115692403668319  0.5031308154874025  1.0000
  C   C12       1.0  0.759256916581009  0.4884292036497301  0.9968699381637619  1.0000
  C   C13       1.0  0.7136144238172617  0.1186527326104283  0.5678290081147139  1.0000
  C   C14       1.0  0.21361320550614946  0.3813494257460945  0.9321727184639456  1.0000
  C   C15       1.0  0.2863860440559449  0.8813487983476449  0.4321722169951769  1.0000
  C   C16       1.0  0.78638726236705  0.6186502480420017  0.06782876935810124  1.0000
  C   C17       1.0  0.6885798113565115  0.837468514734617  0.34134655970638755  1.0000
  C   C18       1.0  0.18857957741990813  0.6625333174099951  0.158652908814787  1.0000
  C   C19       1.0  0.3114186877676772  0.1625330162234562  0.658653167051682  1.0000
  C   C20       1.0  0.8114199060787896  0.3374654277931128  0.8413468374235719  1.0000
  C   C21       1.0  0.7827687016795009  0.759218514956757  0.3629910409040703  1.0000
  C   C22       1.0  0.2827655146193777  0.7407833171878551  0.13700917679300767  1.0000
  C   C23       1.0  0.21723078181918953  0.24078208741632784  0.6370084426221254  1.0000
  C   C24       1.0  0.7172320001303019  0.2592182137702181  0.8629920483168829  1.0000
  C   C25       1.0  0.8923207249324604  0.1592161106459358  0.03693702484814311  1.0000
  C   C26       1.0  0.3923204909958642  0.34078326195562175  0.4630624736830811  1.0000
  C   C27       1.0  0.1076807273152482  0.8407826345571722  0.9630634705661194  1.0000
  C   C28       1.0  0.6076809612518517  0.659217340417463  0.5369377590190254  1.0000
  C   C29       1.0  0.8391802515492798  0.21407598315834525  0.1469002680395306  1.0000
  C   C30       1.0  0.3391810019871855  0.2859233894432053  0.3530992304916936  1.0000
  C   C31       1.0  0.16082021632391988  0.7859218334597671  0.853099984142858  1.0000
  C   C32       1.0  0.6608204502605233  0.7140772129298796  0.6469010022104128  1.0000
  C   C33       1.0  0.7519371077473238  0.1457219135987557  0.18889084194882594  1.0000
  C   C34       1.0  0.2519388425597384  0.3542774590028018  0.3111086565824053  1.0000
  C   C35       1.0  0.24806237575136686  0.8542777601893405  0.8111091475214066  1.0000
  C   C36       1.0  0.7480626096879702  0.6457222147852947  0.6888913328878344  1.0000
  C   C37       1.0  0.7049716156462438  0.015950304340727  0.1303586951252598  1.0000
  C   C38       1.0  0.2049723660841494  0.4840490682608305  0.36964155258186787  1.0000
  C   C39       1.0  0.29502589910344307  0.984048440862381  0.8696410511130991  1.0000
  C   C40       1.0  0.7950281017890575  0.5159515341122543  0.6303586801202384  1.0000
  C   C41       1.0  0.7349202256456806  0.3099663119552858  0.3409193156106696  1.0000
  C   C42       1.0  0.2349199917090843  0.19003306064626463  0.1590801829205617  1.0000
  C   C43       1.0  0.2650812266020282  0.6900333618328035  0.6590806738595631  1.0000
  C   C44       1.0  0.7650804761641226  0.8099666131418319  0.8409205557255816  1.0000
  C   C45       1.0  0.8209289638159234  0.3789221045871756  0.2994976535282773  1.0000
  C   C46       1.0  0.32092872987932  0.12107819659936331  0.20050133905891696  1.0000
  C   C47       1.0  0.1790724884317854  0.6210784977859021  0.7005010808220149  1.0000
  C   C48       1.0  0.6790727223683888  0.878921477188733  0.7994986504113228  1.0000
  N   N1        1.0  0.6677297749248083  0.9518850426292929  0.4078868909710777  1.0000
  N   N2        1.0  0.1677275722391869  0.5481149323453423  0.09211284026225287  1.0000
  N   N3        1.0  0.3322706929483985  0.0481146311588034  0.5921123493232443  1.0000
  N   N4        1.0  0.8322719112595037  0.4518847414427541  0.9078878983838834  1.0000
  N   N5        1.0  0.8518836045614719  0.7939698795516961  0.45261218027722794  1.0000
  N   N6        1.0  0.3518814018758505  0.7060319525929089  0.04738803741985012  1.0000
  N   N7        1.0  0.14811587893722586  0.20603072282138163  0.5473873032489678  1.0000
  N   N8        1.0  0.6481161128738293  0.2939686497801688  0.9526129444581598  1.0000
  N   N9        1.0  0.701100070710403  0.19394518920115902  0.2858136392125132  1.0000
  N   N10       1.0  0.2010998367738068  0.3060560405703683  0.214187094958362  1.0000
  N   N11       1.0  0.2989003971627966  0.8060544845869302  0.7141863502577195  1.0000
  N   N12       1.0  0.7989006310994  0.6939445618027165  0.7858138869196479  1.0000
  N   N13       1.0  0.8728517659340085  0.3310071192008195  0.2030848870411219  1.0000
  N   N14       1.0  0.372851531997405  0.1689931819857193  0.296914854721976  1.0000
  N   N15       1.0  0.1271487019391984  0.6689916260022813  0.7969148591972368  1.0000
  N   N16       1.0  0.6271489358757947  0.831006491802377  0.7030851347482566  1.0000
  O   O1        1.0  0.9720442318758273  0.8628866716140849  0.6487814412035178  1.0000
  O   O2        1.0  0.4720449823137329  0.6371151605305201  0.8512187764935601  1.0000
  O   O3        1.0  0.02795525162287049  0.1371130021740044  0.3512177990908042  1.0000
  O   O4        1.0  0.5279554855594739  0.3628872990125345  0.14878119349639007  1.0000
  O   O5        1.0  0.9027964384354235  0.06004880542595711  0.6748697708195904  1.0000
  O   O6        1.0  0.4027952201243181  0.43995242434557014  0.8251294649994777  1.0000
  O   O7        1.0  0.0972059981867943  0.9399517969471205  0.32512821435479816  1.0000
  O   O8        1.0  0.5972062321233977  0.5600491066125031  0.17487101093450255  1.0000
  O   O9        1.0  0.6281648103669681  0.1402674053786086  0.6365106445207471  1.0000
  O   O10       1.0  0.1281635920558628  0.3597319672229419  0.8634888540104838  1.0000
  O   O11       1.0  0.37183664188074056  0.8597304112395109  0.36348885848573786  1.0000
  O   O12       1.0  0.8718368758173439  0.6402677065651474  0.13651263381156298  1.0000
  O   O13       1.0  0.7832323420722744  0.2018093754654444  0.539786965217111  1.0000
  O   O14       1.0  0.28323013938666003  0.2981927828910713  0.9602140121856451  1.0000
  O   O15       1.0  0.2167671414264163  0.7981912269076332  0.46021326748499547  1.0000
  O   O16       1.0  0.7167703284865397  0.701806890897025  0.039785977284587756  1.0000
  O   O17       1.0  0.9787173066584387  0.22153437778283092  0.004783633750030001  1.0000
  O   O18       1.0  0.4787170727218352  0.278465923403715  0.4952161080130749  1.0000
  O   O19       1.0  0.0212851299637791  0.7784625102503001  0.9952156260245815  1.0000
  O   O20       1.0  0.5212843795258735  0.7215346789693697  0.5047848738649421  1.0000
  O   O21       1.0  0.8452971547354693  0.056835901367108504  0.9827980416976915  1.0000
  O   O22       1.0  0.3452959364243568  0.44316347123444194  0.5172014568335328  1.0000
  O   O23       1.0  0.1547023287632285  0.9431637724209878  0.01720119859663772  1.0000
  O   O24       1.0  0.6547045314488429  0.5568362025536473  0.4827992818126035  1.0000
  O   O25       1.0  0.5968794197870864  0.0076942552114616  0.0807642955426147  1.0000
  O   O26       1.0  0.09688115459950099  0.492305117390096  0.4192374505163272  1.0000
  O   O27       1.0  0.4031200637116115  0.9923054185766349  0.9192371922794323  1.0000
  O   O28       1.0  0.9031202976482077  0.5076945563980005  0.580763288129809  1.0000
  O   O29       1.0  0.7681999589766448  0.9255624439714013  0.14439025895578786  1.0000
  O   O30       1.0  0.26820169378905934  0.5744375310032268  0.35561022145345333  1.0000
  O   O31       1.0  0.231797555773035  0.07443815840167642  0.855610722922222  1.0000
  O   O32       1.0  0.7317977897096384  0.42556307136985083  0.6443900112486531  1.0000
