data_image0
_chemical_formula_structural       Y4H48C36O36
_chemical_formula_sum              "Y4 H48 C36 O36"
_cell_length_a       6.633109992864597
_cell_length_b       11.291295337095814
_cell_length_c       19.65518336964365
_cell_angle_alpha    106.69107188888908
_cell_angle_beta     89.59697264978
_cell_angle_gamma    89.99336880037863

_space_group_name_H-M_alt    "P 1"
_space_group_IT_number       1

loop_
  _space_group_symop_operation_xyz
  'x, y, z'

loop_
  _atom_site_type_symbol
  _atom_site_label
  _atom_site_symmetry_multiplicity
  _atom_site_fract_x
  _atom_site_fract_y
  _atom_site_fract_z
  _atom_site_occupancy
  Y   Y1        1.0  0.1994629333271476  0.5818230888299283  0.7428970442748764  1.0000
  Y   Y2        1.0  0.30047446863584776  0.8389835689304873  0.2570752702938108  1.0000
  Y   Y3        1.0  0.8005343608584213  0.418178801460698  0.2571029609988571  1.0000
  Y   Y4        1.0  0.6995184359643575  0.16101707226084724  0.7429207089621883  1.0000
  H   H1        1.0  0.1734998387806286  0.5046205252617993  0.47340006153980607  1.0000
  H   H2        1.0  0.32706714831833483  0.031085641224386416  0.5266636376322111  1.0000
  H   H3        1.0  0.8264990118959972  0.49537803772160055  0.5265993826733535  1.0000
  H   H4        1.0  0.6729361152030577  0.9689177952122136  0.47333790539497034  1.0000
  H   H5        1.0  0.38804485584223164  0.2536692283435044  0.45145860638894664  1.0000
  H   H6        1.0  0.11189648376229398  0.8021311842219773  0.548394439572462  1.0000
  H   H7        1.0  0.6119434566953501  0.7463254257377797  0.5485415770106314  1.0000
  H   H8        1.0  0.8880994213308073  0.19786843029471163  0.45160235701902707  1.0000
  H   H9        1.0  0.3633881720145169  0.49740886657347244  0.5770434495321197  1.0000
  H   H10       1.0  0.13699517657779128  0.9206438447509129  0.42296641652613687  1.0000
  H   H11       1.0  0.6366107217522271  0.5025830045305639  0.4229566976096493  1.0000
  H   H12       1.0  0.8630125691874826  0.07936552907844428  0.5770345829298122  1.0000
  H   H13       1.0  0.5326719767472028  0.2380942156961153  0.566495931897073  1.0000
  H   H14       1.0  0.9672165236570792  0.6720116907791719  0.43352545026158396  1.0000
  H   H15       1.0  0.46731939977276243  0.7618971172810873  0.43350369306013903  1.0000
  H   H16       1.0  0.032783583602515896  0.32800018759018457  0.5664780815710628  1.0000
  H   H17       1.0  0.5210453363978118  0.6889649515453512  0.9723207879171767  1.0000
  H   H18       1.0  0.9790246879349171  0.7166104095359528  0.027714015140830387  1.0000
  H   H19       1.0  0.4789657679169608  0.31103581380092743  0.02767156218493481  1.0000
  H   H20       1.0  0.020968147266181292  0.2833891677158178  0.9722846065004305  1.0000
  H   H21       1.0  0.4075916478084309  0.4118416464451754  0.9310608985069281  1.0000
  H   H22       1.0  0.09242747065830768  0.48066880929280126  0.06892368061551929  1.0000
  H   H23       1.0  0.5924163057750748  0.5881611100807332  0.0689353130191179  1.0000
  H   H24       1.0  0.9075699505062288  0.519328492138939  0.9310735731024806  1.0000
  H   H25       1.0  0.06581927643959772  0.8583946668567677  0.8015398588455724  1.0000
  H   H26       1.0  0.4341023066538554  0.056994801225925984  0.19829193670313572  1.0000
  H   H27       1.0  0.9341871116936318  0.1416039271423273  0.1984595984586051  1.0000
  H   H28       1.0  0.5658920474787125  0.9430016898448697  0.8017072935674038  1.0000
  H   H29       1.0  0.9097681850622621  0.7742029394920139  0.7464045237954693  1.0000
  H   H30       1.0  0.5901187851466716  0.027814918091081664  0.2533955396710539  1.0000
  H   H31       1.0  0.09023208940639191  0.2257984312351056  0.253596807907293  1.0000
  H   H32       1.0  0.4098786013183117  0.9721818513708769  0.7466030352395805  1.0000
  H   H33       1.0  0.3106552135199506  0.7915005004711304  0.6770613673943231  1.0000
  H   H34       1.0  0.18953450303268232  0.11453588037939963  0.3230071844828544  1.0000
  H   H35       1.0  0.6893436545064519  0.20849832849716424  0.3229374162225227  1.0000
  H   H36       1.0  0.8104598713096963  0.8854601035802503  0.6769915366941391  1.0000
  H   H37       1.0  0.5112842216324227  0.7159093711765578  0.6797515570823123  1.0000
  H   H38       1.0  0.9889137296003979  0.03625623544028395  0.3202639746005431  1.0000
  H   H39       1.0  0.488717641166808  0.2840899773091508  0.320247740864481  1.0000
  H   H40       1.0  0.011079180530330697  0.9637379549979243  0.6797338772739252  1.0000
  H   H41       1.0  0.7559932646448287  0.5430828178057324  0.7630726473227937  1.0000
  H   H42       1.0  0.7439300157447521  0.7799424959382293  0.23687255613568678  1.0000
  H   H43       1.0  0.24400866450392303  0.4569134631544998  0.236925426348904  1.0000
  H   H44       1.0  0.2560687771624687  0.220056815282561  0.7631285668608712  1.0000
  H   H45       1.0  0.8658784559134391  0.46796457057212837  0.8072281653573299  1.0000
  H   H46       1.0  0.6338888524956374  0.66071025254476  0.19274412747974887  1.0000
  H   H47       1.0  0.13412345302550213  0.5320322174992427  0.1927704174079139  1.0000
  H   H48       1.0  0.3661160165165711  0.33928652307424295  0.8072562908080769  1.0000
  C   C1        1.0  0.15226705547976854  0.36351145612505315  0.3715001874497048  1.0000
  C   C2        1.0  0.3477706728960399  0.9919535684844121  0.6285574478713443  1.0000
  C   C3        1.0  0.8477272727229065  0.636487088248934  0.6284992489088381  1.0000
  C   C4        1.0  0.6522281373609572  0.008046008721265624  0.3714430145289001  1.0000
  C   C5        1.0  0.2245024499219141  0.4114742464362422  0.4451653045770101  1.0000
  C   C6        1.0  0.27588348147789793  0.966135444129172  0.5548407695760247  1.0000
  C   C7        1.0  0.7754933684223033  0.5885240381559953  0.5548347949960544  1.0000
  C   C8        1.0  0.7241168132005669  0.033865419486815526  0.4451600530331987  1.0000
  C   C9        1.0  0.34052106092683937  0.3481477465112661  0.479094898711665  1.0000
  C   C10       1.0  0.1596931719531511  0.8690532519322999  0.5208486590962664  1.0000
  C   C11       1.0  0.6594732152264983  0.6518499999080517  0.520906519435826  1.0000
  C   C12       1.0  0.8403086591961114  0.1309496960486597  0.4791505419329951  1.0000
  C   C13       1.0  0.40146111373923793  0.4004881956270053  0.5516708098530287  1.0000
  C   C14       1.0  0.09871915446323949  0.849070045561824  0.4482927935753054  1.0000
  C   C15       1.0  0.5985333240926209  0.5995054939032015  0.4483265355461015  1.0000
  C   C16       1.0  0.9012871877198309  0.15093601341266805  0.5517058092974808  1.0000
  C   C17       1.0  0.49691278121790117  0.3355744148043768  0.5897542668650075  1.0000
  C   C18       1.0  0.0029665851440868  0.7461943123411601  0.4102327955455393  1.0000
  C   C19       1.0  0.5030847320364913  0.664412861237622  0.41024312610284147  1.0000
  C   C20       1.0  0.9970306918812499  0.2538122165256452  0.5897663007115668  1.0000
  C   C21       1.0  0.5566703649182188  0.38810455889448986  0.6648877623815537  1.0000
  C   C22       1.0  0.9432146069317751  0.7234437282519792  0.3350873931234943  1.0000
  C   C23       1.0  0.4433300479695531  0.611889130589624  0.3351114237765742  1.0000
  C   C24       1.0  0.05678418902503778  0.2765597144338443  0.6649123117628974  1.0000
  C   C25       1.0  0.3788967444171191  0.5940031099048325  0.8710519443456661  1.0000
  C   C26       1.0  0.12101379204587197  0.7228004796434107  0.12898835245868406  1.0000
  C   C27       1.0  0.6211142674286876  0.4059978717090543  0.1289434057324712  1.0000
  C   C28       1.0  0.8789821244873793  0.2771960424891659  0.8710090501438827  1.0000
  C   C29       1.0  0.4654529448105437  0.5992624633041785  0.9405715458249588  1.0000
  C   C30       1.0  0.034544725218467  0.6586091944821034  0.05944992132980076  1.0000
  C   C31       1.0  0.5345505699983022  0.4007374730717359  0.059422772975068504  1.0000
  C   C32       1.0  0.9654541515776104  0.3413922197591716  0.9405477471824213  1.0000
  C   C33       1.0  0.4654978176280622  0.4990744537080754  0.9653129604008724  1.0000
  C   C34       1.0  0.034480966350798795  0.5336851051756284  0.034687311049872015  1.0000
  C   C35       1.0  0.5345086631636847  0.5009288285844845  0.03468192731433821  1.0000
  C   C36       1.0  0.9655209831973224  0.4663155732345316  0.9653086839153531  1.0000
  O   O1        1.0  0.23497849218345124  0.26640592217875536  0.3288043046619151  1.0000
  O   O2        1.0  0.2649683896496954  0.9376071115795027  0.6712565557820653  1.0000
  O   O3        1.0  0.7650174070000232  0.7335903339689266  0.6711937585369725  1.0000
  O   O4        1.0  0.7350289506755845  0.062392218296793124  0.3287427343101186  1.0000
  O   O5        1.0  0.009333768127220298  0.42270977013156846  0.3537126976116411  1.0000
  O   O6        1.0  0.49054162470251583  0.06904133272476543  0.64638802457619  1.0000
  O   O7        1.0  0.9906666016704265  0.5772906112319233  0.646285785617863  1.0000
  O   O8        1.0  0.5094586122065436  0.9309602791286122  0.3536144768164391  1.0000
  O   O9        1.0  0.517285374864926  0.5016452040474633  0.697985802444208  1.0000
  O   O10       1.0  0.9824381329352718  0.8038020831416262  0.3019337032855631  1.0000
  O   O11       1.0  0.4827180907546236  0.4983531612777483  0.302010649647535  1.0000
  O   O12       1.0  0.017554754125605112  0.19619338750374726  0.6980645061796834  1.0000
  O   O13       1.0  0.150677338325373  0.37566291623419806  0.6931338410088657  1.0000
  O   O14       1.0  0.34913637419706595  0.6826222773562234  0.3068605632541193  1.0000
  O   O15       1.0  0.8493229418633489  0.6243369083008686  0.30686779369943906  1.0000
  O   O16       1.0  0.6508609340991357  0.3173708428931972  0.6931417691464006  1.0000
  O   O17       1.0  0.3000336005321386  0.4922238092406485  0.8326107119575211  1.0000
  O   O18       1.0  0.20012412939747293  0.6595036598681362  0.1674113626074458  1.0000
  O   O19       1.0  0.6999683778059095  0.5077740427702934  0.16738522842246786  1.0000
  O   O20       1.0  0.7998687460337025  0.34048999860029006  0.8325878104596568  1.0000
  O   O21       1.0  0.3740720725281435  0.6901248553428088  0.8489779523012685  1.0000
  O   O22       1.0  0.1254948463489356  0.8410099618504105  0.1510897593558127  1.0000
  O   O23       1.0  0.6259435483509679  0.3098725702438827  0.1510156722628508  1.0000
  O   O24       1.0  0.8745085615012086  0.15898915171219136  0.8489083715193289  1.0000
  O   O25       1.0  0.3623321861829325  0.7154726277877898  0.6864362124691894  1.0000
  O   O26       1.0  0.137891039456207  0.0291477588339859  0.3136350783712274  1.0000
  O   O27       1.0  0.6376651974220096  0.2845249147701949  0.3135622109386702  1.0000
  O   O28       1.0  0.8621124578133105  0.9708470069959673  0.6863614706380474  1.0000
  O   O29       1.0  0.014066006530903487  0.7749311768290994  0.783039832314998  1.0000
  O   O30       1.0  0.4856182529398652  0.9920056134986053  0.2168287792054002  1.0000
  O   O31       1.0  0.9859373147599017  0.22507151137011758  0.21696003192877814  1.0000
  O   O32       1.0  0.5143761618221417  0.00798935623877368  0.7831689237845083  1.0000
  O   O33       1.0  0.8801531217223157  0.5428490441756111  0.7902996828927015  1.0000
  O   O34       1.0  0.6197399683756616  0.7525347883167155  0.20965111048775498  1.0000
  O   O35       1.0  0.119853254781205  0.45714773764653666  0.20970073801333197  1.0000
  O   O36       1.0  0.38026186830412456  0.24746170891112468  0.7903499631599757  1.0000
