data_image0
_chemical_formula_structural       Cu4H8C16N8O8
_chemical_formula_sum              "Cu4 H8 C16 N8 O8"
_cell_length_a       4.829689458965178
_cell_length_b       8.18986937768812
_cell_length_c       12.984251824616186
_cell_angle_alpha    101.89410937020021
_cell_angle_beta     90.07060931956804
_cell_angle_gamma    107.15986950643598

_space_group_name_H-M_alt    "P 1"
_space_group_IT_number       1

loop_
  _space_group_symop_operation_xyz
  'x, y, z'

loop_
  _atom_site_type_symbol
  _atom_site_label
  _atom_site_symmetry_multiplicity
  _atom_site_fract_x
  _atom_site_fract_y
  _atom_site_fract_z
  _atom_site_occupancy
  Cu  Cu1       1.0  0.5728910713640402  0.4783888021317821  0.8535119765644836  1.0000
  Cu  Cu2       1.0  0.09337094561579565  0.520352021954011  0.6464900917115911  1.0000
  Cu  Cu3       1.0  0.42712239877808855  0.5216076510340457  0.1464859104324603  1.0000
  Cu  Cu4       1.0  0.9066328260099326  0.4796457385005014  0.3535079618602097  1.0000
  H   H1        1.0  0.3975418174768848  0.9402452041834125  0.07694650193744221  1.0000
  H   H2        1.0  0.45973962738467816  0.061245434527805294  0.4226710505797442  1.0000
  H   H3        1.0  0.6024262225301767  0.05977218190330551  0.9230540778011189  1.0000
  H   H4        1.0  0.5402897275061562  0.9387496884320684  0.5773181965023823  1.0000
  H   H5        1.0  0.010006610788039428  0.8260323555180875  0.2193056209741826  1.0000
  H   H6        1.0  0.18464916807517542  0.17525712415091735  0.2803664902804499  1.0000
  H   H7        1.0  0.9899572244152138  0.17396012291524704  0.7806771080877296  1.0000
  H   H8        1.0  0.8153638216417248  0.8247301331674421  0.7196178864166284  1.0000
  C   C1        1.0  0.14577912221966463  0.7083099599241862  0.8557640787100809  1.0000
  C   C2        1.0  0.43806713338187103  0.2914241138131146  0.6440198338559995  1.0000
  C   C3        1.0  0.854217907330465  0.29170743046871184  0.1442365083042318  1.0000
  C   C4        1.0  0.5619437265793225  0.7085671127153932  0.3559804582290624  1.0000
  C   C5        1.0  0.05790607097007693  0.731899352635601  0.964204824574324  1.0000
  C   C6        1.0  0.32565788751503527  0.2677554989557436  0.5356148524825599  1.0000
  C   C7        1.0  0.9421041717271519  0.2681154482644887  0.035804673075603005  1.0000
  C   C8        1.0  0.6743500442468215  0.7322422794521372  0.46438936569158057  1.0000
  C   C9        1.0  0.19148999297524938  0.8375581582493511  0.060949885146421016  1.0000
  C   C10       1.0  0.35475906482980685  0.16310442367621655  0.43876050458261767  1.0000
  C   C11       1.0  0.8084836558101925  0.16245796761356956  0.9390674767759889  1.0000
  C   C12       1.0  0.6452667492087157  0.8368959813473822  0.5612463674318774  1.0000
  C   C13       1.0  0.9939835847577922  0.7834690325596227  0.13435042965880228  1.0000
  C   C14       1.0  0.210776389606373  0.21721112428348024  0.3653693085124701  1.0000
  C   C15       1.0  0.005977359791785425  0.2165300324294961  0.865648552618083  1.0000
  C   C16       1.0  0.7892375022136802  0.7827696220261584  0.6346257800378295  1.0000
  N   N1        1.0  0.75839236349929  0.6534422258616673  0.08367161582562943  1.0000
  N   N2        1.0  0.1033551418265972  0.3461514729964819  0.41618643532004274  1.0000
  N   N3        1.0  0.24158865174774746  0.34655555071488925  0.9163333660378254  1.0000
  N   N4        1.0  0.8966518028631898  0.6538319135760634  0.5838174643971996  1.0000
  N   N5        1.0  0.7976146550528255  0.6228827707594178  0.9807548547839032  1.0000
  N   N6        1.0  0.17282719328492396  0.37607935856276953  0.5191483679798807  1.0000
  N   N7        1.0  0.20239710474713496  0.3771267911148685  0.019252426321330122  1.0000
  N   N8        1.0  0.8271685334391208  0.6239105721569801  0.48085714441155136  1.0000
  O   O1        1.0  0.3845773381627353  0.7858575876286764  0.8277076668580106  1.0000
  O   O2        1.0  0.6016255855836546  0.21498975640958665  0.6718396262578779  1.0000
  O   O3        1.0  0.6154181860176705  0.21416505262639873  0.17229898892784223  1.0000
  O   O4        1.0  0.39835237894947545  0.7849936345258685  0.3281673479650848  1.0000
  O   O5        1.0  0.9428485819980919  0.5870460389168102  0.7876234246764611  1.0000
  O   O6        1.0  0.3546023169297782  0.41140736319604804  0.7123669169684772  1.0000
  O   O7        1.0  0.05719930067483867  0.412953010816267  0.2123655636378814  1.0000
  O   O8        1.0  0.6453887716617288  0.5885982044119018  0.2876167385784214  1.0000
