data_image0
_chemical_formula_structural       AlH21C45N6O18
_chemical_formula_sum              "Al1 H21 C45 N6 O18"
_cell_length_a       4.046039888783531
_cell_length_b       23.473998386205963
_cell_length_c       23.427251132680308
_cell_angle_alpha    60.1728027534312
_cell_angle_beta     87.64126304119486
_cell_angle_gamma    88.12489450602827

_space_group_name_H-M_alt    "P 1"
_space_group_IT_number       1

loop_
  _space_group_symop_operation_xyz
  'x, y, z'

loop_
  _atom_site_type_symbol
  _atom_site_label
  _atom_site_symmetry_multiplicity
  _atom_site_fract_x
  _atom_site_fract_y
  _atom_site_fract_z
  _atom_site_occupancy
  Al  Al1       1.0  0.12623991973411106  0.49961973876893495  0.4992466802256884  1.0000
  H   H1        1.0  0.48710468662818573  0.3301019552865796  0.6687030030578285  1.0000
  H   H2        1.0  0.4249925211506992  0.2593872736904074  0.7881921647304679  1.0000
  H   H3        1.0  0.6522944138065369  0.1497104253303334  0.02010038292649338  1.0000
  H   H4        1.0  0.621567879300706  0.8118750009125079  0.25954461142064394  1.0000
  H   H5        1.0  0.23665341642197293  0.8864948444292723  0.23821026952439422  1.0000
  H   H6        1.0  0.1804961590538241  0.005633288286546201  0.17367721251365253  1.0000
  H   H7        1.0  0.39202403691474075  0.09997510927383498  0.11151826031316858  1.0000
  H   H8        1.0  0.48763824609841316  0.6693677519282488  0.5013964176520459  1.0000
  H   H9        1.0  0.41846395606479087  0.7885278383207819  0.4528572357391098  1.0000
  H   H10       1.0  0.6462338224664208  0.020451860168812196  0.3281666440977489  1.0000
  H   H11       1.0  0.7270170581770543  0.2614918066947424  0.4221229744406187  1.0000
  H   H12       1.0  0.2817984808734765  0.23916349003594917  0.3777644516760005  1.0000
  H   H13       1.0  0.204255435291401  0.1741044514473344  0.32410310530528347  1.0000
  H   H14       1.0  0.42174769628937986  0.11100241735470459  0.28905109106238297  1.0000
  H   H15       1.0  0.47623682200151063  0.4987736221077979  0.3314885654937072  1.0000
  H   H16       1.0  0.42928092225282205  0.44987502885566505  0.26065621829872027  1.0000
  H   H17       1.0  0.7001546521140655  0.3241100719339228  0.1493466152884579  1.0000
  H   H18       1.0  0.6020154435236266  0.426500893383718  0.8131170196408984  1.0000
  H   H19       1.0  0.212711871594621  0.3754962233417202  0.8886729090709123  1.0000
  H   H20       1.0  0.15965391643957363  0.3208196324344427  0.008573369985825302  1.0000
  H   H21       1.0  0.4164696713082208  0.2878523876772903  0.10098876929785655  1.0000
  C   C1        1.0  0.6082398584611682  0.4576781639329539  0.5989982577650249  1.0000
  C   C2        1.0  0.6445080558709648  0.44224072989038615  0.4566847504727675  1.0000
  C   C3        1.0  0.6177690905620918  0.5991483310339235  0.44231893467264866  1.0000
  C   C4        1.0  0.5117536682570858  0.35088862051660635  0.7008225235983402  1.0000
  C   C5        1.0  0.4795444900641145  0.3108729601282079  0.7686586969904565  1.0000
  C   C6        1.0  0.5833616550043884  0.23141821005564372  0.924477756296369  1.0000
  C   C7        1.0  0.5512574206844361  0.19937614093270636  0.9927897586392047  1.0000
  C   C8        1.0  0.6152019688483463  0.7143776478839  0.34091467089850613  1.0000
  C   C9        1.0  0.5850832546007467  0.7822247218450042  0.3126827133481882  1.0000
  C   C10       1.0  0.33614931746191  0.9161029092754517  0.2572991712569391  1.0000
  C   C11       1.0  0.30303343061822835  0.9839901613226444  0.220674698320593  1.0000
  C   C12       1.0  0.5746899631352702  0.41804471461500725  0.6726021214285325  1.0000
  C   C13       1.0  0.511440638866091  0.33640556113554243  0.8112319184297617  1.0000
  C   C14       1.0  0.47711950322607083  0.2969156635211903  0.8838733849116803  1.0000
  C   C15       1.0  0.40952126790269006  0.23088155273951827  0.025335605928155796  1.0000
  C   C16       1.0  0.39933585066342653  0.1977139655044198  0.09800964875745416  1.0000
  C   C17       1.0  0.3953888102397229  0.1289886181303856  0.136092952913458  1.0000
  C   C18       1.0  0.5165716850919679  0.7010906310966901  0.44827346211497593  1.0000
  C   C19       1.0  0.4810533680497144  0.7687365566854111  0.4205672959953121  1.0000
  C   C20       1.0  0.5832761969642277  0.9246468240390228  0.3429177951096918  1.0000
  C   C21       1.0  0.5512368219750171  0.9926880020714393  0.30672779462968686  1.0000
  C   C22       1.0  0.6944296073723778  0.34202407771699217  0.4401377524828617  1.0000
  C   C23       1.0  0.6685561677605775  0.3136019065494509  0.4006510474137882  1.0000
  C   C24       1.0  0.3800135729397808  0.2572141755732104  0.3277743087307527  1.0000
  C   C25       1.0  0.3356871931877805  0.22037437758326917  0.29721407470326966  1.0000
  C   C26       1.0  0.5866341142431679  0.672540151867679  0.4088697743030492  1.0000
  C   C27       1.0  0.5195163917413056  0.8108066195178836  0.3521903426075994  1.0000
  C   C28       1.0  0.4856634650627641  0.8832427897536234  0.31917603907664444  1.0000
  C   C29       1.0  0.4166161241815374  0.0243479004092819  0.24412244687653128  1.0000
  C   C30       1.0  0.4029853199863211  0.09685683942588949  0.2049598248438116  1.0000
  C   C31       1.0  0.41233877238327216  0.1350939406923146  0.23561112641663576  1.0000
  C   C32       1.0  0.5324051269370287  0.44671149481725075  0.350974797010366  1.0000
  C   C33       1.0  0.5077625041867719  0.4190192660343186  0.3109180016457456  1.0000
  C   C34       1.0  0.6448467657516802  0.3405476249092699  0.23058114372870614  1.0000
  C   C35       1.0  0.6010364311795159  0.304126001677524  0.1994207407179686  1.0000
  C   C36       1.0  0.5995540125392864  0.44334447181027753  0.715038760557597  1.0000
  C   C37       1.0  0.5703237790356254  0.4036981480055528  0.7830791724711615  1.0000
  C   C38       1.0  0.3187300450439494  0.3263601558379747  0.9177078560670111  1.0000
  C   C39       1.0  0.28695571186391783  0.2951204099996261  0.9858758596021886  1.0000
  C   C40       1.0  0.6272731279865055  0.40866100983193115  0.416551343781876  1.0000
  C   C41       1.0  0.5762042659803157  0.3518277657352087  0.3351497659352844  1.0000
  C   C42       1.0  0.5401496871622982  0.31824870419744394  0.29640233818381745  1.0000
  C   C43       1.0  0.4489906431677753  0.24288311888778935  0.23204802931525847  1.0000
  C   C44       1.0  0.41854924747023164  0.2037817464535578  0.19893485111241196  1.0000
  C   C45       1.0  0.40937554173817153  0.2344638994973279  0.1301382386433119  1.0000
  N   N1        1.0  0.8060897109113085  0.2996699464973743  0.5079057741320837  1.0000
  N   N2        1.0  0.6705422931310635  0.5133853372191765  0.6886611481621969  1.0000
  N   N3        1.0  0.6917323187875725  0.6877055510068499  0.2966202346131014  1.0000
  N   N4        1.0  0.8278927984482537  0.40227359842832283  0.1902404493581855  1.0000
  N   N5        1.0  0.7532753656120762  0.191629010118703  0.8988835962762065  1.0000
  N   N6        1.0  0.7427092188867732  0.9004320722961622  0.4067785956977799  1.0000
  O   O1        1.0  0.39494695554951414  0.5679514389355589  0.43311520059798864  1.0000
  O   O2        1.0  0.376308172021929  0.4976006351310999  0.5678401354611038  1.0000
  O   O3        1.0  0.40629503205909856  0.43381202654058626  0.4969776130604585  1.0000
  O   O4        1.0  0.8556857051006118  0.574369928210295  0.4814249218764885  1.0000
  O   O5        1.0  0.8837618141537149  0.4812055915445582  0.44207860437581553  1.0000
  O   O6        1.0  0.8587861349004057  0.44310434890194017  0.5741343714186016  1.0000
  O   O7        1.0  0.8698653526505211  0.32692117805296306  0.5398502796483199  1.0000
  O   O8        1.0  0.8330512186979178  0.2398466367498813  0.5284603248452981  1.0000
  O   O9        1.0  0.7888888913694531  0.5439351667610807  0.6317742908292914  1.0000
  O   O10       1.0  0.610022394381595  0.5369455426110293  0.7250561240472988  1.0000
  O   O11       1.0  0.8321306509484786  0.6332260411120315  0.320685589466791  1.0000
  O   O12       1.0  0.613031923655477  0.7216816999460318  0.2383730465787862  1.0000
  O   O13       1.0  0.9921605422723019  0.42317721252812385  0.21930923351121825  1.0000
  O   O14       1.0  0.81335853294285  0.4283710549352122  0.1296746005532086  1.0000
  O   O15       1.0  0.9540201175530427  0.219499565806629  0.8521406126884016  1.0000
  O   O16       1.0  0.6896256609052996  0.1324188391939813  0.9272043993968637  1.0000
  O   O17       1.0  0.9386169027813694  0.8532800045239097  0.42508334315888874  1.0000
  O   O18       1.0  0.6762073950448625  0.9302251185307565  0.4370739326744015  1.0000
