data_image0
_chemical_formula_structural       Cu6H78C96N6O24
_chemical_formula_sum              "Cu6 H78 C96 N6 O24"
_cell_length_a       9.877011393802542
_cell_length_b       24.155354335743393
_cell_length_c       24.153987747285655
_cell_angle_alpha    118.1720830978861
_cell_angle_beta     97.83128450165155
_cell_angle_gamma    97.83657119499485

_space_group_name_H-M_alt    "P 1"
_space_group_IT_number       1

loop_
  _space_group_symop_operation_xyz
  'x, y, z'

loop_
  _atom_site_type_symbol
  _atom_site_label
  _atom_site_symmetry_multiplicity
  _atom_site_fract_x
  _atom_site_fract_y
  _atom_site_fract_z
  _atom_site_occupancy
  Cu  Cu1       1.0  0.08142628014488916  0.5535974375976594  0.514555995097709  1.0000
  Cu  Cu2       1.0  0.5278242196614045  0.9609609608569871  0.44640107976493976  1.0000
  Cu  Cu3       1.0  0.5668267863328608  0.48542977789490044  0.039039448429392186  1.0000
  Cu  Cu4       1.0  0.918567619209611  0.44640078368080793  0.48544029446572534  1.0000
  Cu  Cu5       1.0  0.4721761232036243  0.03904401591711349  0.5535991728701931  1.0000
  Cu  Cu6       1.0  0.433173664730937  0.514571338662222  0.9609647841232135  1.0000
  H   H1        1.0  0.21693135499689484  0.3243077156636291  0.44595484065593655  1.0000
  H   H2        1.0  0.8925921849977528  0.12160385731572632  0.6756750791897161  1.0000
  H   H3        1.0  0.7709891715744632  0.5540861428183419  0.8784004450959204  1.0000
  H   H4        1.0  0.7830644027272767  0.6756880929772606  0.554041655852828  1.0000
  H   H5        1.0  0.10740972006701816  0.8784001544009359  0.3243239771423989  1.0000
  H   H6        1.0  0.22900772702030284  0.44591400867533804  0.12160727349449031  1.0000
  H   H7        1.0  0.4215900435189752  0.2736698482772654  0.42256081399603584  1.0000
  H   H8        1.0  0.1478718977001989  0.1488508361204026  0.7263112448555377  1.0000
  H   H9        1.0  0.9990391455177348  0.5774222519037764  0.8511245939820357  1.0000
  H   H10       1.0  0.5784092046862597  0.7263288555881715  0.5774384863071094  1.0000
  H   H11       1.0  0.8521293380133272  0.8511497978843323  0.2736886636396392  1.0000
  H   H12       1.0  0.0009525894364515106  0.422579829658183  0.14888043512636542  1.0000
  H   H13       1.0  0.6206472920334676  0.4288398356065458  0.3993296038609203  1.0000
  H   H14       1.0  0.19178294124836276  0.9704753843051677  0.5711422231738086  1.0000
  H   H15       1.0  0.22133195664224561  0.600659897220595  0.029519860475389268  1.0000
  H   H16       1.0  0.3793468466305755  0.5711588682186816  0.6006689969189554  1.0000
  H   H17       1.0  0.8082151751932684  0.029527179780245705  0.42885469606330423  1.0000
  H   H18       1.0  0.7786717463819386  0.3993436320090566  0.9704840366760624  1.0000
  H   H19       1.0  0.41866482812442746  0.480695164185164  0.4256028082191961  1.0000
  H   H20       1.0  0.9379340506552225  0.9448820392529316  0.5192680082357559  1.0000
  H   H21       1.0  0.9930823845440884  0.5743820308887282  0.05510796018373312  1.0000
  H   H22       1.0  0.5813257624093069  0.5193025745476804  0.5743947247134715  1.0000
  H   H23       1.0  0.06206401050373239  0.05512245494885802  0.4807281630112641  1.0000
  H   H24       1.0  0.00692780303872105  0.4256181206816053  0.9448971888780024  1.0000
  H   H25       1.0  0.6305410241927021  0.2676042053304712  0.3831440260886582  1.0000
  H   H26       1.0  0.36291245171670283  0.11550374001750903  0.7323953756290323  1.0000
  H   H27       1.0  0.24740457127369098  0.6168510343160207  0.8844678978766398  1.0000
  H   H28       1.0  0.36946327905992155  0.7323964286862791  0.6168543977685703  1.0000
  H   H29       1.0  0.6370842691620595  0.8844939987709426  0.26760415590229797  1.0000
  H   H30       1.0  0.7525846414816044  0.38315008213476187  0.11553198059584713  1.0000
  H   H31       1.0  0.7060248869095745  0.32443606258532753  0.3620532503283089  1.0000
  H   H32       1.0  0.38158570017205307  0.03759222384015711  0.6755656189769184  1.0000
  H   H33       1.0  0.3439820211233807  0.6379445737896746  0.9623873078813079  1.0000
  H   H34       1.0  0.2939717226149837  0.675565536441141  0.6379456132019217  1.0000
  H   H35       1.0  0.6184054297854403  0.9624045498329964  0.32443148852507897  1.0000
  H   H36       1.0  0.6560157952040341  0.3620594379021894  0.03761234800291652  1.0000
  H   H37       1.0  0.7272072573945039  0.36702954941936383  0.49795500933357334  1.0000
  H   H38       1.0  0.3600941180974502  0.1308890515767231  0.6329672121254505  1.0000
  H   H39       1.0  0.2292572522153336  0.502049111502025  0.8690947983639392  1.0000
  H   H40       1.0  0.27279368136024107  0.6329725321707754  0.5020443238923493  1.0000
  H   H41       1.0  0.6399167396254626  0.8691144777002721  0.3670362567941298  1.0000
  H   H42       1.0  0.7707377382491033  0.4979553827087814  0.1309061694373953  1.0000
  H   H43       1.0  0.913244979297481  0.29410651134534765  0.42113783974017605  1.0000
  H   H44       1.0  0.6190727466541475  0.1270532812358667  0.7059092161706887  1.0000
  H   H45       1.0  0.49209682574444  0.5788683645155643  0.8729699142073815  1.0000
  H   H46       1.0  0.08675770765601948  0.7058970178373373  0.5788597904613371  1.0000
  H   H47       1.0  0.380924805479573  0.8729420449416879  0.29409584706332503  1.0000
  H   H48       1.0  0.5078992443563735  0.42113419957059517  0.12702937475351928  1.0000
  H   H49       1.0  0.9541875199285101  0.3415627531458582  0.5060246063110867  1.0000
  H   H50       1.0  0.6125704980494645  0.1644413176569515  0.6584165281448122  1.0000
  H   H51       1.0  0.4481569593183892  0.4939796267815453  0.8355382631063224  1.0000
  H   H52       1.0  0.04581769395702657  0.6584417411164342  0.493973206651788  1.0000
  H   H53       1.0  0.38744401442480836  0.8355593165059787  0.34159364449761415  1.0000
  H   H54       1.0  0.5518398883324309  0.5060224547995775  0.16446415360898936  1.0000
  H   H55       1.0  0.7591031730059966  0.3165488214157152  0.5627506414427332  1.0000
  H   H56       1.0  0.4424989447610344  0.24623159871677558  0.6834233831031825  1.0000
  H   H57       1.0  0.19634767993615304  0.43725493348205907  0.7538138682631443  1.0000
  H   H58       1.0  0.2409043826014354  0.6834542252709427  0.4372470330237946  1.0000
  H   H59       1.0  0.5575084726359022  0.7537671052535019  0.3165834118762094  1.0000
  H   H60       1.0  0.8036515682690819  0.5627437703833708  0.24618543204000096  1.0000
  H   H61       1.0  0.6341245976379709  0.22547377464137242  0.5720985422959475  1.0000
  H   H62       1.0  0.40856994182801293  0.3466301068802268  0.7745180089657924  1.0000
  H   H63       1.0  0.0620022542257885  0.42791590931929596  0.6534143753789436  1.0000
  H   H64       1.0  0.3658824193345679  0.7745302370997108  0.4278987296221645  1.0000
  H   H65       1.0  0.5914430684623468  0.6533695621921964  0.2254891400951992  1.0000
  H   H66       1.0  0.9379927192430769  0.5720803818713591  0.34658603119770265  1.0000
  H   H67       1.0  0.6860380138824312  0.09042089978738942  0.38538549467254063  1.0000
  H   H68       1.0  0.5955843951788182  0.2949720895298568  0.9095647222946612  1.0000
  H   H69       1.0  0.30061849649217004  0.6146122894166198  0.7050246609851317  1.0000
  H   H70       1.0  0.3139682788506163  0.9095816643555139  0.6146114674289934  1.0000
  H   H71       1.0  0.404426088968357  0.705026614457701  0.09044141602587542  1.0000
  H   H72       1.0  0.6993690865182955  0.3853835191562567  0.29497013670102507  1.0000
  H   H73       1.0  0.8102666875784477  0.1812377828318006  0.3752942087945358  1.0000
  H   H74       1.0  0.6289836682832259  0.1940997345720774  0.8187446747024298  1.0000
  H   H75       1.0  0.43497051722027896  0.6246944135090688  0.8059111091432813  1.0000
  H   H76       1.0  0.18974363584828774  0.818766711470694  0.6247043036916154  1.0000
  H   H77       1.0  0.37101635155558194  0.8058984868277649  0.1812639631983119  1.0000
  H   H78       1.0  0.5650212809051639  0.37530573788390603  0.19408638816429408  1.0000
  C   C1        1.0  0.18916119960045555  0.4389939632722673  0.45675109714786555  1.0000
  C   C2        1.0  0.7501340289465048  0.0177302285722263  0.5609973638629384  1.0000
  C   C3        1.0  0.7324325289811782  0.543298119646245  0.9823036430462085  1.0000
  C   C4        1.0  0.8108347425450121  0.5610042580291292  0.5432465485976935  1.0000
  C   C5        1.0  0.2498653487917863  0.9822728180674575  0.4390019236973618  1.0000
  C   C6        1.0  0.2675691841681384  0.45670347945989676  0.017702129850484034  1.0000
  C   C7        1.0  0.3059277228601546  0.40576182534969274  0.4374630401343327  1.0000
  C   C8        1.0  0.9001119702270939  0.031656833767833306  0.59423097852563  1.0000
  C   C9        1.0  0.8684929812094069  0.5625818621392042  0.9683533444597219  1.0000
  C   C10       1.0  0.6940667127626767  0.5942354308901231  0.5625361359147976  1.0000
  C   C11       1.0  0.09988867235772855  0.9683466954024524  0.40576695145193775  1.0000
  C   C12       1.0  0.13150975353261174  0.43741973697707703  0.03165289953326331  1.0000
  C   C13       1.0  0.306016417904047  0.3469302637192939  0.4357878550784023  1.0000
  C   C14       1.0  0.9590326122523507  0.0888065884578637  0.6530612183970491  1.0000
  C   C15       1.0  0.8702432642352207  0.564246240583323  0.9111872033717037  1.0000
  C   C16       1.0  0.6939805450452567  0.6530679575975071  0.5642110897425426  1.0000
  C   C17       1.0  0.04096881064347708  0.9111964581889611  0.3469369414081031  1.0000
  C   C18       1.0  0.1297556230511177  0.4357558410417682  0.08881988144209892  1.0000
  C   C19       1.0  0.42049217824978047  0.31885688079442087  0.42258864001845353  1.0000
  C   C20       1.0  0.10159087984168019  0.103687311415591  0.6811395524375428  1.0000
  C   C21       1.0  0.9979142945728936  0.5774133632327646  0.8962890052557457  1.0000
  C   C22       1.0  0.5795050263756422  0.6811418230533518  0.5774101320816529  1.0000
  C   C23       1.0  0.8984098184202337  0.8963142876356754  0.31885871154057815  1.0000
  C   C24       1.0  0.002082550316920555  0.4225887183667751  0.10371630938638537  1.0000
  C   C25       1.0  0.5350312428413417  0.3481515361724021  0.40953226171178886  1.0000
  C   C26       1.0  0.1868282366066367  0.0613403728574156  0.6518473137223708  1.0000
  C   C27       1.0  0.12550012216573245  0.5904619042999003  0.9386334012472519  1.0000
  C   C28       1.0  0.4649664443474463  0.6518481327425789  0.5904669929257339  1.0000
  C   C29       1.0  0.8131698782572772  0.9386621912385141  0.3481512614729287  1.0000
  C   C30       1.0  0.8744992512338357  0.40954114236871675  0.061370440198054314  1.0000
  C   C31       1.0  0.5318293517630153  0.4058356059953354  0.4091988530573333  1.0000
  C   C32       1.0  0.12595023243791556  0.0033307425453231  0.5941512069931109  1.0000
  C   C33       1.0  0.12264749472277714  0.5907889264389043  0.9966511088259085  1.0000
  C   C34       1.0  0.46816683048084673  0.5941630978475558  0.5908002759255739  1.0000
  C   C35       1.0  0.8740489067796985  0.9966718215423428  0.4058449413716619  1.0000
  C   C36       1.0  0.877354461680376  0.40921315518768603  0.0033528353917660347  1.0000
  C   C37       1.0  0.41931636450898674  0.434808930424296  0.42375148067074525  1.0000
  C   C38       1.0  0.9844528953222637  0.9889048684540569  0.5651710282418494  1.0000
  C   C39       1.0  0.9955891012247449  0.5762535037707791  0.011086739484589712  1.0000
  C   C40       1.0  0.5806795764531927  0.5651892908849874  0.5762474070434538  1.0000
  C   C41       1.0  0.0155459461477037  0.011099143224278402  0.43482537283274786  1.0000
  C   C42       1.0  0.004416699873068767  0.4237480953654185  0.9889192618390866  1.0000
  C   C43       1.0  0.6619778583465603  0.3194977757195403  0.3993591728060438  1.0000
  C   C44       1.0  0.3424430242585643  0.07982883056986621  0.6804983656001511  1.0000
  C   C45       1.0  0.2626300642689898  0.600640759678349  0.920147917104018  1.0000
  C   C46       1.0  0.33802109329432267  0.6805023757286718  0.6006391382383002  1.0000
  C   C47       1.0  0.6575544220429633  0.9201703558088781  0.31950023377912384  1.0000
  C   C48       1.0  0.737364981478116  0.3993618044160883  0.07985379868740958  1.0000
  C   C49       1.0  0.867246342584167  0.3108343399458064  0.4635538320462446  1.0000
  C   C50       1.0  0.5563451237881338  0.15272383451414126  0.6891610520021488  1.0000
  C   C51       1.0  0.4036916967852306  0.5364521969542154  0.8472838468386786  1.0000
  C   C52       1.0  0.13275916865458742  0.6891687067284453  0.5364441421963452  1.0000
  C   C53       1.0  0.4436607894527427  0.8472739043787813  0.31084478934353416  1.0000
  C   C54       1.0  0.5963023277636168  0.4635503671274392  0.15271698386691684  1.0000
  C   C55       1.0  0.793417684583204  0.2549423598102933  0.4683500123504488  1.0000
  C   C56       1.0  0.538382435660651  0.2134138402875081  0.7450329967340538  1.0000
  C   C57       1.0  0.3250341407945783  0.5316611814381389  0.7866021736218161  1.0000
  C   C58       1.0  0.20659113310974656  0.7450611694253694  0.5316492024601731  1.0000
  C   C59       1.0  0.4616191471667576  0.7865834160496376  0.25497361688457715  1.0000
  C   C60       1.0  0.6749589758823403  0.46833752237957077  0.21339637005131357  1.0000
  C   C61       1.0  0.7423998636199299  0.2668816027676328  0.5234970497421048  1.0000
  C   C62       1.0  0.47542257020389667  0.25661957659252016  0.7330988241350698  1.0000
  C   C63       1.0  0.2188566834417642  0.47652238213605363  0.7434095929261278  1.0000
  C   C64       1.0  0.25760871358019694  0.7331214439291641  0.476501095820723  1.0000
  C   C65       1.0  0.5245838248114864  0.7433791273728688  0.26690832772713  1.0000
  C   C66       1.0  0.7811435863561729  0.52347632173953  0.2565901784733103  1.0000
  C   C67       1.0  0.6726016392462099  0.21640557696797919  0.5291011097891103  1.0000
  C   C68       1.0  0.4560729887911705  0.3126946178520456  0.7835864517868601  1.0000
  C   C69       1.0  0.14342861348309546  0.470925110288931  0.6873398030989011  1.0000
  C   C70       1.0  0.32740435495033904  0.7835984347708521  0.47089693300134905  1.0000
  C   C71       1.0  0.543934670281878  0.6873045686492033  0.21642017047170012  1.0000
  C   C72       1.0  0.8565666032396066  0.5290716634221724  0.31265877479872023  1.0000
  C   C73       1.0  0.6531682914341701  0.15244861821975064  0.4794235814031256  1.0000
  C   C74       1.0  0.5005631684107216  0.3269695497287516  0.847543601587063  1.0000
  C   C75       1.0  0.17363174544426838  0.5205916002644599  0.6730436823826553  1.0000
  C   C76       1.0  0.3468372209878722  0.8475544284466138  0.5205731508708241  1.0000
  C   C77       1.0  0.49944551264945847  0.6730296367800079  0.15246307777823634  1.0000
  C   C78       1.0  0.8263596838385824  0.47940372580750096  0.32695151645132386  1.0000
  C   C79       1.0  0.7021609720915408  0.1401604890230956  0.4238674517330595  1.0000
  C   C80       1.0  0.5618875014316345  0.2837087957098704  0.8598228669655871  1.0000
  C   C81       1.0  0.27822140254058775  0.5761357143299222  0.716292096956579  1.0000
  C   C82       1.0  0.29784580202159117  0.8598430401949103  0.5761312348745237  1.0000
  C   C83       1.0  0.43812015645812613  0.7162903907992728  0.14018499726160633  1.0000
  C   C84       1.0  0.7217692456423919  0.423860094270765  0.2837037000289089  1.0000
  C   C85       1.0  0.7713940588038426  0.1910760975587138  0.41850142793079215  1.0000
  C   C86       1.0  0.5802222022795436  0.2274450752329714  0.8089050392529418  1.0000
  C   C87       1.0  0.35285483235200843  0.5814975070656205  0.7725623739982057  1.0000
  C   C88       1.0  0.22861656276496234  0.8089269491504895  0.5814964178559808  1.0000
  C   C89       1.0  0.41978112598561523  0.7725536287151376  0.1911027692681063  1.0000
  C   C90       1.0  0.6471390666080694  0.418500714215476  0.2274343295547753  1.0000
  C   C91       1.0  0.5876913807662518  0.0976110437676425  0.487105582775719  1.0000
  C   C92       1.0  0.49001698363209567  0.3894965940670119  0.902394416911058  1.0000
  C   C93       1.0  0.10047930903743926  0.5128880581564347  0.6105163649387608  1.0000
  C   C94       1.0  0.41231028459455393  0.9023924854048886  0.5128915763295014  1.0000
  C   C95       1.0  0.5099883341134941  0.6105040400072426  0.09761192985429556  1.0000
  C   C96       1.0  0.8995113375678231  0.4871077504547686  0.3894810880049137  1.0000
  N   N1        1.0  0.7745538642026802  0.35293975092707097  0.4597970591950401  1.0000
  N   N2        1.0  0.4215619605112764  0.10683350173214022  0.6470530610922938  1.0000
  N   N3        1.0  0.3147671358017234  0.5402049877425412  0.8931569385984448  1.0000
  N   N4        1.0  0.22544557079043404  0.6470613655830846  0.5402009064076199  1.0000
  N   N5        1.0  0.5784408342465639  0.8931661672361956  0.35294896301623185  1.0000
  N   N6        1.0  0.685229955102926  0.45979757635902985  0.10684364943784175  1.0000
  O   O1        1.0  0.21472527804311178  0.4992980166487088  0.4760399630820944  1.0000
  O   O2        1.0  0.7153827165602421  0.9767210958923301  0.5006910507560038  1.0000
  O   O3        1.0  0.7386849085726793  0.5240188351946176  0.023332354792970102  1.0000
  O   O4        1.0  0.785270423609532  0.500699722113815  0.5239566134156705  1.0000
  O   O5        1.0  0.28461437473882983  0.0232814682066049  0.4993091232907362  1.0000
  O   O6        1.0  0.26131530002614767  0.47598179883679853  0.9766728784595673  1.0000
  O   O7        1.0  0.07486638065974917  0.40494580184074647  0.45393137838340913  1.0000
  O   O8        1.0  0.6699048609044168  0.04897613847091981  0.595042124268133  1.0000
  O   O9        1.0  0.6209748281875207  0.5461189786603029  0.9510703408363171  1.0000
  O   O10       1.0  0.9251287803858474  0.5950529019893621  0.5460668655136588  1.0000
  O   O11       1.0  0.3300947577211345  0.9510273907049935  0.4049578185504219  1.0000
  O   O12       1.0  0.37902610425636135  0.45388310297192186  0.048935616222337316  1.0000
  O   O13       1.0  0.5425590175128931  0.1113872942886971  0.53804209390745  1.0000
  O   O14       1.0  0.431301108587931  0.42670449576642977  0.8886248897165034  1.0000
  O   O15       1.0  0.004420893845612246  0.46195269018075896  0.5733557157730191  1.0000
  O   O16       1.0  0.45744162625521056  0.8886162348736875  0.46195459410148504  1.0000
  O   O17       1.0  0.5687070354150663  0.5732956557862394  0.11137973114219353  1.0000
  O   O18       1.0  0.9955663890506372  0.5380445659985613  0.42664181856025624  1.0000
  O   O19       1.0  0.5860923251417063  0.0410162072380018  0.4423640446738447  1.0000
  O   O20       1.0  0.5449195781524878  0.4013231928466041  0.9589919553882641  1.0000
  O   O21       1.0  0.14361860623647263  0.5576159556110555  0.5986408607630838  1.0000
  O   O22       1.0  0.41390909854298025  0.9589868394035577  0.5576332871522142  1.0000
  O   O23       1.0  0.45508087015030435  0.5986779237289356  0.04101517509116109  1.0000
  O   O24       1.0  0.85637282186309  0.44237937046879955  0.40135558003953536  1.0000
