data_image0
_chemical_formula_structural       Zn2H26C36Br4N14O8
_chemical_formula_sum              "Zn2 H26 C36 Br4 N14 O8"
_cell_length_a       11.097448333468698
_cell_length_b       16.1224713964397
_cell_length_c       17.277450222919892
_cell_angle_alpha    96.03683263927964
_cell_angle_beta     90.07573596228609
_cell_angle_gamma    92.21596470053377

_space_group_name_H-M_alt    "P 1"
_space_group_IT_number       1

loop_
  _space_group_symop_operation_xyz
  'x, y, z'

loop_
  _atom_site_type_symbol
  _atom_site_label
  _atom_site_symmetry_multiplicity
  _atom_site_fract_x
  _atom_site_fract_y
  _atom_site_fract_z
  _atom_site_occupancy
  Zn  Zn1       1.0  0.49846306981830674  0.4084674380923162  0.49810333117931543  1.0000
  Zn  Zn2       1.0  0.5052116605448803  0.593210000062669  0.5049389323051159  1.0000
  H   H1        1.0  0.3947175069882504  0.7146205057780078  0.4210852725364517  1.0000
  H   H2        1.0  0.3822671398888744  0.8706021746330778  0.42481677072489527  1.0000
  H   H3        1.0  0.31420495290927863  0.11086595751011431  0.4156426849948502  1.0000
  H   H4        1.0  0.6291007138865581  0.1184857855423829  0.562630209595781  1.0000
  H   H5        1.0  0.5121250380425407  0.6177930313406821  0.2658775847432651  1.0000
  H   H6        1.0  0.5144676434128215  0.6161239474336144  0.12025770392859411  1.0000
  H   H7        1.0  0.5256390732831164  0.6600680288787971  0.904429901250637  1.0000
  H   H8        1.0  0.48443868510293  0.3930621162926615  0.8895570180126668  1.0000
  H   H9        1.0  0.7716068808555221  0.5733035469261338  0.3919697350408241  1.0000
  H   H10       1.0  0.21963489513886003  0.5762728047275093  0.37793190393311704  1.0000
  H   H11       1.0  0.6922456907507808  0.6679514720930089  0.5884142951509617  1.0000
  H   H12       1.0  0.6965504869052594  0.7547691719661956  0.6554020954071261  1.0000
  H   H13       1.0  0.683757769062822  0.9643147115922446  0.6064963430429697  1.0000
  H   H14       1.0  0.7606921781829712  0.8764219516940204  0.6207321963720387  1.0000
  H   H15       1.0  0.29898504716200586  0.33772637091654195  0.4340139940858165  1.0000
  H   H16       1.0  0.24256359756324744  0.24251186036218542  0.3899044176049458  1.0000
  H   H17       1.0  0.6771441867299757  0.34134433804731407  0.5632189390808904  1.0000
  H   H18       1.0  0.7190176658258665  0.2520234064472221  0.5993062133283829  1.0000
  H   H19       1.0  0.5089228090184291  0.3335585977212362  0.3055039771603418  1.0000
  H   H20       1.0  0.541898457752083  0.2840179693811962  0.2146261638524223  1.0000
  H   H21       1.0  0.48515674480744747  0.3360220181121676  0.032525380736949196  1.0000
  H   H22       1.0  0.44168115882204967  0.2851687186263591  0.1102391918262526  1.0000
  H   H23       1.0  0.4960106114077973  0.6697696376501483  0.6978588184582006  1.0000
  H   H24       1.0  0.5035585384718786  0.7242010430456106  0.7904739556853642  1.0000
  H   H25       1.0  0.48826252006904974  0.3622910378446705  0.6805130340409206  1.0000
  H   H26       1.0  0.48076135417074534  0.31731039237297415  0.767971336981077  1.0000
  C   C1        1.0  0.5091354043423593  0.48972685920745823  0.3504338746575186  1.0000
  C   C2        1.0  0.2659670336285416  0.5090131758950919  0.49937896929775855  1.0000
  C   C3        1.0  0.4956437556635364  0.5151433302936683  0.6541646702067395  1.0000
  C   C4        1.0  0.7408519120809344  0.49885131343914685  0.5119742655303625  1.0000
  C   C5        1.0  0.4512362376549318  0.7573903542187497  0.45987272753686165  1.0000
  C   C6        1.0  0.4442611952243425  0.8423928275939903  0.46217141919810695  1.0000
  C   C7        1.0  0.5217363602241248  0.8937930527076576  0.5135210169432156  1.0000
  C   C8        1.0  0.602595045917539  0.856570719973114  0.5610549380720826  1.0000
  C   C9        1.0  0.6026541728465489  0.7672347003916261  0.5556628172169766  1.0000
  C   C10       1.0  0.3861875890417892  0.14613216610150911  0.4487875049360212  1.0000
  C   C11       1.0  0.4706089029130638  0.1045893946898389  0.4884309090525105  1.0000
  C   C12       1.0  0.5618746878268013  0.14996632512961136  0.5319302429017725  1.0000
  C   C13       1.0  0.5660403205934301  0.23706661227411274  0.5343773851208837  1.0000
  C   C14       1.0  0.39403863973321757  0.2340361468216373  0.45412872411530697  1.0000
  C   C15       1.0  0.5060145103914094  0.48415106765023824  0.2642822347921125  1.0000
  C   C16       1.0  0.5092639102511568  0.5592979864662554  0.228068163368647  1.0000
  C   C17       1.0  0.5108829379504768  0.5587806988446504  0.148416225570223  1.0000
  C   C18       1.0  0.5057838787989936  0.48163143039165146  0.100893087545785  1.0000
  C   C19       1.0  0.5008159801845765  0.4058279564525478  0.1351143596828805  1.0000
  C   C20       1.0  0.5030583867303307  0.4064682899202909  0.2177483317362032  1.0000
  C   C21       1.0  0.5145753499453463  0.6006078791332642  0.8682248978019658  1.0000
  C   C22       1.0  0.5056300266023683  0.5271865889561057  0.9044705683057258  1.0000
  C   C23       1.0  0.4920140235498848  0.4496803985664928  0.8603008947861497  1.0000
  C   C24       1.0  0.4875294300678376  0.44450423157106667  0.7788598040233194  1.0000
  C   C25       1.0  0.4977697665627687  0.5192748460829293  0.739756359342195  1.0000
  C   C26       1.0  0.510365242103383  0.5980060144677141  0.7867947438843144  1.0000
  C   C27       1.0  0.8764488656710226  0.5038024226965875  0.5117502723096266  1.0000
  C   C28       1.0  0.935086214893083  0.5386791269350155  0.4484829447608618  1.0000
  C   C29       1.0  0.9436333752559135  0.4751870459905946  0.570264048949781  1.0000
  C   C30       1.0  0.8695581159502764  0.5727107524852927  0.3895332771010445  1.0000
  C   C31       1.0  0.9282385783566979  0.6077129177318313  0.329774375029757  1.0000
  C   C32       1.0  0.1305652136328703  0.5072259664062815  0.504480583702609  1.0000
  C   C33       1.0  0.07160312791639711  0.4763286145396607  0.5667324825686747  1.0000
  C   C34       1.0  0.06390756112203631  0.5401703584748035  0.4448003116151539  1.0000
  C   C35       1.0  0.1217680724545858  0.5747429607585419  0.3817098719934222  1.0000
  C   C36       1.0  0.0560781503647192  0.6083499544771345  0.32563921712813476  1.0000
  Br  Br1       1.0  0.1626644538335285  0.43855699614755406  0.6483094454321403  1.0000
  Br  Br2       1.0  0.8621342807327821  0.43884645775900594  0.6582156977871279  1.0000
  Br  Br3       1.0  0.8342696562246061  0.653751317219907  0.25460288669543013  1.0000
  Br  Br4       1.0  0.14113011827755173  0.6551537737557994  0.2445299761953237  1.0000
  N   N1        1.0  0.5277343181554812  0.7202903791591881  0.5065303372458629  1.0000
  N   N2        1.0  0.5317392224229492  0.9807938456754501  0.5197846289659225  1.0000
  N   N3        1.0  0.45502419012954215  0.016346814714431404  0.48120138788827654  1.0000
  N   N4        1.0  0.4836691118961482  0.279083072836464  0.4957125958764834  1.0000
  N   N5        1.0  0.5010319961399716  0.4721887711251399  0.019622257464263295  1.0000
  N   N6        1.0  0.5120424362416216  0.5390373128044105  0.9867551935951652  1.0000
  N   N7        1.0  0.6856977402622917  0.7312709742263621  0.598814423873236  1.0000
  N   N8        1.0  0.6800835940837402  0.9021531282995243  0.6124849006466704  1.0000
  N   N9        1.0  0.31262589742104296  0.2761060892793026  0.41635165534693636  1.0000
  N   N10       1.0  0.6512881191218938  0.28368168178134584  0.5784029230671521  1.0000
  N   N11       1.0  0.4975895386364897  0.32974680276677065  0.24655482800842773  1.0000
  N   N12       1.0  0.497791911012186  0.329365694427601  0.0899809134522087  1.0000
  N   N13       1.0  0.5228215932700592  0.6726676383266226  0.7546164222660963  1.0000
  N   N14       1.0  0.4687754240570854  0.36722146390002325  0.7383173650843631  1.0000
  O   O1        1.0  0.5077149677605348  0.42143546072375687  0.38286774144084745  1.0000
  O   O2        1.0  0.5138203504117982  0.5622861159309382  0.38850237647309166  1.0000
  O   O3        1.0  0.3186653378437114  0.5801999533174328  0.5028171874691978  1.0000
  O   O4        1.0  0.31556081762501254  0.43878079988132884  0.49050802069754695  1.0000
  O   O5        1.0  0.4904206493218979  0.583135292558268  0.6217303357887118  1.0000
  O   O6        1.0  0.5000250937667019  0.44340870633927676  0.6137930335694222  1.0000
  O   O7        1.0  0.6899149780536149  0.42698866146635345  0.49924296979914107  1.0000
  O   O8        1.0  0.6884586625981584  0.5677308738385636  0.5209197481124476  1.0000
