data_image0
_chemical_formula_structural       Li4Mo2H44C40N4O20
_chemical_formula_sum              "Li4 Mo2 H44 C40 N4 O20"
_cell_length_a       8.869089483280067
_cell_length_b       9.652959196263609
_cell_length_c       15.525255331182839
_cell_angle_alpha    91.27846709488138
_cell_angle_beta     89.98774294489128
_cell_angle_gamma    117.33888182865337

_space_group_name_H-M_alt    "P 1"
_space_group_IT_number       1

loop_
  _space_group_symop_operation_xyz
  'x, y, z'

loop_
  _atom_site_type_symbol
  _atom_site_label
  _atom_site_symmetry_multiplicity
  _atom_site_fract_x
  _atom_site_fract_y
  _atom_site_fract_z
  _atom_site_occupancy
  Li  Li1       1.0  0.4860264741703731  0.9077560878780064  0.5698271142649958  1.0000
  Li  Li2       1.0  0.5781108674463339  0.0921944285280247  0.9300442034615557  1.0000
  Li  Li3       1.0  0.5139754348480494  0.09224656790777892  0.4301734754401068  1.0000
  Li  Li4       1.0  0.4218920782393098  0.9078035337519951  0.0699537597196809  1.0000
  Mo  Mo1       1.0  0.2634979818047327  0.9999626330345066  0.7498820065052527  1.0000
  Mo  Mo2       1.0  0.7365218791080963  3.533459931759976e-05  0.2501165998247714  1.0000
  H   H1        1.0  0.25759451100664427  0.6358961523149348  0.9400063153691319  1.0000
  H   H2        1.0  0.621792943642312  0.3641167583083416  0.5598105804305646  1.0000
  H   H3        1.0  0.7424157924069876  0.364102996214143  0.0599935923611099  1.0000
  H   H4        1.0  0.3781958568997794  0.6358777188291143  0.4401886347525164  1.0000
  H   H5        1.0  0.36401805378302743  0.4421665405234164  0.898387477010381  1.0000
  H   H6        1.0  0.9217933319337777  0.5579704982917877  0.6015367303102863  1.0000
  H   H7        1.0  0.635986621918903  0.5578348809211349  0.1016066581586728  1.0000
  H   H8        1.0  0.07819317153287396  0.4420216390761668  0.39846181597935265  1.0000
  H   H9        1.0  0.47948832302817823  0.4470994896518691  0.7522435438796009  1.0000
  H   H10       1.0  0.032001765780982766  0.5529417578148426  0.7477345591312528  1.0000
  H   H11       1.0  0.5205101419302807  0.5529007859540158  0.2477525118362536  1.0000
  H   H12       1.0  0.9679899700269701  0.44706084480432656  0.2522608776471245  1.0000
  H   H13       1.0  0.549286877878025  0.5446665667222278  0.6170731865283585  1.0000
  H   H14       1.0  0.004115899071784659  0.45562665012489123  0.8827884588383768  1.0000
  H   H15       1.0  0.4507207364898918  0.4553407347565114  0.3829255199226792  1.0000
  H   H16       1.0  0.995886492567756  0.5443724585525088  0.117207584214249  1.0000
  H   H17       1.0  0.10956576426851684  0.8025396958958098  0.5545977976852114  1.0000
  H   H18       1.0  0.307097729358027  0.19750711229158213  0.9455033734413618  1.0000
  H   H19       1.0  0.8904338995798469  0.19746298032796974  0.4454047247420476  1.0000
  H   H20       1.0  0.6929046137762639  0.8024873907307893  0.05449841768235329  1.0000
  H   H21       1.0  0.1018546362944264  0.0128456558406498  0.339220514706696  1.0000
  H   H22       1.0  0.0886837972641671  0.9871412162844421  0.16084389813181585  1.0000
  H   H23       1.0  0.8981467738365508  0.9871605133005943  0.6607814006796389  1.0000
  H   H24       1.0  0.9113146126825028  0.012854440165249103  0.8391566172666317  1.0000
  H   H25       1.0  0.027306569802838996  0.8187620240486666  0.2979586999775563  1.0000
  H   H26       1.0  0.2081826590584654  0.1812547510134337  0.2020826800662547  1.0000
  H   H27       1.0  0.9726971017645243  0.18124415840750885  0.7020445036578877  1.0000
  H   H28       1.0  0.7918129160329955  0.8187397458170622  0.7979184672813985  1.0000
  H   H29       1.0  0.24180985317607212  0.924109895487213  0.3358215149100019  1.0000
  H   H30       1.0  0.3173484511035412  0.07584825191707271  0.16427294696496378  1.0000
  H   H31       1.0  0.7581932806115148  0.07589746711926891  0.6641829895680829  1.0000
  H   H32       1.0  0.6826493919308304  0.9241462717295335  0.8357307770202951  1.0000
  H   H33       1.0  0.8090809908398668  0.6655934227490408  0.4072497560699304  1.0000
  H   H34       1.0  0.14320840908190752  0.3343725531684001  0.0927699465974783  1.0000
  H   H35       1.0  0.19092425517448675  0.33440688605106333  0.5927495201989998  1.0000
  H   H36       1.0  0.8568030704487698  0.6656289487244679  0.9072319184844062  1.0000
  H   H37       1.0  0.8237913443863647  0.8511863130857051  0.4345124212719469  1.0000
  H   H38       1.0  0.9724407985099077  0.14877823089229744  0.0655138084644804  1.0000
  H   H39       1.0  0.17620255570059126  0.14880934373645968  0.5654880944052891  1.0000
  H   H40       1.0  0.027565079335189997  0.851225597920731  0.9344874376102297  1.0000
  H   H41       1.0  0.8532319596440487  0.7390723983769051  0.5164983286834256  1.0000
  H   H42       1.0  0.11405437558054389  0.2609074413160712  0.9835215542973543  1.0000
  H   H43       1.0  0.1467641921195053  0.2609232515084372  0.48350154266016426  1.0000
  H   H44       1.0  0.8859531740157892  0.7390952207547061  0.0164796792535142  1.0000
  C   C1        1.0  0.3879306229368495  0.754750966757456  0.7346994716966435  1.0000
  C   C2        1.0  0.6330864751443029  0.24494525644526988  0.7650571125142137  1.0000
  C   C3        1.0  0.612067845274872  0.24524931559901825  0.26529722821346974  1.0000
  C   C4        1.0  0.3669063396233199  0.7550527404257465  0.23494407226555575  1.0000
  C   C5        1.0  0.3142067361789742  0.7438787739318116  0.8175428257297028  1.0000
  C   C6        1.0  0.570381050393337  0.2558752395817052  0.682209160999413  1.0000
  C   C7        1.0  0.6857905365429744  0.25611686235923503  0.1824557571556937  1.0000
  C   C8        1.0  0.42961005698399646  0.7441215975769994  0.3177926556598649  1.0000
  C   C9        1.0  0.30916494330178784  0.6354690246157589  0.8762762227059397  1.0000
  C   C10       1.0  0.67375492584317  0.36444424546439796  0.6235242854100136  1.0000
  C   C11       1.0  0.6908419258116751  0.36452776398518694  0.1237210836178093  1.0000
  C   C12       1.0  0.32624188688365063  0.6355572373872606  0.37647564799519273  1.0000
  C   C13       1.0  0.3704190766125564  0.5286350898597334  0.8527047797023924  1.0000
  C   C14       1.0  0.8417248955092801  0.4713569337467334  0.6471644018431704  1.0000
  C   C15       1.0  0.6295860786040847  0.4713605255277287  0.1472918701123618  1.0000
  C   C16       1.0  0.15827019030766828  0.528643348889098  0.35283229827602713  1.0000
  C   C17       1.0  0.43521324522319554  0.5314316456118674  0.7714481330958376  1.0000
  C   C18       1.0  0.9035382869392237  0.46854319168612335  0.7284389150835295  1.0000
  C   C19       1.0  0.56479143698526  0.46856978933385574  0.2285472904617265  1.0000
  C   C20       1.0  0.09646022016482186  0.5314594238755035  0.2715578096651612  1.0000
  C   C21       1.0  0.4460756971529989  0.6440208835303523  0.7109804567738465  1.0000
  C   C22       1.0  0.8017792185712053  0.35585464524877625  0.7888485933222285  1.0000
  C   C23       1.0  0.5539317940314135  0.3559794048317571  0.2890168867729344  1.0000
  C   C24       1.0  0.1982221687869127  0.6441514766383633  0.2111488127043444  1.0000
  C   C25       1.0  0.5133247438797498  0.6397960250778851  0.6272553461223821  1.0000
  C   C26       1.0  0.873135166408403  0.36036146782144834  0.8726249423512868  1.0000
  C   C27       1.0  0.4866873836011436  0.3602112827789554  0.3727440042441117  1.0000
  C   C28       1.0  0.1268672771365331  0.6396400010634481  0.1273737023169232  1.0000
  C   C29       1.0  0.16740934880731123  0.8527959255783061  0.4927035524083791  1.0000
  C   C30       1.0  0.3146059137950558  0.1472550299142625  0.0074069045200176  1.0000
  C   C31       1.0  0.8325909371120019  0.147210250406637  0.5072990072419046  1.0000
  C   C32       1.0  0.6853958429073401  0.8527382998015015  0.9925942300250057  1.0000
  C   C33       1.0  0.1114803051728046  0.9041840963249967  0.3461474287528431  1.0000
  C   C34       1.0  0.20694691560608902  0.0957863262362082  0.15390386260339275  1.0000
  C   C35       1.0  0.888521111464705  0.09582208631741912  0.6538557750219951  1.0000
  C   C36       1.0  0.7930492070249359  0.9042070106957425  0.8460979164843678  1.0000
  C   C37       1.0  0.8757513224213652  0.7705741762036808  0.4486622776896354  1.0000
  C   C38       1.0  0.10498456516489801  0.2293882904202675  0.051356298247839  1.0000
  C   C39       1.0  0.12424770959625418  0.2294249800071739  0.5513382749318367  1.0000
  C   C40       1.0  0.8950229487923737  0.7706120451959464  0.9486455546586967  1.0000
  N   N1        1.0  0.05730847328831602  0.8427601801378588  0.4316810124719197  1.0000
  N   N2        1.0  0.2143634055178865  0.15721761733485104  0.068374494854659  1.0000
  N   N3        1.0  0.9426895577011437  0.1572459960333319  0.5683215473177582  1.0000
  N   N4        1.0  0.7856395175417603  0.842778045492949  0.9316266644592517  1.0000
  O   O1        1.0  0.3952565437572062  0.8673434071994919  0.6861972659929023  1.0000
  O   O2        1.0  0.5279065305998643  0.13225670560269986  0.8135294754298457  1.0000
  O   O3        1.0  0.6047323215564758  0.13265570934591864  0.3137994220903408  1.0000
  O   O4        1.0  0.4720884678194963  0.86773663817295  0.1864729479218639  1.0000
  O   O5        1.0  0.2512560693917791  0.8454356370309597  0.8346504572690634  1.0000
  O   O6        1.0  0.4059461084174103  0.15427701847328024  0.665053754056764  1.0000
  O   O7        1.0  0.7487378176821197  0.15455999278886168  0.1653474816311657  1.0000
  O   O8        1.0  0.594043327208695  0.8457209854276827  0.33494807512634855  1.0000
  O   O9        1.0  0.5334919562840809  0.730139102524653  0.5668285153567824  1.0000
  O   O10       1.0  0.8030032756344383  0.27017602402017354  0.9331215525559173  1.0000
  O   O11       1.0  0.46652530963399386  0.2698717182220562  0.4331721603424512  1.0000
  O   O12       1.0  0.19699866902304555  0.7298289582201746  0.066878417793518  1.0000
  O   O13       1.0  0.1950574064664536  0.10238615496992051  0.8185451029124948  1.0000
  O   O14       1.0  0.09230137998608262  0.8979075579766518  0.6813984605962844  1.0000
  O   O15       1.0  0.804929900666565  0.8976188689844947  0.1814587335085278  1.0000
  O   O16       1.0  0.9076777657525809  0.1020833931422445  0.3185981411443493  1.0000
  O   O17       1.0  0.3264143514331365  0.9164716099641694  0.4843933746726136  1.0000
  O   O18       1.0  0.4099744694168024  0.0836113466691515  0.0157508751014674  1.0000
  O   O19       1.0  0.6735866019559824  0.0835404124882686  0.5156105354277827  1.0000
  O   O20       1.0  0.59002503235574  0.9163819832328528  0.9842502595829501  1.0000
