data_image0
_chemical_formula_structural       Zn4H22C82S2N4O20F20
_chemical_formula_sum              "Zn4 H22 C82 S2 N4 O20 F20"
_cell_length_a       16.539284155598303
_cell_length_b       17.879082171241183
_cell_length_c       30.62909848641566
_cell_angle_alpha    90.2570064611795
_cell_angle_beta     90.11838128672593
_cell_angle_gamma    89.96368977350149

_space_group_name_H-M_alt    "P 1"
_space_group_IT_number       1

loop_
  _space_group_symop_operation_xyz
  'x, y, z'

loop_
  _atom_site_type_symbol
  _atom_site_label
  _atom_site_symmetry_multiplicity
  _atom_site_fract_x
  _atom_site_fract_y
  _atom_site_fract_z
  _atom_site_occupancy
  Zn  Zn1       1.0  0.5860715769187623  0.5010592378163565  0.5019933131550476  1.0000
  Zn  Zn2       1.0  0.41719137555028846  0.5005154059589714  0.5020810858404732  1.0000
  Zn  Zn3       1.0  0.4140197950103683  0.503505889181966  0.9178895404926596  1.0000
  Zn  Zn4       1.0  0.582919394659875  0.5029819383141005  0.917622106315065  1.0000
  H   H1        1.0  0.2885764062489926  0.5672916985456952  0.5593899908138624  1.0000
  H   H2        1.0  0.2884919208592294  0.4266881809872417  0.4503057004079808  1.0000
  H   H3        1.0  0.7152457376861748  0.5855678086779508  0.549412621630033  1.0000
  H   H4        1.0  0.7150730672966787  0.41839729734585523  0.4540130479464041  1.0000
  H   H5        1.0  0.6318589375220468  0.7414618403760047  0.5038739546921607  1.0000
  H   H6        1.0  0.3712138525696815  0.735821524132419  0.49426548213977395  1.0000
  H   H7        1.0  0.635276891190749  0.2592647398057367  0.4970256438313357  1.0000
  H   H8        1.0  0.3749145596796311  0.2668445624218095  0.5078881091010035  1.0000
  H   H9        1.0  0.3734505764753919  0.509701604321812  0.05596774075073802  1.0000
  H   H10       1.0  0.6341820004389617  0.4941238906409071  0.05767893629246862  1.0000
  H   H11       1.0  0.3660793714665402  0.49117103406291573  0.36205832290009726  1.0000
  H   H12       1.0  0.6267887733935568  0.5067870564542218  0.36377178850714403  1.0000
  H   H13       1.0  0.7115041687089274  0.5696210193106809  0.8606402830295183  1.0000
  H   H14       1.0  0.7115975682579573  0.4290886537251169  0.9690243929569677  1.0000
  H   H15       1.0  0.2847511112302712  0.5876704666850542  0.8709355756287283  1.0000
  H   H16       1.0  0.28503234631121904  0.42054466138718294  0.9654869562117272  1.0000
  H   H17       1.0  0.3680128670828893  0.7437284669206151  0.9147623455263915  1.0000
  H   H18       1.0  0.6286987071308658  0.7385794783185418  0.9241394385619304  1.0000
  H   H19       1.0  0.36491762353868035  0.2620727791864611  0.9222022453963991  1.0000
  H   H20       1.0  0.6252308607601833  0.26899764960315764  0.9109213901357266  1.0000
  H   H21       1.0  0.3378476636494626  0.5896692923216095  0.677247317450693  1.0000
  H   H22       1.0  0.6618248993488365  0.589796872638182  0.7426703617726959  1.0000
  C   C1        1.0  0.5031591054659045  0.6461001652231957  0.5007612247106721  1.0000
  C   C2        1.0  0.5004979735756834  0.5011732219553836  0.5870922075771505  1.0000
  C   C3        1.0  0.5077110561326776  0.35553618388035363  0.5029912834142467  1.0000
  C   C4        1.0  0.49588683663162675  0.49765548350382727  0.4169446343941275  1.0000
  C   C5        1.0  0.49681234012306413  0.6485798047635145  0.9184977921712874  1.0000
  C   C6        1.0  0.4992745881881433  0.5021675180972665  0.8326768853111732  1.0000
  C   C7        1.0  0.4926263234026962  0.3579871048739918  0.9166782229158631  1.0000
  C   C8        1.0  0.504446923579259  0.501275625211058  0.0028062567838916014  1.0000
  C   C9        1.0  0.2531707685254005  0.536666805491997  0.5352266280203892  1.0000
  C   C10       1.0  0.1693221491289307  0.537264792556215  0.5358420762882192  1.0000
  C   C11       1.0  0.12360985192395191  0.4965539268218891  0.5049937686233222  1.0000
  C   C12       1.0  0.16920619468332626  0.45562304926251324  0.47424879487579835  1.0000
  C   C13       1.0  0.2529599587347064  0.457124391472476  0.47447839488799576  1.0000
  C   C14       1.0  0.038681422986961395  0.4972455868485712  0.5045872859592963  1.0000
  C   C15       1.0  0.9651108744894116  0.49840755627480615  0.5038943618104457  1.0000
  C   C16       1.0  0.880236533567995  0.49976694135968114  0.5030768863618107  1.0000
  C   C17       1.0  0.834549736796852  0.547783436696541  0.5300581017919797  1.0000
  C   C18       1.0  0.7507369922146054  0.5482489451424257  0.5287505263793834  1.0000
  C   C19       1.0  0.7506440548411604  0.4549927142175536  0.4751238418514846  1.0000
  C   C20       1.0  0.8344753011918299  0.45315098178575397  0.47522417094008074  1.0000
  C   C21       1.0  0.501646385672565  0.7298940584993546  0.4995072544732723  1.0000
  C   C22       1.0  0.5741069016703193  0.7703262672840481  0.5016112326036792  1.0000
  C   C23       1.0  0.5709462241631371  0.8475436968148813  0.5005826348096962  1.0000
  C   C24       1.0  0.4978293307178276  0.888218077952189  0.49798997324441546  1.0000
  C   C25       1.0  0.426766276565168  0.8445938681789187  0.4958066536374802  1.0000
  C   C26       1.0  0.4273715500999344  0.7673035068688776  0.49630402469120594  1.0000
  C   C27       1.0  0.4965765825305084  0.9668184788616756  0.49804674328441234  1.0000
  C   C28       1.0  0.4974527383797351  0.0350018093372171  0.49875958360726014  1.0000
  C   C29       1.0  0.4997957399393869  0.11355561531970444  0.49987449287030494  1.0000
  C   C30       1.0  0.5733162791237305  0.15359084074344762  0.49788879663257307  1.0000
  C   C31       1.0  0.5772756998073518  0.23079390442804026  0.4988268233287486  1.0000
  C   C32       1.0  0.5052834015325515  0.2717494953320668  0.5022826644514782  1.0000
  C   C33       1.0  0.4306524249583603  0.23495168944010913  0.5047634187854728  1.0000
  C   C34       1.0  0.429241176315017  0.1577094276521365  0.5032926383968575  1.0000
  C   C35       1.0  0.4324625173921319  0.4942732890362296  0.6628076407135951  1.0000
  C   C36       1.0  0.5671498690517042  0.49463926400370173  0.7569262305722477  1.0000
  C   C37       1.0  0.4989747983652819  0.49499971650983815  0.6352806150367628  1.0000
  C   C38       1.0  0.5006654938005469  0.4955611532320817  0.7844731000922139  1.0000
  C   C39       1.0  0.5421436037615167  0.49400030230269454  0.7124908119346502  1.0000
  C   C40       1.0  0.4574453077729359  0.49397147838223543  0.7072498200544788  1.0000
  C   C41       1.0  0.5038428850091848  0.5015389694296459  0.05173114124997372  1.0000
  C   C42       1.0  0.4300284043963245  0.5058957334525972  0.07397780625416323  1.0000
  C   C43       1.0  0.43041143610023613  0.5052777882041684  0.11907690231093683  1.0000
  C   C44       1.0  0.5020481236251301  0.501186144049079  0.14412441471611007  1.0000
  C   C45       1.0  0.5746714199941747  0.49750117758376433  0.12002931668072851  1.0000
  C   C46       1.0  0.5768259173012493  0.4972914150381058  0.0749149127158191  1.0000
  C   C47       1.0  0.500840259921027  0.5008004506881463  0.18998099291551546  1.0000
  C   C48       1.0  0.49909816948830604  0.5004702710410031  0.22976376666510134  1.0000
  C   C49       1.0  0.4980070863435985  0.4999587349218403  0.2756196926876343  1.0000
  C   C50       1.0  0.42544696339574267  0.4957959121136569  0.2997246239878067  1.0000
  C   C51       1.0  0.4233962234329383  0.4946124141043812  0.3448292902380886  1.0000
  C   C52       1.0  0.4964254034277643  0.49841792460688333  0.36801157740906393  1.0000
  C   C53       1.0  0.5701758064717808  0.5032205539969326  0.3457668893107738  1.0000
  C   C54       1.0  0.5696926384281298  0.50353254929032  0.3006699628842783  1.0000
  C   C55       1.0  0.7469040904765336  0.5389792764460068  0.8846560070254983  1.0000
  C   C56       1.0  0.8307537745882243  0.5395038451361671  0.8840567873895611  1.0000
  C   C57       1.0  0.8764663147700987  0.4987728943388348  0.9147037534474125  1.0000
  C   C58       1.0  0.8308958396298678  0.4578900071913666  0.9452376269798324  1.0000
  C   C59       1.0  0.7471307771848146  0.4594822546294424  0.9450119438349065  1.0000
  C   C60       1.0  0.9613913900615502  0.49940122659548797  0.9151158644046549  1.0000
  C   C61       1.0  0.03495868610325909  0.5004910843158542  0.9158572610438614  1.0000
  C   C62       1.0  0.11983489471312231  0.5018309813279843  0.9167240152987692  1.0000
  C   C63       1.0  0.1654899684681439  0.5498534052567196  0.8900121246205333  1.0000
  C   C64       1.0  0.249289575505351  0.5503477022910916  0.8913831845813294  1.0000
  C   C65       1.0  0.2494464251939021  0.457130481879247  0.9445458120521197  1.0000
  C   C66       1.0  0.1656151083139292  0.45521748776681664  0.9443520673607257  1.0000
  C   C67       1.0  0.498238323927609  0.7323994342962268  0.9191086083849883  1.0000
  C   C68       1.0  0.42570678757777364  0.7727327162160549  0.9167752585866042  1.0000
  C   C69       1.0  0.42871032071440135  0.8499781459023908  0.9172756299601732  1.0000
  C   C70       1.0  0.5017670059009304  0.8907432227195644  0.919592632235599  1.0000
  C   C71       1.0  0.5729260335329656  0.8472329721208496  0.9219493620745782  1.0000
  C   C72       1.0  0.5724621545831639  0.7699362976054402  0.9219505200360064  1.0000
  C   C73       1.0  0.5029308683492388  0.969313423249645  0.9193292227580943  1.0000
  C   C74       1.0  0.5022841645943288  0.0374863071594334  0.9187355243001323  1.0000
  C   C75       1.0  0.5001002981243872  0.11603502900307214  0.918032808994582  1.0000
  C   C76       1.0  0.42666408805059325  0.15624193927920518  0.9204352240227965  1.0000
  C   C77       1.0  0.42285321197594083  0.23345224817904156  0.920097821689332  1.0000
  C   C78       1.0  0.4949126901253108  0.2742142141325346  0.9168198563060205  1.0000
  C   C79       1.0  0.5694570155841417  0.2372339217842453  0.9139100215870146  1.0000
  C   C80       1.0  0.5707391874986242  0.15998339233566128  0.9147956467379077  1.0000
  C   C81       1.0  0.3457767999091246  0.4935289828993916  0.6484330954414048  1.0000
  C   C82       1.0  0.6538408006898493  0.49393213511849865  0.7712830610238657  1.0000
  S   S1        1.0  0.5908024510390107  0.49313097924365223  0.6627390851261339  1.0000
  S   S2        1.0  0.4088159340218311  0.49347103600557324  0.7570170126589064  1.0000
  N   N1        1.0  0.29306722517780054  0.49748363546569146  0.5046157114320808  1.0000
  N   N2        1.0  0.7106261104490486  0.5021250023946352  0.5016274381974102  1.0000
  N   N3        1.0  0.7070183141804804  0.49986064393814894  0.9150702681069165  1.0000
  N   N4        1.0  0.2894351336185109  0.5042970750199913  0.9183152961220176  1.0000
  O   O1        1.0  0.5708297728912582  0.6147597506844066  0.5088321535722644  1.0000
  O   O2        1.0  0.4363611530352216  0.612743965680231  0.49370405031988446  1.0000
  O   O3        1.0  0.43437867469367564  0.5181997781761613  0.568475951943583  1.0000
  O   O4        1.0  0.5687165834594552  0.489697168048835  0.5689370241963658  1.0000
  O   O5        1.0  0.44123449429299905  0.3892134455942583  0.510480400912421  1.0000
  O   O6        1.0  0.5757242953078219  0.3866991842300323  0.4960081042875189  1.0000
  O   O7        1.0  0.56316215889413  0.5095301952501217  0.4361106806830365  1.0000
  O   O8        1.0  0.4283542249973209  0.4854266540507127  0.43557094308770433  1.0000
  O   O9        1.0  0.42912560504834824  0.6170199239170914  0.9107168259950815  1.0000
  O   O10       1.0  0.5636430041461865  0.6154347957601305  0.925748308855795  1.0000
  O   O11       1.0  0.565463728889938  0.519406462607769  0.8512388661910183  1.0000
  O   O12       1.0  0.43118163254477787  0.4908441050802281  0.8509010022209795  1.0000
  O   O13       1.0  0.5591253220089029  0.3915113969254876  0.9093034523012309  1.0000
  O   O14       1.0  0.4246922815498663  0.3892877202887421  0.9239544162316595  1.0000
  O   O15       1.0  0.4372040914972715  0.5133000200091262  0.98370479227647  1.0000
  O   O16       1.0  0.5720115333915459  0.4890661312646147  0.9841204903360607  1.0000
  O   O17       1.0  0.30204706063931047  0.5545290342887982  0.662131271529333  1.0000
  O   O18       1.0  0.3130943210381787  0.44389557574049837  0.6280328503678378  1.0000
  O   O19       1.0  0.6975855122559195  0.554741000592486  0.7577281436600887  1.0000
  O   O20       1.0  0.6865052127709816  0.44439447273300214  0.7915477483050994  1.0000
  F   F1        1.0  0.13007010394240837  0.4149035560137976  0.44378499951140793  1.0000
  F   F2        1.0  0.13033147029774736  0.5778400902855626  0.5662674274657962  1.0000
  F   F3        1.0  0.8734391917041509  0.4056969476925404  0.44831334592689853  1.0000
  F   F4        1.0  0.8735600773355402  0.5941921518463931  0.5576498340636818  1.0000
  F   F5        1.0  0.3549722596350334  0.8810241823952368  0.4931914116390532  1.0000
  F   F6        1.0  0.6408844403597838  0.8869812802268983  0.5024021602770008  1.0000
  F   F7        1.0  0.3571785405463856  0.12178692669847631  0.5053089041808152  1.0000
  F   F8        1.0  0.6427869236013279  0.11359113240284562  0.4948096824400709  1.0000
  F   F9        1.0  0.6450865050200534  0.4937998561512488  0.1426814711729847  1.0000
  F   F10       1.0  0.359154828109979  0.5088307711937149  0.14080977206383954  1.0000
  F   F11       1.0  0.6409075359448125  0.5076142651574643  0.2789636120688215  1.0000
  F   F12       1.0  0.3549739806734494  0.49270543383022414  0.277085963624316  1.0000
  F   F13       1.0  0.8700406131113213  0.4171307659887518  0.9754872537213048  1.0000
  F   F14       1.0  0.8697650733320968  0.5800073697577305  0.853843284408683  1.0000
  F   F15       1.0  0.12665356872285827  0.4076857859686029  0.9709462837933034  1.0000
  F   F16       1.0  0.12646210132331248  0.5962244464269447  0.862624980546663  1.0000
  F   F17       1.0  0.6446340007817568  0.8838159915611288  0.9243110313310441  1.0000
  F   F18       1.0  0.35870922265818445  0.8893389350394117  0.915241666660741  1.0000
  F   F19       1.0  0.6427026679107187  0.12383372891251554  0.9124052269284991  1.0000
  F   F20       1.0  0.3571497198995743  0.11640787741011144  0.9233448228329312  1.0000
