data_image0
_chemical_formula_structural       Gd2H30C40S2N8O14
_chemical_formula_sum              "Gd2 H30 C40 S2 N8 O14"
_cell_length_a       9.602180623918917
_cell_length_b       9.767403485678225
_cell_length_c       12.143765559765137
_cell_angle_alpha    74.13929643383551
_cell_angle_beta     77.32586102879704
_cell_angle_gamma    63.983436174514985

_space_group_name_H-M_alt    "P 1"
_space_group_IT_number       1

loop_
  _space_group_symop_operation_xyz
  'x, y, z'

loop_
  _atom_site_type_symbol
  _atom_site_label
  _atom_site_symmetry_multiplicity
  _atom_site_fract_x
  _atom_site_fract_y
  _atom_site_fract_z
  _atom_site_occupancy
  Gd  Gd1       1.0  0.6963212472740279  0.48962078182843544  0.9351321845232833  1.0000
  Gd  Gd2       1.0  0.3036741693292554  0.5103837596415491  0.06486813335514802  1.0000
  H   H1        1.0  0.8140012128238323  0.679634858685617  0.06603629936388695  1.0000
  H   H2        1.0  0.18600914844001434  0.32037014521221613  0.933955004934575  1.0000
  H   H3        1.0  0.8019423635881322  0.9387602549467149  0.07049576873903621  1.0000
  H   H4        1.0  0.1980666907216531  0.06123994708485721  0.9295016678143144  1.0000
  H   H5        1.0  0.65726870409825  0.17169883079044015  0.9278193693418972  1.0000
  H   H6        1.0  0.3427393017650711  0.8283036610641336  0.07218023147347452  1.0000
  H   H7        1.0  0.30985014159207214  0.5111116796204342  0.6343281451150133  1.0000
  H   H8        1.0  0.6901534785329344  0.48888367563871793  0.3656719574160476  1.0000
  H   H9        1.0  0.30963448800310533  0.0447677131972455  0.546456569857888  1.0000
  H   H10       1.0  0.6903568223041673  0.955228397130384  0.453553533070945  1.0000
  H   H11       1.0  0.36910252420526735  0.76624253471352  0.5515324960121931  1.0000
  H   H12       1.0  0.6308771473760685  0.23375327555234557  0.44848030590396354  1.0000
  H   H13       1.0  0.5338252394825103  0.5579171429489662  0.6978552413727713  1.0000
  H   H14       1.0  0.46616424159939374  0.44207300039623487  0.30215966703858754  1.0000
  H   H15       1.0  0.9827427367196716  0.3208411903258438  0.28553072324750434  1.0000
  H   H16       1.0  0.01724786978635955  0.6791551092867182  0.7144646233879612  1.0000
  H   H17       1.0  0.13060869361974875  0.12677644692917775  0.44113330208520557  1.0000
  H   H18       1.0  0.8693799961710692  0.8732314761353025  0.5588657220304828  1.0000
  H   H19       1.0  0.1911814056585255  0.843367320444486  0.4600509509234669  1.0000
  H   H20       1.0  0.8088164734491979  0.1566337107289897  0.5399529991013381  1.0000
  H   H21       1.0  0.9554832782010079  0.9602517223214947  0.163362368002332  1.0000
  H   H22       1.0  0.044524189712397785  0.0397449723907499  0.8366319174711876  1.0000
  H   H23       1.0  0.0011467890647977339  0.4252400411121755  0.779487351570431  1.0000
  H   H24       1.0  0.9988508380223916  0.5747646125921478  0.22050848016714758  1.0000
  H   H25       1.0  0.02119099417782868  0.5219149178273174  0.8613572479668508  1.0000
  H   H26       1.0  0.9788048898531938  0.478086132790999  0.13864206658897169  1.0000
  H   H27       1.0  0.5133370283659955  0.6029784853624989  0.1417005296789071  1.0000
  H   H28       1.0  0.48666461236092556  0.39702152136764823  0.8582989259526529  1.0000
  H   H29       1.0  0.2557997241593383  0.3105260663940968  0.5812761978820973  1.0000
  H   H30       1.0  0.7441939963920349  0.6894772119446344  0.41872793862480523  1.0000
  C   C1        1.0  0.7540595259838906  0.7821031403257097  0.003629320059431459  1.0000
  C   C2        1.0  0.24595441281758923  0.21789841537820828  0.9963629586963594  1.0000
  C   C3        1.0  0.7467325175631387  0.9276548005432232  0.0060714404957380634  1.0000
  C   C4        1.0  0.2532817907537179  0.07234320445486021  0.9939239811237286  1.0000
  C   C5        1.0  0.6677328601319273  0.05650118511590561  0.9267455981040628  1.0000
  C   C6        1.0  0.3322804780683624  0.9434991575885122  0.07324867082839866  1.0000
  C   C7        1.0  0.5966398127276449  0.03720330317791821  0.8455216456515233  1.0000
  C   C8        1.0  0.4033706987089186  0.9627910822664848  0.15447511102896527  1.0000
  C   C9        1.0  0.5038055806000442  0.16244205398161432  0.7634316133149568  1.0000
  C   C10       1.0  0.4962033405362757  0.8375534441987896  0.23656681009244818  1.0000
  C   C11       1.0  0.367599772924734  0.38721129458873105  0.6674042492623755  1.0000
  C   C12       1.0  0.6324074717421552  0.612782952431246  0.33259716353624225  1.0000
  C   C13       1.0  0.4283978412459389  0.13626517259690735  0.6898340658925478  1.0000
  C   C14       1.0  0.571608319713391  0.8637267202490765  0.3101663518358607  1.0000
  C   C15       1.0  0.44637258754599396  0.9849371703665711  0.6858922558649924  1.0000
  C   C16       1.0  0.5536309855747561  0.015055844937826602  0.31410751085584115  1.0000
  C   C17       1.0  0.3818145465464296  0.9508912393023012  0.6086131147849443  1.0000
  C   C18       1.0  0.6181822018494856  0.04910509774241941  0.39138950435943093  1.0000
  C   C19       1.0  0.41351421143941264  0.7976043871124433  0.6116833808029511  1.0000
  C   C20       1.0  0.5864729794764614  0.20239399432210098  0.3883252501334482  1.0000
  C   C21       1.0  0.5064901015260829  0.6798713951556508  0.6932089472720406  1.0000
  C   C22       1.0  0.49350445596839154  0.3201248416255709  0.30679732877592164  1.0000
  C   C23       1.0  0.5404555051722255  0.8582586296350315  0.7660232789837523  1.0000
  C   C24       1.0  0.4595470782494786  0.14173671140486735  0.23397616428732712  1.0000
  C   C25       1.0  0.6114663232680113  0.8849238381887902  0.8478482321908202  1.0000
  C   C26       1.0  0.3885363933271577  0.11507620670228394  0.15215022422620447  1.0000
  C   C27       1.0  0.8743558032288377  0.2713185471412843  0.11707007547268942  1.0000
  C   C28       1.0  0.12563707254010828  0.7286894567418685  0.8829299272084016  1.0000
  C   C29       1.0  0.9596294450007291  0.15311639809126382  0.2140282023593656  1.0000
  C   C30       1.0  0.040368123339042807  0.846888219700553  0.7859701170899953  1.0000
  C   C31       1.0  0.009638617067814369  0.19873813332351636  0.292806117214738  1.0000
  C   C32       1.0  0.9903524608014035  0.8012616115057939  0.7071950381896102  1.0000
  C   C33       1.0  0.09461907694461758  0.08864464501220232  0.3800225803667274  1.0000
  C   C34       1.0  0.9053732178056105  0.9113621578422767  0.6199785832537756  1.0000
  C   C35       1.0  0.12829080727234998  0.9317135919367772  0.39115216973628003  1.0000
  C   C36       1.0  0.871707130582791  0.06828747514919802  0.6088492925767569  1.0000
  C   C37       1.0  0.0755678644636573  0.8862835288089459  0.3147211328882733  1.0000
  C   C38       1.0  0.9244343964469264  0.11371770289154882  0.6852755033293577  1.0000
  C   C39       1.0  0.9926311711136644  0.9956747421217358  0.22548238885467953  1.0000
  C   C40       1.0  0.0073694916573784925  0.004325286301664699  0.7745139198051306  1.0000
  S   S1        1.0  0.11831127971744575  0.6849656474431287  0.3311363620518222  1.0000
  S   S2        1.0  0.8816884207763421  0.3150390346996943  0.6688607882057198  1.0000
  N   N1        1.0  0.6895630917577121  0.7599402671684036  0.9268643719456903  1.0000
  N   N2        1.0  0.310440708545002  0.24006213189667136  0.07313507954154372  1.0000
  N   N3        1.0  0.4645039850888111  0.3199417519961188  0.7477539293602504  1.0000
  N   N4        1.0  0.5355048773000985  0.6800537102717855  0.2522469817589297  1.0000
  N   N5        1.0  0.3438033732281481  0.281436139863665  0.6286827028271916  1.0000
  N   N6        1.0  0.6561975337241178  0.7185579500158142  0.3713197298351005  1.0000
  N   N7        1.0  0.5668201407284953  0.7091968581315912  0.7687235094731122  1.0000
  N   N8        1.0  0.43317762478824295  0.2907994811615425  0.23128059816850313  1.0000
  O   O1        1.0  0.8192915164274553  0.23026943546317824  0.05136115602986276  1.0000
  O   O2        1.0  0.1806980651500394  0.7697361020116349  0.9486423377218645  1.0000
  O   O3        1.0  0.8579792911769673  0.41310353332106337  0.10133096964283789  1.0000
  O   O4        1.0  0.14201134533406176  0.5869104285508515  0.8986582735667739  1.0000
  O   O5        1.0  0.967501506066014  0.6764643104180411  0.33343323912834694  1.0000
  O   O6        1.0  0.03249319892830719  0.32354966044753314  0.6665619580702186  1.0000
  O   O7        1.0  0.1928353529498991  0.6033205717502242  0.4362877052188523  1.0000
  O   O8        1.0  0.8071595413820843  0.3966828046035858  0.563711285887216  1.0000
  O   O9        1.0  0.22197620845585653  0.6417466419670887  0.2251732733555656  1.0000
  O   O10       1.0  0.7780305021965644  0.358248743978976  0.7748296361926847  1.0000
  O   O11       1.0  0.953681232191819  0.4767554411827818  0.8463476672083985  1.0000
  O   O12       1.0  0.046317773692258916  0.5232433480510323  0.1536508016053588  1.0000
  O   O13       1.0  0.504498677128211  0.5678287063873029  0.07517971000531536  1.0000
  O   O14       1.0  0.4954971677378593  0.43217232028934677  0.9248212630250238  1.0000
