data_image0
_chemical_formula_structural       H20Pb2C44N4O8F24
_chemical_formula_sum              "H20 Pb2 C44 N4 O8 F24"
_cell_length_a       9.413251487813952
_cell_length_b       12.436055156705978
_cell_length_c       12.436788080313338
_cell_angle_alpha    60.13698083874028
_cell_angle_beta     71.73859460518193
_cell_angle_gamma    71.74094121596372

_space_group_name_H-M_alt    "P 1"
_space_group_IT_number       1

loop_
  _space_group_symop_operation_xyz
  'x, y, z'

loop_
  _atom_site_type_symbol
  _atom_site_label
  _atom_site_symmetry_multiplicity
  _atom_site_fract_x
  _atom_site_fract_y
  _atom_site_fract_z
  _atom_site_occupancy
  H   H1        1.0  0.8927678535211497  0.036257743222741105  0.38717792819090135  1.0000
  H   H2        1.0  0.6072323685734846  0.6128248622776197  0.9637389048303289  1.0000
  H   H3        1.0  0.1072343205709387  0.9637396586030605  0.6128216894411196  1.0000
  H   H4        1.0  0.39276403169932195  0.387178209144487  0.0362608730852544  1.0000
  H   H5        1.0  0.374984130431443  0.020734173790486896  0.21769172618161994  1.0000
  H   H6        1.0  0.12501403784054332  0.7823091026329081  0.9792689170306941  1.0000
  H   H7        1.0  0.6250136054199161  0.9792679533163735  0.782307400327511  1.0000
  H   H8        1.0  0.8749848165342301  0.21769302168113563  0.020730750217161635  1.0000
  H   H9        1.0  0.4358602649990218  0.9030497115804794  0.4339895998927473  1.0000
  H   H10       1.0  0.06414041611925818  0.5660065045163095  0.09695478541449627  1.0000
  H   H11       1.0  0.5641406106700373  0.09695335331558398  0.5660099261614417  1.0000
  H   H12       1.0  0.9358604228284765  0.43399184317315337  0.9030446786852052  1.0000
  H   H13       1.0  0.39167444439736687  0.6800151403593446  0.5682451465049141  1.0000
  H   H14       1.0  0.10832375551704133  0.431750434187343  0.3199890405943364  1.0000
  H   H15       1.0  0.608325743819158  0.31998603344581505  0.43175708909159033  1.0000
  H   H16       1.0  0.891676395978152  0.5682460224112093  0.6800131330476801  1.0000
  H   H17       1.0  0.303140138663018  0.4989079730514376  0.5909079111015599  1.0000
  H   H18       1.0  0.19685879564248412  0.4090886776869597  0.5010941263874498  1.0000
  H   H19       1.0  0.6968625058264664  0.5010922613877113  0.4090901891333444  1.0000
  H   H20       1.0  0.8031402744848251  0.5909125004594243  0.49890676353154356  1.0000
  Pb  Pb1       1.0  0.2500003576179565  0.9941545715776101  0.005842924225256043  1.0000
  Pb  Pb2       1.0  0.7499991794331606  0.0058494267948319  0.9941628878068226  1.0000
  C   C1        1.0  0.9175699046484669  0.9742057623475306  0.2487771060344528  1.0000
  C   C2        1.0  0.5824295064681095  0.7512181509099277  0.02579510895807871  1.0000
  C   C3        1.0  0.08242714548715212  0.02579447986206421  0.7512215102618781  1.0000
  C   C4        1.0  0.4175765342207427  0.24878680629306155  0.9741974309985293  1.0000
  C   C5        1.0  0.94915382417517  0.04685602539382221  0.2926371956633601  1.0000
  C   C6        1.0  0.5508411161553538  0.707368062911847  0.9531406410283979  1.0000
  C   C7        1.0  0.05084279402117185  0.9531461076026702  0.7073597802294813  1.0000
  C   C8        1.0  0.4491570909618047  0.2926368999051761  0.046855358206059315  1.0000
  C   C9        1.0  0.0428575879614783  0.1373672484426294  0.21814803830098126  1.0000
  C   C10       1.0  0.4571447181466085  0.7818519511295106  0.8626306910703077  1.0000
  C   C11       1.0  0.9571352401201452  0.8626367744287649  0.7818505046048188  1.0000
  C   C12       1.0  0.5428568462775871  0.21815300950270006  0.1373637106252446  1.0000
  C   C13       1.0  0.8202230628763376  0.8739025229200766  0.3492776107562036  1.0000
  C   C14       1.0  0.6797758157525635  0.6507216381227608  0.1260957449543412  1.0000
  C   C15       1.0  0.1797779922581384  0.1260948801501343  0.6507222710758568  1.0000
  C   C16       1.0  0.3202234714298768  0.3492785985011935  0.873903952819461  1.0000
  C   C17       1.0  0.0520716578669393  0.2194895266802064  0.276246948057512  1.0000
  C   C18       1.0  0.4479270218479386  0.7237534219389018  0.7805111877927046  1.0000
  C   C19       1.0  0.9479238405033927  0.7805126044638727  0.7237519019129266  1.0000
  C   C20       1.0  0.5520720487135762  0.27624775775589683  0.21948889718751727  1.0000
  C   C21       1.0  0.3565742204114528  0.9242725215730234  0.27827778932368114  1.0000
  C   C22       1.0  0.1434288527247247  0.7217241749123886  0.07572522001601112  1.0000
  C   C23       1.0  0.6434273051204189  0.0757277141105277  0.7217205751112629  1.0000
  C   C24       1.0  0.856570217836783  0.27827700478240297  0.9242748649642037  1.0000
  C   C25       1.0  0.3911343850285435  0.8573824917330622  0.3998615690976025  1.0000
  C   C26       1.0  0.10886519848244089  0.6001326091069573  0.1426237275513742  1.0000
  C   C27       1.0  0.6088680424058097  0.14261868422850907  0.6001377232824865  1.0000
  C   C28       1.0  0.8911316345980396  0.39986857462506  0.8573760808901552  1.0000
  C   C29       1.0  0.3673227454981501  0.7347855316802524  0.4730229469933389  1.0000
  C   C30       1.0  0.1326782230306379  0.5269767556076131  0.2652129316400931  1.0000
  C   C31       1.0  0.6326796815020046  0.26521564273291187  0.5269771503255285  1.0000
  C   C32       1.0  0.8673228316696396  0.47302064591418985  0.734787755130746  1.0000
  C   C33       1.0  0.3090571946823602  0.6795523446270976  0.4244528084913028  1.0000
  C   C34       1.0  0.19094136984282534  0.5755437161317901  0.32045125266169083  1.0000
  C   C35       1.0  0.6909470002698157  0.32044599623232267  0.5755474728858231  1.0000
  C   C36       1.0  0.8090585654656338  0.4244536850860073  0.6795505032479594  1.0000
  C   C37       1.0  0.2783999993082062  0.7539235473488332  0.30000233788048564  1.0000
  C   C38       1.0  0.22160104031862465  0.6999994288750956  0.24607404347027984  1.0000
  C   C39       1.0  0.7216032924388927  0.24607384858732928  0.6999994303678176  1.0000
  C   C40       1.0  0.7784000135132486  0.2999979695498851  0.7539282531781097  1.0000
  C   C41       1.0  0.2790480548090883  0.5539165868417939  0.4957223136218331  1.0000
  C   C42       1.0  0.22095374849366317  0.5042771799976365  0.44608060165377583  1.0000
  C   C43       1.0  0.7209583789267171  0.4460817546256307  0.504275829477656  1.0000
  C   C44       1.0  0.7790457540071217  0.49572210891025054  0.5539211237299353  1.0000
  N   N1        1.0  0.30153468064136035  0.8745025354408397  0.2302687278191301  1.0000
  N   N2        1.0  0.19847004287891687  0.7697283449388338  0.1255005206070976  1.0000
  N   N3        1.0  0.6984695151792124  0.12549580851539593  0.7697299436804453  1.0000
  N   N4        1.0  0.801530794766215  0.23026999810539195  0.8745013583089329  1.0000
  O   O1        1.0  0.9622146447492951  0.9760040165311209  0.14086673816738965  1.0000
  O   O2        1.0  0.5377830616392175  0.8591356529745795  0.023996198211015996  1.0000
  O   O3        1.0  0.03778171880218651  0.023994337684371203  0.859132977793706  1.0000
  O   O4        1.0  0.46221979556341347  0.14086362445803502  0.9760087592664488  1.0000
  O   O5        1.0  0.12273160232652457  0.1613211815544346  0.10949723109609269  1.0000
  O   O6        1.0  0.3772615766591373  0.8905079137108841  0.8386744863843562  1.0000
  O   O7        1.0  0.8772676472661943  0.8386743347660901  0.8905040146007718  1.0000
  O   O8        1.0  0.6227350398004106  0.10949421309197764  0.1613257092635861  1.0000
  F   F1        1.0  0.7086742435614113  0.9135985322959713  0.4292023535028945  1.0000
  F   F2        1.0  0.7913277421727614  0.5707947732104016  0.08640361810888211  1.0000
  F   F3        1.0  0.29132612542311886  0.0863969843285588  0.5707978230551517  1.0000
  F   F4        1.0  0.2086746450666724  0.4292016731572801  0.9136020518269276  1.0000
  F   F5        1.0  0.9132800872779685  0.7691396170536465  0.42316006307801507  1.0000
  F   F6        1.0  0.5867201114246325  0.5768377983770138  0.23086110901270734  1.0000
  F   F7        1.0  0.08672367660332722  0.23086061768950117  0.5768369680180641  1.0000
  F   F8        1.0  0.41327762442672633  0.4231643287298467  0.7691380174964237  1.0000
  F   F9        1.0  0.7548391452404672  0.8327020303797141  0.2969968435678041  1.0000
  F   F10       1.0  0.7451590389198868  0.7030057209313298  0.1672955095729663  1.0000
  F   F11       1.0  0.24516436399596844  0.1672944255824333  0.7030029275965289  1.0000
  F   F12       1.0  0.25483533875603115  0.29699640526352056  0.8327068243526126  1.0000
  F   F13       1.0  0.19389096371455136  0.19090093802847719  0.3026466540329835  1.0000
  F   F14       1.0  0.3061062399536283  0.6973522633283694  0.8091000739161556  1.0000
  F   F15       1.0  0.8061065187945361  0.8090974149426131  0.6973527977280723  1.0000
  F   F16       1.0  0.6938917112160681  0.3026489160624238  0.19090108020288443  1.0000
  F   F17       1.0  0.9501890537131034  0.2056496668008023  0.38596767783478475  1.0000
  F   F18       1.0  0.5498098260347318  0.6140314350477709  0.794349689148774  1.0000
  F   F19       1.0  0.04980842879599115  0.7943486861702882  0.6140317739262712  1.0000
  F   F20       1.0  0.4501874385508275  0.38596785634892683  0.2056525646350237  1.0000
  F   F21       1.0  0.026737439901538092  0.34425673969642656  0.19344120170536172  1.0000
  F   F22       1.0  0.4732610347524684  0.8065590035475625  0.6557446762070355  1.0000
  F   F23       1.0  0.973259391876347  0.6557444393903609  0.8065610215524899  1.0000
  F   F24       1.0  0.5267395880085246  0.1934402887611384  0.3442543701603071  1.0000
