data_image0
_chemical_formula_structural       Zr6H28C50S5O47F2
_chemical_formula_sum              "Zr6 H28 C50 S5 O47 F2"
_cell_length_a       14.783962974017328
_cell_length_b       14.773716331759408
_cell_length_c       14.81513926160467
_cell_angle_alpha    60.16931923762674
_cell_angle_beta     59.69122553149975
_cell_angle_gamma    60.19036658563148

_space_group_name_H-M_alt    "P 1"
_space_group_IT_number       1

loop_
  _space_group_symop_operation_xyz
  'x, y, z'

loop_
  _atom_site_type_symbol
  _atom_site_label
  _atom_site_symmetry_multiplicity
  _atom_site_fract_x
  _atom_site_fract_y
  _atom_site_fract_z
  _atom_site_occupancy
  Zr  Zr1       1.0  0.8740202454130572  0.8752150913593862  0.6193958277144345  1.0000
  Zr  Zr2       1.0  0.11051634179759863  0.11779278157226974  0.38218150485745644  1.0000
  Zr  Zr3       1.0  0.1132378522875897  0.8753018604494827  0.6171933814571134  1.0000
  Zr  Zr4       1.0  0.8705893487378445  0.11843181561126645  0.3828727373474762  1.0000
  Zr  Zr5       1.0  0.11153950761580958  0.8837662389401543  0.37543797944282176  1.0000
  Zr  Zr6       1.0  0.8728380351543308  0.11303569078638974  0.6233934142474595  1.0000
  H   H1        1.0  0.08924449172442922  0.7148056611581592  0.5896845347281497  1.0000
  H   H2        1.0  0.0826041534071038  0.09960982409030807  0.2174360754619826  1.0000
  H   H3        1.0  0.08873070696273538  0.08719868659768082  0.595955044328683  1.0000
  H   H4        1.0  0.7105490258497867  0.0875401345645486  0.5970808831524862  1.0000
  H   H5        1.0  0.8223711433411367  0.6208683137360038  0.5913391511751555  1.0000
  H   H6        1.0  0.16650580639842635  0.5573278655398325  0.3838670732511744  1.0000
  H   H7        1.0  0.8280704253580282  0.4486034698223945  0.5918564777835157  1.0000
  H   H8        1.0  0.5562182265373824  0.8645059373073778  0.9128288383706148  1.0000
  H   H9        1.0  0.5864052619309562  0.14466048174197252  0.9031069159949539  1.0000
  H   H10       1.0  0.3854969164221842  0.8804762339649344  0.07904589491792537  1.0000
  H   H11       1.0  0.09293461927190128  0.824894865152764  0.11962309531869401  1.0000
  H   H12       1.0  0.8700457945684121  0.1598315139239688  0.06920898572426636  1.0000
  H   H13       1.0  0.08911241843544102  0.8282720649095624  0.9516564577116853  1.0000
  H   H14       1.0  0.5600297692227871  0.4155962699557918  0.656416517336801  1.0000
  H   H15       1.0  0.6161718416300418  0.42250914720441546  0.33855210604351527  1.0000
  H   H16       1.0  0.39583168865700463  0.5867859953181309  0.6387129573030635  1.0000
  H   H17       1.0  0.7520891674314213  0.6001432305214252  0.9349577801154183  1.0000
  H   H18       1.0  0.8674921948127476  0.5141294854076505  0.8564502846928757  1.0000
  H   H19       1.0  0.8620671676596106  0.35021817553734963  0.02852472271461429  1.0000
  H   H20       1.0  0.746983573910086  0.4360054910070445  0.1074679663443518  1.0000
  H   H21       1.0  0.6116254374291473  0.09591819291927799  0.32882663460980405  1.0000
  H   H22       1.0  0.5700446093342038  0.8639225242520608  0.6601621900326292  1.0000
  H   H23       1.0  0.44399288448259006  0.08800850570539616  0.33649030185690515  1.0000
  H   H24       1.0  0.2595895837031891  0.1831333212910735  0.4283142748025242  1.0000
  H   H25       1.0  0.2611210566749804  0.3045624610759957  0.15374302943781254  1.0000
  H   H26       1.0  0.9157602412568123  0.2574734069774035  0.698463959951482  1.0000
  H   H27       1.0  0.3014704854614648  0.6740839636957077  0.32953873046729837  1.0000
  H   H28       1.0  0.20271297117714937  0.8963973092935333  0.7645769573389457  1.0000
  C   C1        1.0  0.9937110482963623  0.6994590298626516  0.48902913353862215  1.0000
  C   C2        1.0  0.29477787508366754  0.008868858132245756  0.194301312698137  1.0000
  C   C3        1.0  0.9961951361114247  0.3023888171461378  0.499094306519879  1.0000
  C   C4        1.0  0.6897572609698843  0.9925561039347951  0.804842750947806  1.0000
  C   C5        1.0  0.9853357844670539  0.7025185248704846  0.8095619841386323  1.0000
  C   C6        1.0  0.6970015079045098  0.9875539108822478  0.49594768309626835  1.0000
  C   C7        1.0  0.9780875881881459  0.31313840836799045  0.21186110350352277  1.0000
  C   C8        1.0  0.30355311003706487  0.9863496820725075  0.5028678787266898  1.0000
  C   C9        1.0  0.3077867070034444  0.6992912227030316  0.48331579966376376  1.0000
  C   C10       1.0  0.9908615684945161  0.9933369556821101  0.8091211367073398  1.0000
  C   C11       1.0  0.6935209440540008  0.3026568898632362  0.5050066409822449  1.0000
  C   C12       1.0  0.9851855496279215  0.995904604995715  0.20145509845883655  1.0000
  C   C13       1.0  0.0001522102233550452  0.40509857546145167  0.49080371451827176  1.0000
  C   C14       1.0  0.9937905723956035  0.5996686536129159  0.4866478001674323  1.0000
  C   C15       1.0  0.09663927076250198  0.43651668233788127  0.4305901663330474  1.0000
  C   C16       1.0  0.8981313261324219  0.5694795904237322  0.5458410729479367  1.0000
  C   C17       1.0  0.0919799269905184  0.5340246338561627  0.42849327317229313  1.0000
  C   C18       1.0  0.9018328660491336  0.4733357661334095  0.5465935703535081  1.0000
  C   C19       1.0  0.39053363553931314  0.01811439578057859  0.08762017939137925  1.0000
  C   C20       1.0  0.5834255873530126  0.0020240714598001902  0.8999592663560847  1.0000
  C   C21       1.0  0.4460412452924345  0.09649570584173964  0.03488318855018231  1.0000
  C   C22       1.0  0.5255124713747606  0.9290882278287713  0.9468396430527691  1.0000
  C   C23       1.0  0.5418143210611817  0.08672633631821465  0.9422191406666016  1.0000
  C   C24       1.0  0.4299007376800718  0.93852337784066  0.03911834463976757  1.0000
  C   C25       1.0  0.9822114557577422  0.9970633774866682  0.9122200522295856  1.0000
  C   C26       1.0  0.9812025013222371  0.9924430022425881  0.10451458505868769  1.0000
  C   C27       1.0  0.9183430083037153  0.09152938265479091  0.94678295726856  1.0000
  C   C28       1.0  0.04325559350453309  0.898531528846533  0.0719010660158047  1.0000
  C   C29       1.0  0.9177414935269681  0.08723947835300538  0.043105043270216296  1.0000
  C   C30       1.0  0.041994806001085315  0.9012305346826824  0.9773446616934366  1.0000
  C   C31       1.0  0.4127872737717482  0.6016900053494466  0.47958251397908896  1.0000
  C   C32       1.0  0.5969626274516389  0.40710306139310853  0.49918487918438353  1.0000
  C   C33       1.0  0.47862539093542017  0.5555565461818901  0.3926959102558882  1.0000
  C   C34       1.0  0.5364970483427671  0.45425786713889227  0.5832587545378943  1.0000
  C   C35       1.0  0.5676629858532112  0.4584423612442591  0.4045734839155487  1.0000
  C   C36       1.0  0.4448060495674114  0.5497961020963871  0.5732762651527281  1.0000
  C   C37       1.0  0.9746622134798532  0.6128695551266502  0.9183578907432801  1.0000
  C   C38       1.0  0.9699198392698065  0.42008865261959  0.11909925015467562  1.0000
  C   C39       1.0  0.909513188500931  0.5485130391737197  0.9583696664596885  1.0000
  C   C40       1.0  0.029604320166335275  0.4893038044218089  0.08377335662392227  1.0000
  C   C41       1.0  0.9070960884500893  0.456330539472283  0.05451403190593831  1.0000
  C   C42       1.0  0.03225396328095815  0.5816312130115477  0.9872474285360581  1.0000
  C   C43       1.0  0.8317726118992538  0.5329325219138566  0.9330409499689977  1.0000
  C   C44       1.0  0.8287332478768052  0.42909657958213615  0.04196439424819669  1.0000
  C   C45       1.0  0.40848943960128975  0.9762321549795274  0.5039986773565344  1.0000
  C   C46       1.0  0.6004637153057857  0.980724696392322  0.4946261077684253  1.0000
  C   C47       1.0  0.4462718326257118  0.9097556966358269  0.5956723445191301  1.0000
  C   C48       1.0  0.5658139093716343  0.043556701918042444  0.40282850778744717  1.0000
  C   C49       1.0  0.5420186657072327  0.9127276731516145  0.5893091108155062  1.0000
  C   C50       1.0  0.4710792888807163  0.03999589041672638  0.40799544651250125  1.0000
  S   S1        1.0  0.23427285996105962  0.3597098237647601  0.35777416680670615  1.0000
  S   S2        1.0  0.42075409586459495  0.2057641362728333  0.07682550188670224  1.0000
  S   S3        1.0  0.8390163094863042  0.22678337462499326  0.8753970451140417  1.0000
  S   S4        1.0  0.4711982995940147  0.6174460616125473  0.255701079211775  1.0000
  S   S5        1.0  0.38254553068134817  0.8194737434236712  0.7281348147983806  1.0000
  O   O1        1.0  0.9165357190122523  0.7366469968173063  0.5674425516523769  1.0000
  O   O2        1.0  0.2575249735106411  0.07737975066120124  0.24342730632365311  1.0000
  O   O3        1.0  0.06850880723123962  0.26019553916399474  0.4239566260730924  1.0000
  O   O4        1.0  0.7287910422663803  0.914514245966359  0.767015478287341  1.0000
  O   O5        1.0  0.06631089427190072  0.7387606318158859  0.7647966930640352  1.0000
  O   O6        1.0  0.7325138459560565  0.0677478807725079  0.42163506456093797  1.0000
  O   O7        1.0  0.9053087405164532  0.2694278286684833  0.24641142682086317  1.0000
  O   O8        1.0  0.25961080003558856  0.9120787602042667  0.5744899145710107  1.0000
  O   O9        1.0  0.263271388842462  0.7383944308870483  0.40979892303127485  1.0000
  O   O10       1.0  0.9152856581471696  0.06437433773555758  0.768117186681657  1.0000
  O   O11       1.0  0.7328508137822569  0.26337293439566156  0.5814742922621078  1.0000
  O   O12       1.0  0.06393368266382998  0.9207702214478529  0.23790807425507404  1.0000
  O   O13       1.0  0.07425386770660959  0.919004115136225  0.7675018379659235  1.0000
  O   O14       1.0  0.7294131964159333  0.2596071706333305  0.4318035643295061  1.0000
  O   O15       1.0  0.9115406063747714  0.07491883222484562  0.2390599194206472  1.0000
  O   O16       1.0  0.2650038559392132  0.7362816754329768  0.5619938248318448  1.0000
  O   O17       1.0  0.9138893293201137  0.7350831509580827  0.7661026739299928  1.0000
  O   O18       1.0  0.26187138441655833  0.07134572942754858  0.4302738249272906  1.0000
  O   O19       1.0  0.058068503517361605  0.2698795632809947  0.24749563569599786  1.0000
  O   O20       1.0  0.7353824746251051  0.9134126837369932  0.573653411416167  1.0000
  O   O21       1.0  0.7343090809589157  0.06545275104225816  0.7667720877380049  1.0000
  O   O22       1.0  0.07210469595851536  0.7383026799354225  0.4140107912593152  1.0000
  O   O23       1.0  0.2556203154888979  0.932251273091154  0.23062655044833485  1.0000
  O   O24       1.0  0.9200070792433408  0.26245351270880235  0.5819432301252688  1.0000
  O   O25       1.0  0.7910099947145711  0.061734461611109674  0.5697853176440545  1.0000
  O   O26       1.0  0.060760685971054273  0.061892590478805666  0.5689400746470525  1.0000
  O   O27       1.0  0.05726060596338563  0.07012344934526031  0.2976938066994991  1.0000
  O   O28       1.0  0.06251424975518916  0.7949308640645185  0.5634530164930923  1.0000
  O   O29       1.0  0.14281972365568413  0.9486862875310677  0.4481868104305704  1.0000
  O   O30       1.0  0.9439249250539347  0.9489470752059574  0.4497470319265558  1.0000
  O   O31       1.0  0.9416491600547374  0.14578332937736602  0.45441535768722463  1.0000
  O   O32       1.0  0.9443893623587842  0.9448481391381589  0.6492560384312042  1.0000
  O   O33       1.0  0.2547278313762007  0.24192529396766818  0.448896426079159  1.0000
  O   O34       1.0  0.30842072619077504  0.4067034130571229  0.34094291081660794  1.0000
  O   O35       1.0  0.23460163861101094  0.3527938964420158  0.2637644799202903  1.0000
  O   O36       1.0  0.2933082747201183  0.27550041882992093  0.09220128093495811  1.0000
  O   O37       1.0  0.4855522105537418  0.2732832403958838  0.9836899056303139  1.0000
  O   O38       1.0  0.4373123742493518  0.15654796602946405  0.18160686338877946  1.0000
  O   O39       1.0  0.9313255047053987  0.2568946773911448  0.7576434954125588  1.0000
  O   O40       1.0  0.8148850714964195  0.2997001930616462  0.9279707747085908  1.0000
  O   O41       1.0  0.7505541838649991  0.22260281840596002  0.8636713045911647  1.0000
  O   O42       1.0  0.3501060571461423  0.6299558409072219  0.27680098677288345  1.0000
  O   O43       1.0  0.5462303229110931  0.5398475775240426  0.19681797928278386  1.0000
  O   O44       1.0  0.48306767045306753  0.7242187708869635  0.21155123193468478  1.0000
  O   O45       1.0  0.26283187465306673  0.9021704621000594  0.7726782253985931  1.0000
  O   O46       1.0  0.43951689725766857  0.7894000896615763  0.7989539285631719  1.0000
  O   O47       1.0  0.3741604108172254  0.7347096644797091  0.7139258569065419  1.0000
  F   F1        1.0  0.08626455168392516  0.4702936152256925  0.14329198906344223  1.0000
  F   F2        1.0  0.09205581230530425  0.6410521302605048  0.9637301598922221  1.0000
