data_image0
_chemical_formula_structural       Cd4H36C44N8Cl4O16
_chemical_formula_sum              "Cd4 H36 C44 N8 Cl4 O16"
_cell_length_a       7.055069721
_cell_length_b       13.049858444588462
_cell_length_c       13.4247
_cell_angle_alpha    90.0
_cell_angle_beta     90.0
_cell_angle_gamma    90.47774932036108

_space_group_name_H-M_alt    "P 1"
_space_group_IT_number       1

loop_
  _space_group_symop_operation_xyz
  'x, y, z'

loop_
  _atom_site_type_symbol
  _atom_site_label
  _atom_site_symmetry_multiplicity
  _atom_site_fract_x
  _atom_site_fract_y
  _atom_site_fract_z
  _atom_site_occupancy
  Cd  Cd1       1.0  0.8614232440866088  0.4129222817402364  0.5586679776829299  1.0000
  Cd  Cd2       1.0  0.6385741799922184  0.08707983379686367  0.05866797768293  1.0000
  Cd  Cd3       1.0  0.1385771592032938  0.5870796503785414  0.4413312774214688  1.0000
  Cd  Cd4       1.0  0.3614205181584964  0.9129197993664773  0.9413312774214686  1.0000
  H   H1        1.0  0.5082175504515333  0.741554128939292  0.5180398817105782  1.0000
  H   H2        1.0  0.9917801782754266  0.7584460871242058  0.0180406266061794  1.0000
  H   H3        1.0  0.49178564040264655  0.2584447379055774  0.48195862849821935  1.0000
  H   H4        1.0  0.008215960934016699  0.2415550786760932  0.9819593733938203  1.0000
  H   H5        1.0  0.5469636121659888  0.7167974442266001  0.6453388157649727  1.0000
  H   H6        1.0  0.95303554580056  0.7832035381553695  0.1453395606605739  1.0000
  H   H7        1.0  0.453035361884325  0.28320372157369883  0.3546596944438248  1.0000
  H   H8        1.0  0.04696340461146779  0.21679609500797875  0.8546611842350273  1.0000
  H   H9        1.0  0.7611005703882867  0.8394045689280956  0.7453350912869537  1.0000
  H   H10       1.0  0.738901410599986  0.6605956471353946  0.24533583618256213  1.0000
  H   H11       1.0  0.23890406152462862  0.16059583055372426  0.2546619291306342  1.0000
  H   H12       1.0  0.2610989335941766  0.3394024533909956  0.7546641638174378  1.0000
  H   H13       1.0  0.6058499504057336  0.8513154570135695  0.3784933741536136  1.0000
  H   H14       1.0  0.8941520305825392  0.648684759049921  0.8784941190492148  1.0000
  H   H15       1.0  0.39415039378842204  0.14868264351282076  0.6215058809507851  1.0000
  H   H16       1.0  0.105846967106082  0.3513179393873286  0.1215066258463864  1.0000
  H   H17       1.0  0.6648199354674204  0.014805272972488097  0.2851415674093261  1.0000
  H   H18       1.0  0.8351774767922675  0.4851960762461402  0.7851423123049271  1.0000
  H   H19       1.0  0.3351761801037298  0.9851943601908602  0.7148569427994644  1.0000
  H   H20       1.0  0.16482293831678868  0.5148066221911094  0.21485694279946435  1.0000
  H   H21       1.0  0.8014294354410652  0.1665302008383449  0.3681855088009414  1.0000
  H   H22       1.0  0.6985679886377696  0.3334719146987553  0.8681869985921506  1.0000
  H   H23       1.0  0.19856388074666134  0.8334717312804256  0.6318115116166465  1.0000
  H   H24       1.0  0.30143806069558104  0.6665284847830648  0.1318115116166467  1.0000
  H   H25       1.0  0.8793254244533841  0.1647990873991745  0.5491884362406622  1.0000
  H   H26       1.0  0.6206748226471744  0.3352022618194539  0.049189181136263485  1.0000
  H   H27       1.0  0.12067213217650158  0.8352020784011245  0.45081007396813527  1.0000
  H   H28       1.0  0.3793297856274478  0.6647966050254155  0.9508093290725268  1.0000
  H   H29       1.0  0.8603384054078871  0.1265245447550853  0.7170886500257012  1.0000
  H   H30       1.0  0.639658995032647  0.37347603814506397  0.21708567044328925  1.0000
  H   H31       1.0  0.13965912758369828  0.8734750884082629  0.2829128397655083  1.0000
  H   H32       1.0  0.3603456250611216  0.6265235950182839  0.7829135846611093  1.0000
  H   H33       1.0  0.0014646297341868997  0.029436591650728892  0.7741282859207317  1.0000
  H   H34       1.0  0.49853553054374794  0.47056169229399086  0.2741267961295222  1.0000
  H   H35       1.0  0.9985300802356816  0.9705638078310912  0.22587394876607894  1.0000
  H   H36       1.0  0.5014690422734275  0.5294348755954488  0.7258724589748766  1.0000
  C   C1        1.0  0.7650482681494424  0.6603925727390345  0.545713498253221  1.0000
  C   C2        1.0  0.7349509252745534  0.8396107085983642  0.045713498253221  1.0000
  C   C3        1.0  0.234959269519237  0.33961242465365155  0.45428948132919084  1.0000
  C   C4        1.0  0.26504092621614456  0.16038815824649785  0.9542902262247919  1.0000
  C   C5        1.0  0.6175068636366844  0.7399341316792556  0.5763786155370312  1.0000
  C   C6        1.0  0.8824937472077465  0.7600691496581431  0.0763786155370312  1.0000
  C   C7        1.0  0.3824949570736606  0.2600678004395149  0.42362212935857  1.0000
  C   C8        1.0  0.11750522684256737  0.2399320161421556  0.92362212935857  1.0000
  C   C9        1.0  0.7553948595516075  0.8811811870113289  0.6757864235327415  1.0000
  C   C10       1.0  0.7446085152188073  0.6188174964152109  0.1757886582195525  1.0000
  C   C11       1.0  0.2446083431217261  0.11881844615201229  0.3242113417804475  1.0000
  C   C12       1.0  0.2553932582149372  0.38118137042965816  0.8242120866760556  1.0000
  C   C13       1.0  0.710256259079145  0.918713933369844  0.5161545509396888  1.0000
  C   C14       1.0  0.7897471275104164  0.5812855163751748  0.01615529583529  1.0000
  C   C15       1.0  0.2897426913328758  0.08128569979350429  0.4838454490603112  1.0000
  C   C16       1.0  0.21025607516291697  0.41871411678816617  0.9838454490603112  1.0000
  C   C17       1.0  0.6661331664594242  0.9187920978544779  0.4149262180905352  1.0000
  C   C18       1.0  0.8338645740866892  0.5812088845274914  0.9149254731949341  1.0000
  C   C19       1.0  0.33386579577175  0.0812083016273419  0.5850730370138635  1.0000
  C   C20       1.0  0.16613441178277805  0.4187930475912793  0.0850745268050659  1.0000
  C   C21       1.0  0.6997219087317389  0.0101721114615287  0.3640111138423947  1.0000
  C   C22       1.0  0.8002783383688197  0.48982923775709236  0.8640118587379959  1.0000
  C   C23       1.0  0.3002756597172933  0.9898298206572418  0.6359873963664029  1.0000
  C   C24       1.0  0.19972488794281418  0.5101719280432063  0.1359881412620041  1.0000
  C   C25       1.0  0.7754970814399725  0.09747034602429487  0.4120084620140502  1.0000
  C   C26       1.0  0.7245003308197083  0.4025310031943263  0.9120084620140503  1.0000
  C   C27       1.0  0.2244976403490355  0.9025308197760038  0.5879907930903485  1.0000
  C   C28       1.0  0.2755028954919183  0.5974701626059725  0.0879922828815509  1.0000
  C   C29       1.0  0.8189630937539787  0.09743126378197788  0.5131697542589393  1.0000
  C   C30       1.0  0.6810385589478685  0.4025693191181716  0.0131704991545405  1.0000
  C   C31       1.0  0.18103447469505335  0.9025706683367999  0.4868287559498512  1.0000
  C   C32       1.0  0.3189688959867709  0.5974303140451765  0.9868317355322629  1.0000
  C   C33       1.0  0.7832065317144126  0.0064945490911938  0.5645660610665431  1.0000
  C   C34       1.0  0.7167950973491342  0.493504501172005  0.06456680596214429  1.0000
  C   C35       1.0  0.21679100127717274  0.9935050840721542  0.43543393893345683  1.0000
  C   C36       1.0  0.28320810532419216  0.5064951319913432  0.9354339389334569  1.0000
  C   C37       1.0  0.8594610857291086  0.04776922857209339  0.7457328655388977  1.0000
  C   C38       1.0  0.640537673036121  0.4522275227356687  0.2457336104344989  1.0000
  C   C39       1.0  0.14053361242160628  0.9522304045912475  0.2542686242523118  1.0000
  C   C40       1.0  0.35946548236061904  0.5477690451537711  0.7542671344611022  1.0000
  C   C41       1.0  0.7217424726398534  0.0415712447314434  0.8344953704738315  1.0000
  C   C42       1.0  0.7782605265675357  0.4584247402578469  0.33449462557822324  1.0000
  C   C43       1.0  0.2782522255108616  0.9584283884319047  0.165503139734966  1.0000
  C   C44       1.0  0.22174835760668538  0.5415756592239731  0.665503139734966  1.0000
  N   N1        1.0  0.6948847080039682  0.8427357553469077  0.588664178715355  1.0000
  N   N2        1.0  0.8051186785855861  0.6572636943981109  0.0886649236109562  1.0000
  N   N3        1.0  0.3051128249876172  0.1572638778164404  0.4113365661802532  1.0000
  N   N4        1.0  0.19488310666730504  0.3427359387652372  0.911335821284645  1.0000
  N   N5        1.0  0.8078093012858358  0.979584908940417  0.6643396128032677  1.0000
  N   N6        1.0  0.6921926678832903  0.5204145408046016  0.1643418474900713  1.0000
  N   N7        1.0  0.19219107836577354  0.020415490541409995  0.3356603871967322  1.0000
  N   N8        1.0  0.3078133578117672  0.4795843260402676  0.8356603871967323  1.0000
  Cl  Cl1       1.0  0.650789714818373  0.3054507132747446  0.6640729401774336  1.0000
  Cl  Cl2       1.0  0.849211890606881  0.1945468043514964  0.1640736850730349  1.0000
  Cl  Cl3       1.0  0.34921351149326085  0.6945504525255544  0.3359285496137687  1.0000
  Cl  Cl4       1.0  0.1507898591885706  0.8054505298564152  0.8359255700313566  1.0000
  O   O1        1.0  0.7302745309270904  0.5704106908703891  0.5761678100814152  1.0000
  O   O2        1.0  0.7697288793007642  0.9295902915115872  0.07616408560340199  1.0000
  O   O3        1.0  0.2697329831032889  0.4295927738853393  0.4238321899185847  1.0000
  O   O4        1.0  0.23027292959042706  0.0704108742887115  0.9238336797097872  1.0000
  O   O5        1.0  0.9007778578752548  0.6921143260876903  0.4919275663515775  1.0000
  O   O6        1.0  0.599209901632065  0.8078828247018989  0.991932780620793  1.0000
  O   O7        1.0  0.0992268331334074  0.30788990498651697  0.5080783928132462  1.0000
  O   O8        1.0  0.400777673959027  0.19211450950601966  0.0080769030220438  1.0000
  O   O9        1.0  0.593112228933556  0.9736773598024797  0.8326524987523027  1.0000
  O   O10       1.0  0.9068825113035996  0.5263128941208137  0.3326547334391065  1.0000
  O   O11       1.0  0.40688520950483553  0.0263161428130516  0.1673445216652851  1.0000
  O   O12       1.0  0.0931120922939215  0.4736806084947176  0.6673482461433053  1.0000
  O   O13       1.0  0.7574540763361239  0.1062500568134155  0.9022331970174376  1.0000
  O   O14       1.0  0.7425375244120358  0.3937420965834874  0.4022369214954508  1.0000
  O   O15       1.0  0.2425264476102313  0.8937495763499328  0.0977615887133396  1.0000
  O   O16       1.0  0.2574599258455095  0.6062521723505155  0.5977675478781634  1.0000
