data_image0
_chemical_formula_structural       Zn16H24C104S16Br8O68
_chemical_formula_sum              "Zn16 H24 C104 S16 Br8 O68"
_cell_length_a       19.626171654676387
_cell_length_b       19.661531420383447
_cell_length_c       33.26561342942935
_cell_angle_alpha    79.275913772054
_cell_angle_beta     79.36785156885043
_cell_angle_gamma    64.08296773777693

_space_group_name_H-M_alt    "P 1"
_space_group_IT_number       1

loop_
  _space_group_symop_operation_xyz
  'x, y, z'

loop_
  _atom_site_type_symbol
  _atom_site_label
  _atom_site_symmetry_multiplicity
  _atom_site_fract_x
  _atom_site_fract_y
  _atom_site_fract_z
  _atom_site_occupancy
  Zn  Zn1       1.0  0.057585381799917505  0.3993260380225649  0.47935557899000975  1.0000
  Zn  Zn2       1.0  0.9846071144161075  0.483167840711687  0.5601814961784726  1.0000
  Zn  Zn3       1.0  0.05709565964166072  0.5638335455707305  0.4827394335522115  1.0000
  Zn  Zn4       1.0  0.9004672170557271  0.5543454517303135  0.47915125845513984  1.0000
  Zn  Zn5       1.0  0.6937937922355887  0.349334583672082  0.2715092039345278  1.0000
  Zn  Zn6       1.0  0.6873250018545818  0.19159676731752043  0.267142895929311  1.0000
  Zn  Zn7       1.0  0.7714526793933841  0.2628544074420136  0.18977877096899223  1.0000
  Zn  Zn8       1.0  0.8480076875997824  0.19398286543133736  0.2727485016589952  1.0000
  Zn  Zn9       1.0  0.2671326525175033  0.7675319813686556  0.6896312187987733  1.0000
  Zn  Zn10      1.0  0.3494244006304328  0.6968462534346788  0.7706004108581296  1.0000
  Zn  Zn11      1.0  0.191086489613312  0.8486150778822507  0.772626920512259  1.0000
  Zn  Zn12      1.0  0.19182432521506607  0.6873916024196377  0.7675515639486433  1.0000
  Zn  Zn13      1.0  0.5599588415934704  0.05982792034956931  0.982483199093693  1.0000
  Zn  Zn14      1.0  0.4010502537775907  0.056439477433634984  0.9781332471691186  1.0000
  Zn  Zn15      1.0  0.5545965507054689  0.8997486350678161  0.9787440062711924  1.0000
  Zn  Zn16      1.0  0.485013398842753  0.9802517192547318  0.0605599616888597  1.0000
  H   H1        1.0  0.7452613501015578  0.44851869841751574  0.3546971419095328  1.0000
  H   H2        1.0  0.9987556183403327  0.2921636409754175  0.4035922371215718  1.0000
  H   H3        1.0  0.20668818518309  0.6953413297751966  0.5992050564757322  1.0000
  H   H4        1.0  0.058874918570694504  0.5404480496989524  0.6507902227726562  1.0000
  H   H5        1.0  0.46125419618954316  0.24163815831882834  0.34080646881770343  1.0000
  H   H6        1.0  0.47982855959963183  0.6995507043863899  0.5999658168545422  1.0000
  H   H7        1.0  0.2028812289974695  0.9792404575183653  0.6024191286818237  1.0000
  H   H8        1.0  0.9402352466063065  0.9774757681037518  0.3534491831226275  1.0000
  H   H9        1.0  0.6450419362856651  0.15780989545037732  0.048866703771210475  1.0000
  H   H10       1.0  0.5901272134713481  0.10765624374245418  0.20030620775030164  1.0000
  H   H11       1.0  0.5481919889819052  0.7678127821229525  0.1489213012538926  1.0000
  H   H12       1.0  0.16427302247475242  0.13835046749781546  0.0411236569855973  1.0000
  H   H13       1.0  0.2997118558284627  0.006539273157265769  0.8960117511102083  1.0000
  H   H14       1.0  0.4550426929077744  0.7554803662091701  0.8450233270646452  1.0000
  H   H15       1.0  0.3021742286157263  0.2802138383504129  0.8996109356363033  1.0000
  H   H16       1.0  0.7868952677258252  0.007451623293519526  0.9099320804015462  1.0000
  H   H17       1.0  0.8034952704334372  0.5706456827385439  0.3619465299689324  1.0000
  H   H18       1.0  0.0250720770331867  0.2528607485235455  0.31376072894191503  1.0000
  H   H19       1.0  0.09204412924784582  0.7483979276686981  0.5352180124447017  1.0000
  H   H20       1.0  0.005360464648482799  0.6547582587683466  0.7161960733970717  1.0000
  H   H21       1.0  0.7925390323867421  0.1384131602441984  0.08048720221986366  1.0000
  H   H22       1.0  0.6083078076681971  0.9610754385857303  0.17172825534677835  1.0000
  H   H23       1.0  0.17754821177609162  0.9532492436897331  0.889781773990144  1.0000
  H   H24       1.0  0.49606431930058664  0.7230832953499801  0.9326742848293393  1.0000
  C   C1        1.0  0.06115614085457109  0.31615795022457144  0.5627854473548836  1.0000
  C   C2        1.0  0.0724376126773265  0.5669918553278636  0.5692044705974625  1.0000
  C   C3        1.0  0.1825098274810131  0.44115984716144424  0.4388487782730621  1.0000
  C   C4        1.0  0.9351681588771754  0.6853306348949746  0.4388288489456968  1.0000
  C   C5        1.0  0.931636851638693  0.42659553630435465  0.43274764873367394  1.0000
  C   C6        1.0  0.8174102040615452  0.5619612217532012  0.5620545438802296  1.0000
  C   C7        1.0  0.5643836951613252  0.31228535134473406  0.3115810725985213  1.0000
  C   C8        1.0  0.6779676175182986  0.1831479642605487  0.18075655311079686  1.0000
  C   C9        1.0  0.692717950497972  0.43072919480160016  0.18783476106203517  1.0000
  C   C10       1.0  0.937486529608712  0.1856206477168886  0.19047124565775422  1.0000
  C   C11       1.0  0.8169660735384385  0.3190326551181357  0.3207921194391901  1.0000
  C   C12       1.0  0.8083933761531129  0.06691522777703808  0.31151002905762937  1.0000
  C   C13       1.0  0.4338531372372145  0.6882299520900264  0.6872089834495796  1.0000
  C   C14       1.0  0.31994497362020985  0.8228916525495936  0.8168180333780057  1.0000
  C   C15       1.0  0.18752880586455942  0.933832730642578  0.6892501982092085  1.0000
  C   C16       1.0  0.06519747365795331  0.8077589093305377  0.8119599785500357  1.0000
  C   C17       1.0  0.18348689315352126  0.6784196221450784  0.6808118173133407  1.0000
  C   C18       1.0  0.31577488507561213  0.5667320084645056  0.8112652619834861  1.0000
  C   C19       1.0  0.438230879069927  0.18431409734600382  0.9378253738859212  1.0000
  C   C20       1.0  0.4294981987526114  0.9333910838392896  0.9296889842107133  1.0000
  C   C21       1.0  0.6824640078771155  0.9381831479879709  0.9381673071360838  1.0000
  C   C22       1.0  0.5618390424577413  0.8137772936087303  0.06190191716126491  1.0000
  C   C23       1.0  0.5681542810589165  0.07109109780169125  0.06860216289412338  1.0000
  C   C24       1.0  0.3175810691813226  0.06153353665099104  0.06158307542779078  1.0000
  C   C25       1.0  0.8994677802348293  0.3978430479065694  0.40560281121888403  1.0000
  C   C26       1.0  0.845746832234461  0.3440081291966309  0.35145730918074486  1.0000
  C   C27       1.0  0.8265092128963687  0.4423519414345238  0.3928761120169995  1.0000
  C   C28       1.0  0.9171212010170391  0.29786744195716636  0.36578559288808066  1.0000
  C   C29       1.0  0.8010785224913947  0.4150526001315455  0.36548323918425746  1.0000
  C   C30       1.0  0.9434067922898066  0.32603078977553684  0.392327098528817  1.0000
  C   C31       1.0  0.10531138748697091  0.5927209132423672  0.5974181598623005  1.0000
  C   C32       1.0  0.1576524934715309  0.6456543978264123  0.6525969329561007  1.0000
  C   C33       1.0  0.1486424900149359  0.6352054863499462  0.5820804029229977  1.0000
  C   C34       1.0  0.11722005605532361  0.6003250398077996  0.6679380158168372  1.0000
  C   C35       1.0  0.17354438523693722  0.6617839327729912  0.6100366537258636  1.0000
  C   C36       1.0  0.09095985752686181  0.5750620792138506  0.639967288775175  1.0000
  C   C37       1.0  0.3043782568251673  0.4561582696508283  0.4019544620374944  1.0000
  C   C38       1.0  0.44459833146608224  0.29827393191757084  0.34899293468914994  1.0000
  C   C39       1.0  0.25748529077294086  0.4177004948475231  0.4142627212433467  1.0000
  C   C40       1.0  0.4898404335322299  0.33798570326639077  0.33670888327369397  1.0000
  C   C41       1.0  0.3765909503375013  0.3414587297349956  0.3726234759553008  1.0000
  C   C42       1.0  0.37205906453723975  0.41283921695626463  0.3780091770535279  1.0000
  C   C43       1.0  0.7262313890597412  0.5759516253510811  0.6300638758408823  1.0000
  C   C44       1.0  0.5244269661658835  0.671215547115118  0.620239465394853  1.0000
  C   C45       1.0  0.7432831007932776  0.5847041761255908  0.5874195380923198  1.0000
  C   C46       1.0  0.5089780332623306  0.6621569270837356  0.6627115562871139  1.0000
  C   C47       1.0  0.6038518798383237  0.639201745065414  0.6081933141120289  1.0000
  C   C48       1.0  0.6467571793223856  0.6068590509184522  0.6419630910125206  1.0000
  C   C49       1.0  0.07587898195990311  0.2257434374810644  0.6311859894003576  1.0000
  C   C50       1.0  0.17396852097885332  0.024070689893278513  0.6223997928097091  1.0000
  C   C51       1.0  0.08571808222078661  0.24241546383983356  0.5885451023610243  1.0000
  C   C52       1.0  0.16331801605451096  0.00910066008813  0.6648917074578405  1.0000
  C   C53       1.0  0.1424806338938609  0.10324670653778867  0.6100132951982645  1.0000
  C   C54       1.0  0.1084054120140294  0.14644923905630247  0.6435016032965066  1.0000
  C   C55       1.0  0.8421419144614504  0.799647147724166  0.3947488120610601  1.0000
  C   C56       1.0  0.8984898841187815  0.9541278403801813  0.35541453626596825  1.0000
  C   C57       1.0  0.9084866384218984  0.7598500670686905  0.41376977818447364  1.0000
  C   C58       1.0  0.8323355569962488  0.9923274294808239  0.3365450822074934  1.0000
  C   C59       1.0  0.9022374952401506  0.8836188427984413  0.3766526471994354  1.0000
  C   C60       1.0  0.8385567927332858  0.8701675776535897  0.3735163537056536  1.0000
  C   C61       1.0  0.6461233168401179  0.15890461258423014  0.1512147784431193  1.0000
  C   C62       1.0  0.5917876243229118  0.10379235244331401  0.0979755604523618  1.0000
  C   C63       1.0  0.6607242753449115  0.1753908707723326  0.10828904501999405  1.0000
  C   C64       1.0  0.5738372890625953  0.09067493878625046  0.140888287595125  1.0000
  C   C65       1.0  0.6339321576261484  0.1467699340298552  0.0822295767962018  1.0000
  C   C66       1.0  0.6021589326467521  0.11772394569966599  0.16694838757467068  1.0000
  C   C67       1.0  0.6762666163254849  0.5214787103291983  0.1194542187743437  1.0000
  C   C68       1.0  0.5775401018768848  0.7231817128045891  0.12881363523579376  1.0000
  C   C69       1.0  0.6679060765986266  0.5045774976961397  0.16213773020561456  1.0000
  C   C70       1.0  0.5872552877927716  0.7385398321462662  0.08631597945628044  1.0000
  C   C71       1.0  0.6102560302990129  0.6439027727631843  0.14103268430804414  1.0000
  C   C72       1.0  0.6436841539821928  0.6009393204797958  0.10744589981649715  1.0000
  C   C73       1.0  0.08540631000165891  0.1262405825895669  0.17946550934003366  1.0000
  C   C74       1.0  0.1721692927675988  0.12391472223058742  0.0736243317141287  1.0000
  C   C75       1.0  0.0130252793812602  0.16206457079297118  0.16648616063203286  1.0000
  C   C76       1.0  0.24354580431213443  0.0873662643852597  0.0872534395961608  1.0000
  C   C77       1.0  0.11433881722580709  0.13834179788742063  0.1072749724243849  1.0000
  C   C78       1.0  0.143299896519629  0.11252441483550508  0.1457231716083029  1.0000
  C   C79       1.0  0.34923270675032825  0.8547480902194665  0.8437874960694101  1.0000
  C   C80       1.0  0.4042578269518843  0.9059706235660768  0.8985316866895233  1.0000
  C   C81       1.0  0.3049837629945459  0.9270384654799386  0.8570938654045932  1.0000
  C   C82       1.0  0.4501480421041677  0.8353360446008228  0.8835921599627736  1.0000
  C   C83       1.0  0.33290784387403255  0.9512536658083449  0.884759381875398  1.0000
  C   C84       1.0  0.42141588474321173  0.8103120980649693  0.8567312360917188  1.0000
  C   C85       1.0  0.41018616116658546  0.44879922639577796  0.8529438286498845  1.0000
  C   C86       1.0  0.34687723595218506  0.30024264605432915  0.8957196888286492  1.0000
  C   C87       1.0  0.34228941501200444  0.4915334444321717  0.8356313457207207  1.0000
  C   C88       1.0  0.4148590721829848  0.25879957596986003  0.9126436580389237  1.0000
  C   C89       1.0  0.3452641447852543  0.36945956119361517  0.8735795166835203  1.0000
  C   C90       1.0  0.41210413855485944  0.3790594809864772  0.8744719208594701  1.0000
  C   C91       1.0  0.9418270863753265  0.7941909153502357  0.8474249197339175  1.0000
  C   C92       1.0  0.8027593637538076  0.9514353391875902  0.9011097231100537  1.0000
  C   C93       1.0  0.9895241882303268  0.8318032745939309  0.8358066685463186  1.0000
  C   C94       1.0  0.7566385070757066  0.9125625085250209  0.9126679942697322  1.0000
  C   C95       1.0  0.8703100400185947  0.9083950656146699  0.8771549202073243  1.0000
  C   C96       1.0  0.8738223123130738  0.8377511031177891  0.8710786585499549  1.0000
  C   C97       1.0  0.770771748238751  0.5155048126558197  0.40988334409873056  1.0000
  C   C98       1.0  0.964534167428923  0.21647161356377623  0.3569881239165014  1.0000
  C   C99       1.0  0.17557548343773993  0.6487276565679354  0.5369949522216259  1.0000
  C   C100      1.0  0.10559062892446751  0.5717891851888126  0.7129704011164789  1.0000
  C   C101      1.0  0.6986591846274877  0.22768401159486043  0.0884617183490661  1.0000
  C   C102      1.0  0.5200453070318006  0.05432830296749814  0.1604571407722588  1.0000
  C   C103      1.0  0.23151540220462857  0.9830459072449004  0.8403822812254943  1.0000
  C   C104      1.0  0.5318045606810246  0.7876443208736178  0.8921058831212747  1.0000
  S   S1        1.0  0.29688398663541454  0.3284147485026451  0.396762018058844  1.0000
  S   S2        1.0  0.45066384187937564  0.42736255071283596  0.35376794508946574  1.0000
  S   S3        1.0  0.6617864876327887  0.6301146911923896  0.5620043562683249  1.0000
  S   S4        1.0  0.5899671526460394  0.6148635283552154  0.6883335769558272  1.0000
  S   S5        1.0  0.13504216521826606  0.16071395239287514  0.5636644528367681  1.0000
  S   S6        1.0  0.11567620738323822  0.09023608395541063  0.6901018390566378  1.0000
  S   S7        1.0  0.9664300173900104  0.8088775555785548  0.4054405058910788  1.0000
  S   S8        1.0  0.774255385187722  0.9436960257461138  0.34447230456400035  1.0000
  S   S9        1.0  0.619716166956188  0.5860774338057199  0.1873228954918318  1.0000
  S   S10       1.0  0.6355319891291843  0.657549047546425  0.060943834298989  1.0000
  S   S11       1.0  0.016107347374351405  0.1796184500377294  0.1129557805378312  1.0000
  S   S12       1.0  0.24130795484460074  0.07090598977482192  0.1406278627101543  1.0000
  S   S13       1.0  0.2811357954256053  0.4458470891712382  0.8456040529116464  1.0000
  S   S14       1.0  0.47715087056295163  0.30304058708368603  0.901904843792835  1.0000
  S   S15       1.0  0.9505078847922661  0.9209061131489662  0.853455883037583  1.0000
  S   S16       1.0  0.7941610760456542  0.824325313797857  0.8944331608474345  1.0000
  Br  Br1       1.0  0.28593103536148595  0.5520343973908909  0.414744493303921  1.0000
  Br  Br2       1.0  0.7955180898817817  0.5290062049436343  0.669469415092493  1.0000
  Br  Br3       1.0  0.0270298238885189  0.2952276413161172  0.6701923168795006  1.0000
  Br  Br4       1.0  0.7649048143828735  0.7675568549993914  0.39488089740599713  1.0000
  Br  Br5       1.0  0.7224243311224329  0.4519419933160478  0.08050862463380068  1.0000
  Br  Br6       1.0  0.1086780485079757  0.0983850977597953  0.23407442818258764  1.0000
  Br  Br7       1.0  0.492626392169143  0.47483220147337585  0.8496296691592917  1.0000
  Br  Br8       1.0  0.9599854229670799  0.6984882461341189  0.8342158161403859  1.0000
  O   O1        1.0  0.0006676130054330997  0.4994455854926941  0.49975106995467666  1.0000
  O   O2        1.0  0.08296991878552971  0.3143292215855312  0.5240301682597135  1.0000
  O   O3        1.0  0.042189992993193905  0.5213088216769324  0.5855087580722865  1.0000
  O   O4        1.0  0.1544643607712715  0.5058448118322048  0.4520972871964304  1.0000
  O   O5        1.0  0.0203025728890012  0.37529158582898964  0.5808674106927184  1.0000
  O   O6        1.0  0.1518492341596271  0.3937049990502501  0.4446518722377916  1.0000
  O   O7        1.0  0.07639145990527402  0.5943075075949409  0.5314226887672574  1.0000
  O   O8        1.0  0.0020417069030003003  0.6603843500988519  0.44984357733259384  1.0000
  O   O9        1.0  0.8932225139910274  0.49592917635655465  0.439207785096265  1.0000
  O   O10       1.0  0.8902435569647196  0.6522349126308313  0.447565055110438  1.0000
  O   O11       1.0  0.994418861221746  0.3804542333043773  0.4462555285459046  1.0000
  O   O12       1.0  0.8768263433413567  0.5349869206640249  0.5806365818065943  1.0000
  O   O13       1.0  0.8154587183405724  0.572061100893379  0.5229926824427834  1.0000
  O   O14       1.0  0.7495988795967251  0.24992790760757805  0.25021415775776035  1.0000
  O   O15       1.0  0.594478701507292  0.3601146909804812  0.30180165957824556  1.0000
  O   O16       1.0  0.6541327800554201  0.17426646066839885  0.21876160630866076  1.0000
  O   O17       1.0  0.7258529014421454  0.3711029498353897  0.16951301208607825  1.0000
  O   O18       1.0  0.5925839250750756  0.24465503671861188  0.30171479121631956  1.0000
  O   O19       1.0  0.6784878303333174  0.4334046654746332  0.22692992529255918  1.0000
  O   O20       1.0  0.7274364719301049  0.20917568373769066  0.16510428620843237  1.0000
  O   O21       1.0  0.8804226324276173  0.22048524303422565  0.16954371936412832  1.0000
  O   O22       1.0  0.8641162992712453  0.2586602354163149  0.30525700194229427  1.0000
  O   O23       1.0  0.9346151021721456  0.16949556209009126  0.22947670014171  1.0000
  O   O24       1.0  0.7491361966882623  0.3603408345802633  0.31230428687975126  1.0000
  O   O25       1.0  0.745095011164331  0.09153099792386152  0.29642393995918326  1.0000
  O   O26       1.0  0.8528398560505367  0.1002835420109278  0.3069796830653999  1.0000
  O   O27       1.0  0.24930948383600784  0.7506858177698773  0.7500081869245036  1.0000
  O   O28       1.0  0.375588740453253  0.7263712646836356  0.6677693817691691  1.0000
  O   O29       1.0  0.36742532035244585  0.7620332159992104  0.801968505248432  1.0000
  O   O30       1.0  0.17274382860883014  0.9331991030235118  0.7283785847045579  1.0000
  O   O31       1.0  0.433860429154727  0.6702449677225248  0.7262394683716096  1.0000
  O   O32       1.0  0.22075761923991882  0.8760081744847882  0.6692032302194946  1.0000
  O   O33       1.0  0.24950236393694072  0.8587624617561719  0.8119417606081568  1.0000
  O   O34       1.0  0.0933435368537445  0.8573547132422235  0.8039385261743135  1.0000
  O   O35       1.0  0.16030119282564928  0.6695606939391683  0.7189662232851218  1.0000
  O   O36       1.0  0.09645423603463141  0.740598668596981  0.8015743582018972  1.0000
  O   O37       1.0  0.2250187128856922  0.713290604089771  0.6642335070881984  1.0000
  O   O38       1.0  0.35766654100076073  0.6029623895284433  0.8061712091688662  1.0000
  O   O39       1.0  0.2515802680722103  0.5894370952957361  0.797437845236331  1.0000
  O   O40       1.0  0.4998632338604168  0.9992781581327111  5.836800677628305e-05  1.0000
  O   O41       1.0  0.505913223063665  0.15495803468903796  0.9481862092334838  1.0000
  O   O42       1.0  0.389055476599964  0.001520256592044731  0.9377314580410923  1.0000
  O   O43       1.0  0.6489618529985037  0.8934188563756962  0.9445165979441229  1.0000
  O   O44       1.0  0.3894634290304637  0.15551704390384202  0.9472605050056941  1.0000
  O   O45       1.0  0.6583308023268302  0.002394351295727424  0.9518425081734349  1.0000
  O   O46       1.0  0.488705855769716  0.8852653405233399  0.9460643838123063  1.0000
  O   O47       1.0  0.5783956113286878  0.8143090624698178  0.022809087105102318  1.0000
  O   O48       1.0  0.5407882026125819  0.022822201149495017  0.08457762198085558  1.0000
  O   O49       1.0  0.5257580586994594  0.8717404430697967  0.08165242517854669  1.0000
  O   O50       1.0  0.5788362032256984  0.09293456681039913  0.0304107292545197  1.0000
  O   O51       1.0  0.31626352467922203  0.07392058698135173  0.022554117117977092  1.0000
  O   O52       1.0  0.3766174745826021  0.02849985733433165  0.08085719969703578  1.0000
  O   O53       1.0  0.7632983010460705  0.5815301944778641  0.3851638927797367  1.0000
  O   O54       1.0  0.7292982989159712  0.5164707271734628  0.44184242562261017  1.0000
  O   O55       1.0  0.0264153476946944  0.20422057056652682  0.32801312293570817  1.0000
  O   O56       1.0  0.9532893903298786  0.1633329676561106  0.3769316129729674  1.0000
  O   O57       1.0  0.1374594118005703  0.7197330187108477  0.5173876540105339  1.0000
  O   O58       1.0  0.23204317653858203  0.6023361230454755  0.5196714688415226  1.0000
  O   O59       1.0  0.0351610618143852  0.6089030924068838  0.7334365571021095  1.0000
  O   O60       1.0  0.1530066860506878  0.515003779773025  0.7295331747001513  1.0000
  O   O61       1.0  0.7729943054329169  0.19327814957514303  0.07214962063708441  1.0000
  O   O62       1.0  0.6641282110188983  0.296376836849987  0.08364287740263882  1.0000
  O   O63       1.0  0.5529780189274477  0.980960440126232  0.1784835882986613  1.0000
  O   O64       1.0  0.45130983451729634  0.08938306912794765  0.16352094001077688  1.0000
  O   O65       1.0  0.16595757190380314  0.9922294736895408  0.8659890560294342  1.0000
  O   O66       1.0  0.23007692123305648  0.02289123976513003  0.8077676597135691  1.0000
  O   O67       1.0  0.5446456584756802  0.7235647691072061  0.9194685820239669  1.0000
  O   O68       1.0  0.5844956241288131  0.8010653359287621  0.8732925097558706  1.0000
