data_image0
_chemical_formula_structural       Y4H40C24O26
_chemical_formula_sum              "Y4 H40 C24 O26"
_cell_length_a       8.321582513214643
_cell_length_b       11.381559320750604
_cell_length_c       11.381549189203819
_cell_angle_alpha    91.75196669105839
_cell_angle_beta     107.56920295935119
_cell_angle_gamma    107.56939370950377

_space_group_name_H-M_alt    "P 1"
_space_group_IT_number       1

loop_
  _space_group_symop_operation_xyz
  'x, y, z'

loop_
  _atom_site_type_symbol
  _atom_site_label
  _atom_site_symmetry_multiplicity
  _atom_site_fract_x
  _atom_site_fract_y
  _atom_site_fract_z
  _atom_site_occupancy
  Y   Y1        1.0  0.498377347056902  0.04673942139355351  0.7606440132250826  1.0000
  Y   Y2        1.0  0.9983782952129093  0.7606442538496342  0.046739911032148175  1.0000
  Y   Y3        1.0  0.7607050810881404  0.3968015497934162  0.9151608284618578  1.0000
  Y   Y4        1.0  0.2607043880045127  0.9151615910143109  0.39680130078452447  1.0000
  H   H1        1.0  0.16515908897797266  0.29030708978545766  0.6084949043206649  1.0000
  H   H2        1.0  0.6651590917799197  0.608496297704953  0.2903083389143931  1.0000
  H   H3        1.0  0.2843441059907049  0.244878103417399  0.5214980241401506  1.0000
  H   H4        1.0  0.784342967245742  0.5214975649254399  0.24487927945616422  1.0000
  H   H5        1.0  0.2990678832182424  0.4062614267708183  0.5438216181369384  1.0000
  H   H6        1.0  0.7990673385800519  0.5438214917243869  0.40626285537248924  1.0000
  H   H7        1.0  0.8571415759015651  0.8568942180382281  0.54740567356658  1.0000
  H   H8        1.0  0.35714325666731384  0.5474074098151078  0.8568964834208473  1.0000
  H   H9        1.0  0.8996240766252586  0.9915764525857468  0.4705028436731952  1.0000
  H   H10       1.0  0.3996260813214079  0.4705019253995957  0.9915772426593321  1.0000
  H   H11       1.0  0.8697030658114999  6.619393885639938e-05  0.6209785013189517  1.0000
  H   H12       1.0  0.3697058081309165  0.620978411767794  6.945022679620059e-05  1.0000
  H   H13       1.0  0.586000444841531  0.6441136150287436  0.5797444052123525  1.0000
  H   H14       1.0  0.08600925444376634  0.5797473964936374  0.644115432519726  1.0000
  H   H15       1.0  0.688694116060347  0.7714922999746961  0.7039884608701784  1.0000
  H   H16       1.0  0.18870137607157736  0.7039900289171683  0.7714957574657292  1.0000
  H   H17       1.0  0.4762224065641476  0.6665479825866144  0.6864052478708161  1.0000
  H   H18       1.0  0.9762292869172882  0.6864055882516168  0.6665488358476139  1.0000
  H   H19       1.0  0.1431885833099429  0.1388960396963625  0.8727483212188576  1.0000
  H   H20       1.0  0.6431883753453391  0.8727473019040275  0.13889470148485833  1.0000
  H   H21       1.0  0.13514175001286335  0.26221510472038295  0.9726319879497467  1.0000
  H   H22       1.0  0.6351434817399096  0.9726324255587714  0.2622145422515914  1.0000
  H   H23       1.0  0.08282151787962282  0.2690796609616442  0.8118080247608292  1.0000
  H   H24       1.0  0.5828212024400513  0.8118083770235457  0.2690784723051109  1.0000
  H   H25       1.0  0.5008585322539361  0.1448354181451776  0.21499015948756292  1.0000
  H   H26       1.0  0.0008577726767243096  0.21498859442361612  0.14483539425583564  1.0000
  H   H27       1.0  0.2872984291177403  0.09143750871390212  0.1007005105892063  1.0000
  H   H28       1.0  0.7872973520518798  0.10070078660856302  0.09143607361653489  1.0000
  H   H29       1.0  0.39217920316167476  0.2538730650263687  0.16178880758451444  1.0000
  H   H30       1.0  0.8921787907256871  0.1617880994065715  0.2538721841092767  1.0000
  H   H31       1.0  0.8574809198633916  0.3219613487832548  0.5662018357668758  1.0000
  H   H32       1.0  0.3574824574489456  0.5662004889501376  0.32196205101397624  1.0000
  H   H33       1.0  0.8427464491700435  0.22047399764782938  0.4354800292681348  1.0000
  H   H34       1.0  0.34274701366660326  0.43547914676740623  0.22047412635545535  1.0000
  H   H35       1.0  0.6992307460291655  0.3101764543653688  0.41501068557955284  1.0000
  H   H36       1.0  0.1992298495062244  0.415009418988781  0.310175856477386  1.0000
  H   H37       1.0  0.411682945209215  0.8611673647694931  0.9255057631960145  1.0000
  H   H38       1.0  0.9116802833217363  0.9255064511614463  0.861166785758769  1.0000
  H   H39       1.0  0.5625502712151871  0.8251330195531636  0.8936607080969949  1.0000
  H   H40       1.0  0.06255005552850433  0.8936606742718284  0.8251334497970577  1.0000
  C   C1        1.0  0.4746875270557568  0.7929105431709261  0.5526326261474637  1.0000
  C   C2        1.0  0.9746913102867084  0.5526328333042869  0.7929096564563097  1.0000
  C   C3        1.0  0.44433801118594113  0.3420148767918434  0.7042705686503866  1.0000
  C   C4        1.0  0.9443374596185168  0.7042705405895477  0.34201523933462863  1.0000
  C   C5        1.0  0.2900580498155137  0.32054225632266753  0.5863904351390801  1.0000
  C   C6        1.0  0.790057863364467  0.5863906993114583  0.3205449258072691  1.0000
  C   C7        1.0  0.9246419854415895  0.9578274666413339  0.5611333097837774  1.0000
  C   C8        1.0  0.4246439208279683  0.5611331719724931  0.9578286435886131  1.0000
  C   C9        1.0  0.12053730401218123  0.9833995069622643  0.6235003511818107  1.0000
  C   C10       1.0  0.6205379332372517  0.6235021773403986  0.9834004913685918  1.0000
  C   C11       1.0  0.8799659473406366  0.14109019665163197  0.8600765010696705  1.0000
  C   C12       1.0  0.37996739473366153  0.8600772113491433  0.1410901929253684  1.0000
  C   C13       1.0  0.6297827314619084  0.1537912352463735  0.511395573390999  1.0000
  C   C14       1.0  0.12978341154430237  0.511394706397141  0.15379065954261514  1.0000
  C   C15       1.0  0.5628107844857269  0.7142708382063462  0.6343989852293745  1.0000
  C   C16       1.0  0.06281761461083597  0.6344000982223649  0.7142724226605638  1.0000
  C   C17       1.0  0.5002696254214172  0.1889483638239895  0.0327714460308854  1.0000
  C   C18       1.0  0.00026836521234939974  0.0327701470177288  0.18894895451030183  1.0000
  C   C19       1.0  0.07380728854460733  0.20461363405174648  0.8814867386649824  1.0000
  C   C20       1.0  0.5738068176363385  0.8814878129168591  0.2046124397812505  1.0000
  C   C21       1.0  0.4131694234295439  0.16860964910411982  0.13241513824647916  1.0000
  C   C22       1.0  0.9131697030399833  0.1324146522355392  0.16860907366137923  1.0000
  C   C23       1.0  0.7675968734894171  0.2588714745000403  0.48171249683048967  1.0000
  C   C24       1.0  0.2675970044276852  0.4817116151228475  0.25887138366471873  1.0000
  O   O1        1.0  0.46866138458464957  0.09662863286916949  0.9538848017331105  1.0000
  O   O2        1.0  0.9686609196711657  0.9538842592966718  0.09662796136358766  1.0000
  O   O3        1.0  0.46995002490808  0.24962036515624675  0.7606966257613053  1.0000
  O   O4        1.0  0.9699499364940608  0.7606950478339698  0.24962096366369485  1.0000
  O   O5        1.0  0.8014672448005913  0.026744178382841703  0.8163346621302099  1.0000
  O   O6        1.0  0.30146791814333074  0.8163358406650544  0.026743868431047726  1.0000
  O   O7        1.0  0.785043238426894  0.20431427929070625  0.8814965915834563  1.0000
  O   O8        1.0  0.28504410990214524  0.8814969204250218  0.20431439512741892  1.0000
  O   O9        1.0  0.5490797830847355  0.4516937574263551  0.7504298479887268  1.0000
  O   O10       1.0  0.049079028913382575  0.7504310309824475  0.451694667238108  1.0000
  O   O11       1.0  0.42212801993085247  0.7685724851020979  0.4347085939708891  1.0000
  O   O12       1.0  0.9221313890733285  0.4347104714915915  0.7685720753628473  1.0000
  O   O13       1.0  0.44624677454041983  0.8854733176656213  0.6015023658867522  1.0000
  O   O14       1.0  0.9462505093428394  0.6015030517268727  0.8854734480861169  1.0000
  O   O15       1.0  0.23119985063986093  0.024863195427848008  0.5644493759431343  1.0000
  O   O16       1.0  0.7312025217123974  0.5644520996196009  0.024863991961801408  1.0000
  O   O17       1.0  0.5138795378300289  0.0744140782731648  0.4197791887736529  1.0000
  O   O18       1.0  0.01388083128182416  0.419779927309797  0.0744133643927256  1.0000
  O   O19       1.0  0.603605949755007  0.2988958524058845  0.03548721905804088  1.0000
  O   O20       1.0  0.10360238304532031  0.03548613929213931  0.2988961077151444  1.0000
  O   O21       1.0  0.1821455238898155  0.9662498251035817  0.7361682750474473  1.0000
  O   O22       1.0  0.6821443615386474  0.736169186303684  0.9662506186374319  1.0000
  O   O23       1.0  0.6353064550241074  0.14995572127551074  0.6232944242797631  1.0000
  O   O24       1.0  0.1353099389738972  0.6232949414546242  0.14995648499489533  1.0000
  O   O25       1.0  0.47672054549774856  0.871216748623695  0.8638812423776018  1.0000
  O   O26       1.0  0.9767211389583254  0.863881837503975  0.8712174868492684  1.0000
