data_image0
_chemical_formula_structural       Zn2H36C24S4N4O16
_chemical_formula_sum              "Zn2 H36 C24 S4 N4 O16"
_cell_length_a       9.723706587763514
_cell_length_b       9.838623493403649
_cell_length_c       10.139897922744318
_cell_angle_alpha    69.4136321062711
_cell_angle_beta     69.06299973550435
_cell_angle_gamma    86.97501959834621

_space_group_name_H-M_alt    "P 1"
_space_group_IT_number       1

loop_
  _space_group_symop_operation_xyz
  'x, y, z'

loop_
  _atom_site_type_symbol
  _atom_site_label
  _atom_site_symmetry_multiplicity
  _atom_site_fract_x
  _atom_site_fract_y
  _atom_site_fract_z
  _atom_site_occupancy
  Zn  Zn1       1.0  0.500000950785065  0.5000005720025059  0.4999994404155074  1.0000
  Zn  Zn2       1.0  0.4999998360264186  0.5000005752690272  1.3931166605674597e-07  1.0000
  H   H1        1.0  0.8534941237412212  0.4381794535861516  0.27427371623901536  1.0000
  H   H2        1.0  0.1465066721079324  0.5618216816175945  0.7257245637952823  1.0000
  H   H3        1.0  0.909625277632273  0.677229890958884  0.8095438853525535  1.0000
  H   H4        1.0  0.09037331517323821  0.32277123422500864  0.19045516000569046  1.0000
  H   H5        1.0  0.4280139031486599  0.7463419652035129  0.2377880424847802  1.0000
  H   H6        1.0  0.5719854514911447  0.2536548145451151  0.762214206907771  1.0000
  H   H7        1.0  0.34744890288371266  0.9352763543990863  0.10474737603751551  1.0000
  H   H8        1.0  0.6525517273208337  0.06472260937340482  0.8952536808036129  1.0000
  H   H9        1.0  0.28766596793502686  0.07065657385975752  0.1888875547578408  1.0000
  H   H10       1.0  0.7123346622695266  0.9293423899127334  0.8111135020832875  1.0000
  H   H11       1.0  0.1552857380514325  0.9526576207849973  0.18846106921412795  1.0000
  H   H12       1.0  0.8447148051316591  0.04734025348052029  0.8115403925717288  1.0000
  H   H13       1.0  0.15516685046530657  0.9827656453036725  0.4677435254178092  1.0000
  H   H14       1.0  0.8448337755400885  0.0172333146774761  0.5322565479646358  1.0000
  H   H15       1.0  0.18591818032236068  0.8028812543412801  0.5749064810151198  1.0000
  H   H16       1.0  0.8140812571397477  0.1971166111229721  0.4250943799740198  1.0000
  H   H17       1.0  0.04355717652845212  0.8274081507586362  0.4974236560519358  1.0000
  H   H18       1.0  0.956443536498398  0.172591898729479  0.5025760123857735  1.0000
  H   H19       1.0  0.8376007257780316  0.40521672364247513  0.7722184908966125  1.0000
  H   H20       1.0  0.16240117579209823  0.5947844203625438  0.22778038993440222  1.0000
  H   H21       1.0  0.9258566943361617  0.7077437985532812  0.3186256728533295  1.0000
  H   H22       1.0  0.07414409731383391  0.29225733285912275  0.6813716237222778  1.0000
  H   H23       1.0  0.4909242836317772  0.2001173958019891  0.22966426122556538  1.0000
  H   H24       1.0  0.5090742305505883  0.7998826474576219  0.7703371559947741  1.0000
  H   H25       1.0  0.8708409410277227  0.040540766000837905  0.04537795228454664  1.0000
  H   H26       1.0  0.12915866627815123  0.9594592746860044  0.9546211153564528  1.0000
  H   H27       1.0  0.9187586732422801  0.12567362281042452  0.15389246081304003  1.0000
  H   H28       1.0  0.08124085124129012  0.8743253321607938  0.846107995231371  1.0000
  H   H29       1.0  0.8776470798266658  0.23601859003370154  0.9932444731174426  1.0000
  H   H30       1.0  0.12235354617872933  0.7639803699474471  0.006755600265002214  1.0000
  H   H31       1.0  0.5187895526619714  0.9888861167401264  0.36898275213029313  1.0000
  H   H32       1.0  0.4812099760207573  0.011112842022441801  0.6310186873728085  1.0000
  H   H33       1.0  0.693978816977051  0.9729234348334974  0.3907075309274075  1.0000
  H   H34       1.0  0.3060206204850573  0.0270744306307549  0.6092933300617318  1.0000
  H   H35       1.0  0.6566083453641623  0.8918653104570781  0.2743791798986451  1.0000
  H   H36       1.0  0.34339117492025656  0.10813364072279802  0.7256202926870826  1.0000
  C   C1        1.0  0.8708121606812682  0.5644894640264155  0.046579492534384245  1.0000
  C   C2        1.0  0.1291874424254473  0.4355105728690917  0.9534185916479174  1.0000
  C   C3        1.0  0.918902811096075  0.464319806449616  0.15478897624549148  1.0000
  C   C4        1.0  0.08109578170943618  0.5356813187342838  0.8452100691127524  1.0000
  C   C5        1.0  0.9505061584785536  0.6005026042534993  0.8920851458946402  1.0000
  C   C6        1.0  0.04949234730549531  0.3994974314234271  0.10791430440832525  1.0000
  C   C7        1.0  0.35189753356139164  0.7470944751206118  0.34807912453144507  1.0000
  C   C8        1.0  0.6481020821427989  0.2529055731489223  0.6519219100269354  1.0000
  C   C9        1.0  0.26360982989265114  0.9592495665236311  0.1980550432325218  1.0000
  C   C10       1.0  0.7363908003118951  0.04074939724885951  0.8019460136086067  1.0000
  C   C11       1.0  0.15481950210322282  0.8678077614941133  0.47906473632774293  1.0000
  C   C12       1.0  0.8451812151227857  0.1321922917853513  0.520935915568664  1.0000
  C   C13       1.0  0.8707736632964256  0.56269140631634  0.5506891462460501  1.0000
  C   C14       1.0  0.1292282340745459  0.4373097338973295  0.44930875112627433  1.0000
  C   C15       1.0  0.9094944052331613  0.44504406959549686  0.6534813583958013  1.0000
  C   C16       1.0  0.09050749213781017  0.5549570706181725  0.3465165389765304  1.0000
  C   C17       1.0  0.9599218005791528  0.6180788953858709  0.3975549253931518  1.0000
  C   C18       1.0  0.04007908229146301  0.3819233293248417  0.6024429496964174  1.0000
  C   C19       1.0  0.6063324482728163  0.22535359778903089  0.150154245810647  1.0000
  C   C20       1.0  0.39366597888808746  0.7746453559636138  0.8498475763544208  1.0000
  C   C21       1.0  0.8496969203483715  0.1314198397760507  0.08709387339290213  1.0000
  C   C22       1.0  0.1503015854356775  0.8685801959008758  0.9129055769100631  1.0000
  C   C23       1.0  0.6373460703786905  0.9856847126885884  0.311269911802931  1.0000
  C   C24       1.0  0.3626535411263347  0.014315331789603598  0.6887301392967585  1.0000
  S   S1        1.0  0.7114796953253943  0.6564740109107063  0.10697620131629289  1.0000
  S   S2        1.0  0.2885211917443726  0.34352821759135577  0.8930226572319668  1.0000
  S   S3        1.0  0.7073215110689118  0.6470605739409835  0.6168151266027877  1.0000
  S   S4        1.0  0.2926792889794001  0.35294056505410515  0.3831841368902005  1.0000
  N   N1        1.0  0.2624680471002137  0.8545851330901685  0.34180284567748487  1.0000
  N   N2        1.0  0.7375336804269993  0.14541383190090335  0.6581968450429868  1.0000
  N   N3        1.0  0.6942141312724956  0.1198413209532134  0.18076496491978128  1.0000
  N   N4        1.0  0.3057854802325295  0.8801587235249785  0.8192350861799017  1.0000
  O   O1        1.0  0.630026926414999  0.5650784533502177  0.2647066128936756  1.0000
  O   O2        1.0  0.36997268509002623  0.43492159112797424  0.7352934382060069  1.0000
  O   O3        1.0  0.6281580175549735  0.6661980328855325  0.006978365522797824  1.0000
  O   O4        1.0  0.3718416809715137  0.33380310109962613  0.9930212806321635  1.0000
  O   O5        1.0  0.765639226263552  0.8008465054333201  0.08662359733920508  1.0000
  O   O6        1.0  0.2343614867632979  0.19915354405480198  0.9133760710985044  1.0000
  O   O7        1.0  0.35028312808726275  0.6524118692310098  0.4706424623917229  1.0000
  O   O8        1.0  0.6497175933379039  0.34758818783979717  0.5293591729633675  1.0000
  O   O9        1.0  0.6264203364928704  0.6617217489928681  0.514306214252123  1.0000
  O   O10       1.0  0.37358038073313793  0.3382783042865968  0.48569443764428394  1.0000
  O   O11       1.0  0.6278863344939083  0.5455170456427256  0.7707651435189291  1.0000
  O   O12       1.0  0.372113277011124  0.45448299883547355  0.22923490758075357  1.0000
  O   O13       1.0  0.7546219120539703  0.789330986194365  0.6088272785922155  1.0000
  O   O14       1.0  0.24537880097288675  0.21066906329375  0.3911723898455008  1.0000
  O   O15       1.0  0.6482028847046309  0.34446656460645636  0.040102859217682904  1.0000
  O   O16       1.0  0.35179453215507545  0.6555334774345809  0.9598999241233201  1.0000
