data_image0
_chemical_formula_structural       Gd2H4C8O12
_chemical_formula_sum              "Gd2 H4 C8 O12"
_cell_length_a       6.811393991841677
_cell_length_b       6.951167339725661
_cell_length_c       7.420619905669979
_cell_angle_alpha    86.44161121572131
_cell_angle_beta     64.39681366017496
_cell_angle_gamma    67.77488226888167

_space_group_name_H-M_alt    "P 1"
_space_group_IT_number       1

loop_
  _space_group_symop_operation_xyz
  'x, y, z'

loop_
  _atom_site_type_symbol
  _atom_site_label
  _atom_site_symmetry_multiplicity
  _atom_site_fract_x
  _atom_site_fract_y
  _atom_site_fract_z
  _atom_site_occupancy
  Gd  Gd1       1.0  0.3003877338630829  0.32601255533647594  0.05589319386354669  1.0000
  Gd  Gd2       1.0  0.6996123485703052  0.6739866284107735  0.9441075369496019  1.0000
  H   H1        1.0  0.0983600099845601  0.9638565790622595  0.7122524053224312  1.0000
  H   H2        1.0  0.901640766639048  0.036141034175308596  0.28774948484849705  1.0000
  H   H3        1.0  0.4041158063999078  0.8310616605471707  0.55301540782024  1.0000
  H   H4        1.0  0.5958849664316759  0.16893595755083626  0.4469851359831125  1.0000
  C   C1        1.0  0.3257148111392069  0.010098101747892897  0.8161060313534207  1.0000
  C   C2        1.0  0.6742852675021497  0.9899010868597955  0.18389335309215224  1.0000
  C   C3        1.0  0.27004787631693017  0.8721490966082184  0.7117603491468216  1.0000
  C   C4        1.0  0.7299528965146536  0.12784852148978837  0.2882401946565309  1.0000
  C   C5        1.0  0.025240967048816274  0.38623096158006126  0.5280511974709866  1.0000
  C   C6        1.0  0.9747614224005333  0.6137666710711542  0.47194466010981956  1.0000
  C   C7        1.0  0.27144963751844403  0.6783496449002228  0.8127894389754715  1.0000
  C   C8        1.0  0.728552076700808  0.32164953395849233  0.1872119910854125  1.0000
  O   O1        1.0  0.9295575543072372  0.36567541323055514  0.7120148664325684  1.0000
  O   O2        1.0  0.07044090771635328  0.634323760823932  0.2879892042355507  1.0000
  O   O3        1.0  0.3599641535747082  0.16993716447186805  0.7443459233268043  1.0000
  O   O4        1.0  0.6400345366862084  0.8300651651551831  0.2556511424032096  1.0000
  O   O5        1.0  0.32758232826794415  0.9657967309541319  0.9883871275191608  1.0000
  O   O6        1.0  0.6724219439567563  0.0342040232184928  0.011610502576694187  1.0000
  O   O7        1.0  0.09960944176619788  0.6206839765500973  0.8751851222341072  1.0000
  O   O8        1.0  0.9003929590592322  0.37931364151981467  0.12481477444940481  1.0000
  O   O9        1.0  0.15907723532914989  0.23912161948373978  0.3831545819832627  1.0000
  O   O10       1.0  0.8409212229024164  0.7608775594311793  0.6168481423172878  1.0000
  O   O11       1.0  0.453979700745677  0.5667641133165233  0.8404994342867552  1.0000
  O   O12       1.0  0.5460213268674111  0.43323662633099513  0.15950352915147895  1.0000
