data_image0
_chemical_formula_structural       Cu2H32C32N16Cl4
_chemical_formula_sum              "Cu2 H32 C32 N16 Cl4"
_cell_length_a       7.520728355766552
_cell_length_b       8.19225207857727
_cell_length_c       16.08585408410696
_cell_angle_alpha    89.99989416839125
_cell_angle_beta     90.00040843654956
_cell_angle_gamma    116.48240107494405

_space_group_name_H-M_alt    "P 1"
_space_group_IT_number       1

loop_
  _space_group_symop_operation_xyz
  'x, y, z'

loop_
  _atom_site_type_symbol
  _atom_site_label
  _atom_site_symmetry_multiplicity
  _atom_site_fract_x
  _atom_site_fract_y
  _atom_site_fract_z
  _atom_site_occupancy
  Cu  Cu1       1.0  0.4999997829439735  0.49999971035296636  0.999999719194044  1.0000
  Cu  Cu2       1.0  0.9999994311934158  1.5231804724007374e-06  0.4999993622329982  1.0000
  H   H1        1.0  0.2108725379628353  0.0883882693117712  0.9369483829092076  1.0000
  H   H2        1.0  0.2891284146986806  0.41161343805232775  0.43694755395588913  1.0000
  H   H3        1.0  0.7891298832901654  0.911613538584163  0.063050687705946  1.0000
  H   H4        1.0  0.7108713533740314  0.5883883824093061  0.5630521383190654  1.0000
  H   H5        1.0  0.8348028459752682  0.35848029192548136  0.9552262215154953  1.0000
  H   H6        1.0  0.6652035827872992  0.1415234890420507  0.4552277234018973  1.0000
  H   H7        1.0  0.16520155992217408  0.6415201396589438  0.0447740924320712  1.0000
  H   H8        1.0  0.3347968538474787  0.8584796951705584  0.5447732122019744  1.0000
  H   H9        1.0  0.6966571651826073  0.8816007501218622  0.8989290739363084  1.0000
  H   H10       1.0  0.8033404315384444  0.6183968624562864  0.3989298144965829  1.0000
  H   H11       1.0  0.30334458751881493  0.11839969402516459  0.1010699966783832  1.0000
  H   H12       1.0  0.19665468822012844  0.3816036131065203  0.6010717427639491  1.0000
  H   H13       1.0  0.8980119268211908  0.0967789038305824  0.916349435610833  1.0000
  H   H14       1.0  0.6019865339539263  0.4032206819426705  0.4163510997797745  1.0000
  H   H15       1.0  0.10199181050894165  0.9032201640018299  0.0836490133435959  1.0000
  H   H16       1.0  0.3980112389849351  0.5967797810544438  0.5836498358209568  1.0000
  H   H17       1.0  0.5787601536170399  0.0864557246520974  0.7358816496668013  1.0000
  H   H18       1.0  0.9212412265641275  0.41354186677945387  0.2358837454702609  1.0000
  H   H19       1.0  0.42123960393479354  0.913543362027319  0.2641167992809912  1.0000
  H   H20       1.0  0.07875254557564652  0.5864531475043435  0.7641171901263988  1.0000
  H   H21       1.0  0.6833260612769934  0.0834889037850317  0.5906498724469742  1.0000
  H   H22       1.0  0.8166702257489076  0.41651095179807374  0.0906516172142062  1.0000
  H   H23       1.0  0.3166736962800839  0.9165101828954147  0.40934919816503873  1.0000
  H   H24       1.0  0.1833262100867968  0.5834867837012112  0.9093493183855942  1.0000
  H   H25       1.0  0.1687437002735095  0.0052765817132112  0.664364753235688  1.0000
  H   H26       1.0  0.331254637769547  0.4947228443193553  0.164365850520042  1.0000
  H   H27       1.0  0.8312533935771568  0.9947197837496732  0.3356330740447362  1.0000
  H   H28       1.0  0.6687451303189035  0.5052789761453766  0.8356357067475884  1.0000
  H   H29       1.0  0.07091107010457164  0.9847533437709047  0.8135759716886923  1.0000
  H   H30       1.0  0.429087241318058  0.5152487724044974  0.3135766074194919  1.0000
  H   H31       1.0  0.9290860237460948  0.015243021691979703  0.18642185559173194  1.0000
  H   H32       1.0  0.5709105421364312  0.4847544243738112  0.6864249498441808  1.0000
  C   C1        1.0  0.3661784249456587  0.1205407490878372  0.9288470980351704  1.0000
  C   C2        1.0  0.1338270498653173  0.37946501006099714  0.4288464041597635  1.0000
  C   C3        1.0  0.6338259914516797  0.8794624162746772  0.0711519725826619  1.0000
  C   C4        1.0  0.866173386764217  0.6205381741505749  0.5711539097798877  1.0000
  C   C5        1.0  0.6832237730184048  0.2626337567321286  0.9400126478168715  1.0000
  C   C6        1.0  0.8167803934014798  0.23736588247888332  0.4400151849728573  1.0000
  C   C7        1.0  0.3167793062810275  0.7373666811335938  0.0599870444642576  1.0000
  C   C8        1.0  0.18321937468696342  0.7626359379858414  0.5599863722947732  1.0000
  C   C9        1.0  0.7633544053454031  0.0245900398830514  0.8782996652247803  1.0000
  C   C10       1.0  0.7366454085578622  0.4754107770240381  0.3783004658241751  1.0000
  C   C11       1.0  0.23664667879918974  0.9754090405140304  0.12169878372522192  1.0000
  C   C12       1.0  0.26335170634504823  0.5245910560053559  0.6217010914390286  1.0000
  C   C13       1.0  0.815858272483588  0.03454116328536829  0.7876915655681458  1.0000
  C   C14       1.0  0.6841353642800384  0.4654580078882447  0.2876934441120085  1.0000
  C   C15       1.0  0.18414081651666686  0.9654565596451333  0.2123068833791777  1.0000
  C   C16       1.0  0.3158617401177253  0.5345410913620228  0.7123087348167089  1.0000
  C   C17       1.0  0.7086639893744644  0.06410110373889918  0.7235151101746311  1.0000
  C   C18       1.0  0.791339177272448  0.4358978040964915  0.2235148871474024  1.0000
  C   C19       1.0  0.29133509963103416  0.9358966191926326  0.27648396043692  1.0000
  C   C20       1.0  0.2086592431919598  0.5640985550881865  0.7764854267921281  1.0000
  C   C21       1.0  0.7675103753741793  0.0633274625818814  0.6413374147226705  1.0000
  C   C22       1.0  0.7324867668988375  0.43667256129248944  0.14133948164717217  1.0000
  C   C23       1.0  0.23248738702806554  0.9366702666299177  0.3586604125582227  1.0000
  C   C24       1.0  0.2675096689368602  0.5633251742068027  0.858661453952628  1.0000
  C   C25       1.0  0.0352234011063857  0.0158573317944928  0.6833252847313105  1.0000
  C   C26       1.0  0.4647686239162779  0.4841421886066043  0.18332932334800486  1.0000
  C   C27       1.0  0.9647743613011031  0.9841403974183364  0.3166731642138032  1.0000
  C   C28       1.0  0.5352278224455488  0.5158582806759355  0.8166734772431852  1.0000
  C   C29       1.0  0.98286684418116  0.009944034822972002  0.7661493249723749  1.0000
  C   C30       1.0  0.5171390264637025  0.49005363825170883  0.2661493806768149  1.0000
  C   C31       1.0  0.017130907710693942  0.99005096060867  0.23384850230979742  1.0000
  C   C32       1.0  0.4828633947945419  0.5099481696452628  0.7338503116025592  1.0000
  N   N1        1.0  0.6312930035428223  0.10303941707028492  0.9010672385863003  1.0000
  N   N2        1.0  0.8687125009006916  0.39696145030237767  0.4010697968960102  1.0000
  N   N3        1.0  0.3687107443029448  0.896962384543322  0.0989318320310701  1.0000
  N   N4        1.0  0.13128793573933706  0.6030417339112616  0.5989317603720821  1.0000
  N   N5        1.0  0.4294401651139168  0.009861350337303098  0.8933179022529812  1.0000
  N   N6        1.0  0.0705613674831582  0.4901374721090122  0.39332000077488527  1.0000
  N   N7        1.0  0.5705642407677871  0.990139081244024  0.1066805467019094  1.0000
  N   N8        1.0  0.9294384006052923  0.5098643483557197  0.6066815564927452  1.0000
  N   N9        1.0  0.5177341802812021  0.2777495986555109  0.9583191331631511  1.0000
  N   N10       1.0  0.9822669942838826  0.22225421770779974  0.4583191274479789  1.0000
  N   N11       1.0  0.4822688990129792  0.7222508392091812  0.0416799374537504  1.0000
  N   N12       1.0  0.017733442345651426  0.7777489665037791  0.5416811864916653  1.0000
  N   N13       1.0  0.9272270148206871  0.038334290991429  0.62141646247089  1.0000
  N   N14       1.0  0.5727784089007739  0.4616642590119112  0.1214154871264697  1.0000
  N   N15       1.0  0.07277074759204541  0.9616634382224304  0.3785826081384513  1.0000
  N   N16       1.0  0.42722267527004476  0.538334821390329  0.8785860701446495  1.0000
  Cl  Cl1       1.0  0.9037904427104378  0.7063328139882756  0.9627955545664477  1.0000
  Cl  Cl2       1.0  0.5962095687332152  0.7936677381362784  0.4627973036831818  1.0000
  Cl  Cl3       1.0  0.09621129949108106  0.2936648963806547  0.0372047593779783  1.0000
  Cl  Cl4       1.0  0.40378887275721814  0.20633408860975067  0.5372036319180112  1.0000
