data_image0
_chemical_formula_structural       Zn4H16C32O13F2
_chemical_formula_sum              "Zn4 H16 C32 O13 F2"
_cell_length_a       13.078294854736383
_cell_length_b       13.250279886965181
_cell_length_c       18.087136629215742
_cell_angle_alpha    68.89287633721003
_cell_angle_beta     72.38157665911349
_cell_angle_gamma    88.78486715455229

_space_group_name_H-M_alt    "P 1"
_space_group_IT_number       1

loop_
  _space_group_symop_operation_xyz
  'x, y, z'

loop_
  _atom_site_type_symbol
  _atom_site_label
  _atom_site_symmetry_multiplicity
  _atom_site_fract_x
  _atom_site_fract_y
  _atom_site_fract_z
  _atom_site_occupancy
  Zn  Zn1       1.0  0.41612705716291026  0.4468880768360038  0.4452085754474383  1.0000
  Zn  Zn2       1.0  0.5533990524523064  0.3816361196822698  0.5723490385569789  1.0000
  Zn  Zn3       1.0  0.4096918174066317  0.5699009294239802  0.5737540323977087  1.0000
  Zn  Zn4       1.0  0.6097397689640901  0.6117398905607417  0.40707446146774373  1.0000
  H   H1        1.0  0.6740051879646528  0.7578759915658326  0.8799478491364783  1.0000
  H   H2        1.0  0.37377655434400486  0.23900062220366897  0.8441138719074888  1.0000
  H   H3        1.0  0.3483054001806993  0.24211954364070468  0.1125024848822207  1.0000
  H   H4        1.0  0.7144573244802785  0.791257125946217  0.9933693575786793  1.0000
  H   H5        1.0  0.6867808897594898  0.7404353286576681  0.1457346938692296  1.0000
  H   H6        1.0  0.4672873037601022  0.46757374040110034  0.20382369696605454  1.0000
  H   H7        1.0  0.587643339364476  0.6448728403382094  0.83054987256309  1.0000
  H   H8        1.0  0.41511951613320963  0.3661789981194589  0.16358997737442138  1.0000
  H   H9        1.0  0.33695931349296165  0.1926268350248607  0.9970577292725341  1.0000
  H   H10       1.0  0.0989416400032823  0.49395425827027145  0.4561648908045371  1.0000
  H   H11       1.0  0.9443752476026859  0.5208394267467684  0.40782413214780894  1.0000
  H   H12       1.0  0.0523117582143797  0.4864345141546381  0.6361368547362218  1.0000
  H   H13       1.0  0.4283961441259123  0.8947710340458106  0.55569411542902  1.0000
  H   H14       1.0  0.437822768388834  0.04682549654033612  0.600315635402666  1.0000
  H   H15       1.0  0.5388416921886902  0.960119672902053  0.36572780649677833  1.0000
  H   H16       1.0  0.5100478403945843  0.5577698128942288  0.7922629302827321  1.0000
  C   C1        1.0  0.7731679772194725  0.4956083290897412  0.48057710308667373  1.0000
  C   C2        1.0  0.42995638583199997  0.39003472774121667  0.09674155722344574  1.0000
  C   C3        1.0  0.3923266853321011  0.3202046504154624  0.06845052089226297  1.0000
  C   C4        1.0  0.2162840242198527  0.499095015346228  0.5500442136460677  1.0000
  C   C5        1.0  0.4104707645222305  0.3467168428484442  0.9815966867755256  1.0000
  C   C6        1.0  0.4649521266824408  0.45041341958656744  0.9235398660506393  1.0000
  C   C7        1.0  0.37708219764655126  0.2718598615413513  0.9518674473498127  1.0000
  C   C8        1.0  0.39609610012305313  0.29733089025941695  0.8677021465975305  1.0000
  C   C9        1.0  0.47516932994696515  0.47758793307714614  0.8384123283894738  1.0000
  C   C10       1.0  0.0971847306224944  0.48896751544140943  0.5739133054504748  1.0000
  C   C11       1.0  0.0484805597634832  0.48776862768008306  0.5182856986670501  1.0000
  C   C12       1.0  0.6456057606212868  0.6924719594954993  0.1234631892888985  1.0000
  C   C13       1.0  0.8894281455720049  0.49675153609734923  0.47141947673290485  1.0000
  C   C14       1.0  0.9340146188332171  0.48021985286908386  0.5326265882440852  1.0000
  C   C15       1.0  0.501161110007267  0.9087925783522907  0.4311267792673237  1.0000
  C   C16       1.0  0.4614670306324769  0.22127260685668665  0.5248311036882429  1.0000
  C   C17       1.0  0.46114262685067337  0.9504656829707162  0.49075246702982167  1.0000
  C   C18       1.0  0.4491023858768486  0.10501913155942331  0.537271301582358  1.0000
  C   C19       1.0  0.4625783372687097  0.06474935547374373  0.47657805633028283  1.0000
  C   C20       1.0  0.5041746364888411  0.7898621176419879  0.45382666309289743  1.0000
  C   C21       1.0  0.4581216189812025  0.4319693900401378  0.7202486793196031  1.0000
  C   C22       1.0  0.5521504026241927  0.5734215466742898  0.2735360729356202  1.0000
  C   C23       1.0  0.52178179515915  0.5368875350669243  0.15589957285509826  1.0000
  C   C24       1.0  0.5734918707366674  0.601159622912654  0.18243410100097193  1.0000
  C   C25       1.0  0.44279660360499656  0.40252002563060074  0.8106763054038382  1.0000
  C   C26       1.0  0.6608403379788613  0.7196694926526208  0.03955885312623758  1.0000
  C   C27       1.0  0.5391188432000362  0.5602196361653144  0.07027902381013722  1.0000
  C   C28       1.0  0.6080086698705216  0.6557851662683375  0.011155347590772587  1.0000
  C   C29       1.0  0.49121124604102556  0.4910350497081668  0.04059785892548008  1.0000
  C   C30       1.0  0.5087276355462792  0.5217693975980994  0.9536579500331971  1.0000
  C   C31       1.0  0.57369088405639  0.620593254371194  0.8973339566137569  1.0000
  C   C32       1.0  0.6224559274455146  0.6841975186304411  0.9246382801046169  1.0000
  O   O1        1.0  0.49891541367473025  0.5027828981830426  0.49853719721900813  1.0000
  O   O2        1.0  0.48083704461871696  0.3564396882929799  0.6912602467681526  1.0000
  O   O3        1.0  0.6166117898093688  0.6198741412364088  0.2949770815322026  1.0000
  O   O4        1.0  0.4470457060768995  0.530058964974245  0.6779567555001265  1.0000
  O   O5        1.0  0.47053179075405194  0.5053663845153409  0.32329077291981184  1.0000
  O   O6        1.0  0.41777352530093026  0.28823149547118737  0.47574205891571364  1.0000
  O   O7        1.0  0.5751524452456067  0.759602655072314  0.40177208094596045  1.0000
  O   O8        1.0  0.7087712149082321  0.42120797619145384  0.5436159932355837  1.0000
  O   O9        1.0  0.2568167134944872  0.5220271747549036  0.5989960328420879  1.0000
  O   O10       1.0  0.7499183459743863  0.5706092377810776  0.421671680205428  1.0000
  O   O11       1.0  0.26848269106526607  0.48538521119867567  0.4826432309113501  1.0000
  O   O12       1.0  0.5155706593260518  0.24240320513664676  0.5666319198600931  1.0000
  O   O13       1.0  0.437416274103626  0.7285449691137774  0.5233249496179441  1.0000
  F   F1        1.0  0.8711551752703104  0.45904349658605537  0.6125892849441357  1.0000
  F   F2        1.0  0.48615806192491823  0.13279179327160054  0.3953781696493694  1.0000
