data_image0
_chemical_formula_structural       ZnH12C20S2N2O4F6
_chemical_formula_sum              "Zn1 H12 C20 S2 N2 O4 F6"
_cell_length_a       7.0663183009281205
_cell_length_b       8.91052627489625
_cell_length_c       10.761350714703273
_cell_angle_alpha    76.19981202098653
_cell_angle_beta     70.9087488414962
_cell_angle_gamma    66.64547589229059

_space_group_name_H-M_alt    "P 1"
_space_group_IT_number       1

loop_
  _space_group_symop_operation_xyz
  'x, y, z'

loop_
  _atom_site_type_symbol
  _atom_site_label
  _atom_site_symmetry_multiplicity
  _atom_site_fract_x
  _atom_site_fract_y
  _atom_site_fract_z
  _atom_site_occupancy
  Zn  Zn1       1.0  0.7939773601691725  0.9999197747366182  3.816288151623668e-05  1.0000
  H   H1        1.0  0.004562997577046817  0.15375040884168104  0.41347756040157435  1.0000
  H   H2        1.0  0.571680065463525  0.8464208800771047  0.5862905500922437  1.0000
  H   H3        1.0  0.24908719808212287  0.752992468044532  0.9733084815126459  1.0000
  H   H4        1.0  0.9756410824960542  0.24740100023773692  0.026651966143674558  1.0000
  H   H5        1.0  0.8598944939232709  0.27278930834062015  0.5902430205435251  1.0000
  H   H6        1.0  0.7230377425505738  0.7272943217807112  0.4097956089446057  1.0000
  H   H7        1.0  0.6116447233769623  0.752691451559592  0.9730288475007068  1.0000
  H   H8        1.0  0.3378739970241114  0.24711328564683302  0.027098399334121816  1.0000
  H   H9        1.0  0.19927327675351575  0.9302326258762651  0.2490901380761557  1.0000
  H   H10       1.0  0.37874093960586913  0.0697061924763318  0.750778373708549  1.0000
  H   H11       1.0  0.2905974331973622  0.6287844093398081  0.37748431327153037  1.0000
  H   H12       1.0  0.2964771014889964  0.37116625677369797  0.6225548228338694  1.0000
  C   C1        1.0  0.056796809031354346  0.021690961468230803  0.4447389455991057  1.0000
  C   C2        1.0  0.5233042980310286  0.9784432976156766  0.5550412980457934  1.0000
  C   C3        1.0  0.027143718339559062  0.9526707759046503  0.5766617051575834  1.0000
  C   C4        1.0  0.5563660278804718  0.0475104047109483  0.42314740868479817  1.0000
  C   C5        1.0  0.2711842494380297  0.8625067118183337  0.9851637261525424  1.0000
  C   C6        1.0  0.11888134375541168  0.13772633915647964  0.014929341109130703  1.0000
  C   C7        1.0  0.7477626208815309  0.29491496335728573  0.7954023681659448  1.0000
  C   C8        1.0  0.8376042247254601  0.7049518791215236  0.20468242714616028  1.0000
  C   C9        1.0  0.9280468789320083  0.028931936533915303  0.6990702596870477  1.0000
  C   C10       1.0  0.6560216234527302  0.9710730287417136  0.3008085480770362  1.0000
  C   C11       1.0  0.6694114627427438  0.4838379219834224  0.7647346802622507  1.0000
  C   C12       1.0  0.9173283186539148  0.5160220390117163  0.2354430613413143  1.0000
  C   C13       1.0  0.844818452108868  0.20459596784446177  0.688909252712058  1.0000
  C   C14       1.0  0.7380430794559704  0.7953766047535638  0.3111130118823198  1.0000
  C   C15       1.0  0.46841690960381754  0.8624100135917487  0.9850304449550433  1.0000
  C   C16       1.0  0.3160912530702688  0.13759099406449593  0.014930464558233296  1.0000
  C   C17       1.0  0.1615282259373104  0.9018510002154019  0.35627363164734044  1.0000
  C   C18       1.0  0.4196096964711772  0.09813341886648892  0.6436076616503711  1.0000
  C   C19       1.0  0.21043752959628376  0.7432346858245041  0.421453351614609  1.0000
  C   C20       1.0  0.37486073483761123  0.2567859061126043  0.5785185457025007  1.0000
  S   S1        1.0  0.12941419791132366  0.7395719432477748  0.5895809689201171  1.0000
  S   S2        1.0  0.4580323560800252  0.2606186465594505  0.41037775191631437  1.0000
  N   N1        1.0  0.09841326933230479  0.0001344714471401  9.368776657230203e-05  1.0000
  N   N2        1.0  0.48889186104165844  0.9999673423574722  0.9999351869414496  1.0000
  O   O1        1.0  0.7095644404377528  0.2477784433108  0.9202892936838296  1.0000
  O   O2        1.0  0.8773066849738524  0.7520353132866336  0.0797911743913033  1.0000
  O   O3        1.0  0.923522463547833  0.931394263333914  0.8076039860417195  1.0000
  O   O4        1.0  0.6628882915196568  0.0684660694858295  0.19222269469191383  1.0000
  F   F1        1.0  0.4540536561760576  0.5501791491225418  0.8189642023551825  1.0000
  F   F2        1.0  0.8222744650121854  0.45002026479918567  0.18096652269806401  1.0000
  F   F3        1.0  0.7058630351627501  0.5419264296874076  0.6328576639187772  1.0000
  F   F4        1.0  0.8798679570742677  0.45790522272223205  0.36732309732636986  1.0000
  F   F5        1.0  0.7662378896944305  0.549192392822299  0.81839253298142  1.0000
  F   F6        1.0  0.13300505013734923  0.45030042418326127  0.18210191353312408  1.0000
