data_image0
_chemical_formula_structural       Fe6H6C24O18
_chemical_formula_sum              "Fe6 H6 C24 O18"
_cell_length_a       6.742688524319646
_cell_length_b       15.232363970754983
_cell_length_c       15.276558770539992
_cell_angle_alpha    117.95008138471171
_cell_angle_beta     98.42327124387641
_cell_angle_gamma    97.82108911836363

_space_group_name_H-M_alt    "P 1"
_space_group_IT_number       1

loop_
  _space_group_symop_operation_xyz
  'x, y, z'

loop_
  _atom_site_type_symbol
  _atom_site_label
  _atom_site_symmetry_multiplicity
  _atom_site_fract_x
  _atom_site_fract_y
  _atom_site_fract_z
  _atom_site_occupancy
  Fe  Fe1       1.0  0.4873010764367435  0.27711785292782315  0.606840200142365  1.0000
  Fe  Fe2       1.0  0.21260233115903301  0.33024954825749125  0.7260252685666726  1.0000
  Fe  Fe3       1.0  0.8804039348664928  0.39713292005172457  0.6717354212001608  1.0000
  Fe  Fe4       1.0  0.5264779825518674  0.7259537351269643  0.39416429039225426  1.0000
  Fe  Fe5       1.0  0.7817156493168793  0.676332439472496  0.26896382944111946  1.0000
  Fe  Fe6       1.0  0.11557509901307132  0.5881953011435499  0.32284570515840727  1.0000
  H   H1        1.0  0.8191465387703829  0.4407941673176765  0.46628806041386633  1.0000
  H   H2        1.0  0.3816599279850834  0.0214397702272677  0.5559909709994384  1.0000
  H   H3        1.0  0.35071979575647566  0.5359399822240576  0.9754967496051704  1.0000
  H   H4        1.0  0.1759597233506298  0.5538138539998413  0.5289543117521517  1.0000
  H   H5        1.0  0.6301592137530747  0.9805161195392885  0.4523180284276833  1.0000
  H   H6        1.0  0.6485978745552288  0.470153646233527  0.024261606215233676  1.0000
  C   C1        1.0  0.225990740177501  0.42110716535016485  0.5883832054720272  1.0000
  C   C2        1.0  0.8123345380514596  0.1703049464673398  0.5832309212824638  1.0000
  C   C3        1.0  0.6390033818583306  0.4133364826845849  0.8333246257939207  1.0000
  C   C4        1.0  0.7644366026438475  0.5682948233894152  0.4014662246621724  1.0000
  C   C5        1.0  0.19172250521238962  0.8281694802076844  0.4256263558327618  1.0000
  C   C6        1.0  0.35857147282573726  0.5966653132075309  0.16696560292346158  1.0000
  C   C7        1.0  0.3701505705365378  0.458336925548494  0.5432031063518037  1.0000
  C   C8        1.0  0.9191798484255784  0.0871380523143657  0.545124490997935  1.0000
  C   C9        1.0  0.8271109969933904  0.4579339828055637  0.9152608196356267  1.0000
  C   C10       1.0  0.6223197227545754  0.5342147153417116  0.44981996986854245  1.0000
  C   C11       1.0  0.09200279839559049  0.915086498765021  0.46384528578244033  1.0000
  C   C12       1.0  0.17188377632842136  0.5492644378349498  0.08431513808528734  1.0000
  C   C13       1.0  0.5573815112084048  0.4254066338499314  0.5262105292921929  1.0000
  C   C14       1.0  0.13786401292593098  0.100645992286303  0.5756244699488562  1.0000
  C   C15       1.0  0.03060516609407675  0.4759278418704583  0.8998352491999951  1.0000
  C   C16       1.0  0.4361622637990052  0.5678984851665163  0.4673385741269199  1.0000
  C   C17       1.0  0.8747229937469427  0.9027720228951779  0.43368617682706656  1.0000
  C   C18       1.0  0.9687084220358673  0.5303320347746165  0.09971504361195112  1.0000
  C   C19       1.0  0.6768135854443145  0.4650641748053771  0.4796129195740803  1.0000
  C   C20       1.0  0.2164054219921638  0.012800112213476201  0.5332583142813617  1.0000
  C   C21       1.0  0.195858029724029  0.5216103954271675  0.9858494514481533  1.0000
  C   C22       1.0  0.3176598412472273  0.5291097472169213  0.514795237222465  1.0000
  C   C23       1.0  0.795400825312896  0.9894468630363136  0.47498214549482737  1.0000
  C   C24       1.0  0.8035520535447063  0.4845992987475398  0.013973769985746213  1.0000
  O   O1        1.0  0.24764159978289507  0.3418067336414694  0.5981095714667289  1.0000
  O   O2        1.0  0.9108711863456447  0.2590232662527683  0.6616636731012305  1.0000
  O   O3        1.0  0.6496331305244495  0.40391890518425577  0.7444679562130574  1.0000
  O   O4        1.0  0.7414824348693757  0.6442976798516327  0.3874082701125516  1.0000
  O   O5        1.0  0.0844072897881674  0.7390057312624947  0.3533771794480954  1.0000
  O   O6        1.0  0.34484032842907913  0.6139146159775138  0.25728513641148243  1.0000
  O   O7        1.0  0.07800871727937417  0.46221636223969387  0.6165798194520631  1.0000
  O   O8        1.0  0.624440576287256  0.1579720310323154  0.5429154839241119  1.0000
  O   O9        1.0  0.4637411570004559  0.38468991137852265  0.8455591827671469  1.0000
  O   O10       1.0  0.9121997596469028  0.525824268647341  0.37545469843259827  1.0000
  O   O11       1.0  0.38200085665472006  0.8407304054530937  0.462708713679177  1.0000
  O   O12       1.0  0.536492338123793  0.6211226239565165  0.15326431055348164  1.0000
  O   O13       1.0  0.6268456601408374  0.3600486497118495  0.5520601460056724  1.0000
  O   O14       1.0  0.2703849938911134  0.19103578229135823  0.6413508568364817  1.0000
  O   O15       1.0  0.07407597614993475  0.4515231722099386  0.8091020879538103  1.0000
  O   O16       1.0  0.3674651583180477  0.6326582723800769  0.4396152990411649  1.0000
  O   O17       1.0  0.7410063662648696  0.8121927445184979  0.36800451474935864  1.0000
  O   O18       1.0  0.9283089206518936  0.5549161357884458  0.1917414315843827  1.0000
