data_image0
_chemical_formula_structural       Cu12H84C108N24
_chemical_formula_sum              "Cu12 H84 C108 N24"
_cell_length_a       33.69035148900581
_cell_length_b       34.317854055700906
_cell_length_c       34.461831188658685
_cell_angle_alpha    90.09183348477052
_cell_angle_beta     90.08882060194148
_cell_angle_gamma    90.00749295372434

_space_group_name_H-M_alt    "P 1"
_space_group_IT_number       1

loop_
  _space_group_symop_operation_xyz
  'x, y, z'

loop_
  _atom_site_type_symbol
  _atom_site_label
  _atom_site_symmetry_multiplicity
  _atom_site_fract_x
  _atom_site_fract_y
  _atom_site_fract_z
  _atom_site_occupancy
  Cu  Cu1       1.0  0.8755627673133547  0.9091838682070517  0.8258172780422797  1.0000
  Cu  Cu2       1.0  0.8394888688414711  0.8750278382845451  0.9034000732619704  1.0000
  Cu  Cu3       1.0  0.9233784640619334  0.844924961308422  0.8722985180474225  1.0000
  Cu  Cu4       1.0  0.1177521805857253  0.5821536974641291  0.3338939662562979  1.0000
  Cu  Cu5       1.0  0.1589046599800241  0.6231837661455798  0.4059075045123066  1.0000
  Cu  Cu6       1.0  0.07507771644522167  0.6532378859691973  0.3748516202093414  1.0000
  Cu  Cu7       1.0  0.37461280698325083  0.09294119125766538  0.6507814901532002  1.0000
  Cu  Cu8       1.0  0.3391842166519794  0.1276265223411244  0.5729640757026502  1.0000
  Cu  Cu9       1.0  0.4038742835972399  0.1754393568302888  0.6209217403352127  1.0000
  Cu  Cu10      1.0  0.6260154381725939  0.4103549719114313  0.1501195225920853  1.0000
  Cu  Cu11      1.0  0.6630336125093663  0.37441735624207684  0.0733528738963898  1.0000
  Cu  Cu12      1.0  0.5987097037497477  0.32676326910838327  0.12139642397543329  1.0000
  H   H1        1.0  0.36069195782867064  0.40073786909935905  0.44846046444300214  1.0000
  H   H2        1.0  0.46119495657519144  0.35750602873498133  0.38466559177583554  1.0000
  H   H3        1.0  0.39794644080966174  0.458659122209923  0.34383803881727465  1.0000
  H   H4        1.0  0.602524116438815  0.04262027976474061  0.8434251470286611  1.0000
  H   H5        1.0  0.5392637417688775  0.1426014655901966  0.886741965541944  1.0000
  H   H6        1.0  0.6439149355356192  0.10206066297979528  0.9460635629992  1.0000
  H   H7        1.0  0.7880795764397773  0.6490701976723797  0.0942975880325108  1.0000
  H   H8        1.0  0.8912476671145131  0.710213550645669  0.136369662945917  1.0000
  H   H9        1.0  0.8488079827932823  0.6086501289159189  0.1966740748038092  1.0000
  H   H10       1.0  0.15060440190183036  0.8948725663647821  0.6952780607396107  1.0000
  H   H11       1.0  0.11190976542633992  0.7907092312852769  0.6365758961717276  1.0000
  H   H12       1.0  0.21171297623347127  0.8553577157529871  0.5927146754224282  1.0000
  H   H13       1.0  0.8045313273256268  0.9631295580609062  0.7979695525107361  1.0000
  H   H14       1.0  0.7600590175042399  0.9252459265412583  0.909628357211183  1.0000
  H   H15       1.0  0.9998384602786673  0.8363872747550617  0.8188384234241327  1.0000
  H   H16       1.0  0.9387003620036152  0.9311044445872981  0.7610994443461367  1.0000
  H   H17       1.0  0.8299390093645371  0.8224998894451617  0.9781445365308273  1.0000
  H   H18       1.0  0.9462647169211637  0.7855488851404858  0.9392309433513475  1.0000
  H   H19       1.0  0.18488468736523336  0.5225064555823308  0.3092360505592566  1.0000
  H   H20       1.0  0.2400226564405088  0.5756371218728943  0.4099383141104127  1.0000
  H   H21       1.0  0.0010982798725648999  0.6646863382368339  0.3184380286292736  1.0000
  H   H22       1.0  0.052771225348621394  0.5593099360538929  0.2709213848309417  1.0000
  H   H23       1.0  0.17052990342095597  0.6783201164627498  0.4786985712656247  1.0000
  H   H24       1.0  0.0537419327420707  0.7148296429931804  0.4404947505048611  1.0000
  H   H25       1.0  0.32577107892720386  0.0141018850243384  0.656754431167478  1.0000
  H   H26       1.0  0.2853409252762233  0.056619743267731316  0.5451496874090012  1.0000
  H   H27       1.0  0.4630515829353143  0.19897551475071404  0.6894708378676528  1.0000
  H   H28       1.0  0.42731096550408404  0.0834639298908542  0.726162721224064  1.0000
  H   H29       1.0  0.31705608878148434  0.18988108082787392  0.5083083238020265  1.0000
  H   H30       1.0  0.4122415997964595  0.25031897354509175  0.5679281952067188  1.0000
  H   H31       1.0  0.6741310838514778  0.48940867045676834  0.1559013954818127  1.0000
  H   H32       1.0  0.7192946757212652  0.44417643195357215  0.0471110636641399  1.0000
  H   H33       1.0  0.5419443032739794  0.3021842896662079  0.1908694369737702  1.0000
  H   H34       1.0  0.5724856710944833  0.41997489904969854  0.2252298052093664  1.0000
  H   H35       1.0  0.6844486717621548  0.31216013999839726  0.008367572755752  1.0000
  H   H36       1.0  0.5899714754952754  0.25162945753942983  0.0685176839610051  1.0000
  H   H37       1.0  0.6676853206778472  0.025420763186190205  0.8399697578378851  1.0000
  H   H38       1.0  0.7206277926050646  0.9909401916294626  0.9055833333601201  1.0000
  H   H39       1.0  0.6738440981073524  0.040511387179485304  0.9278920599591773  1.0000
  H   H40       1.0  0.7255768113119956  0.9877745450922433  0.8163916248336207  1.0000
  H   H41       1.0  0.3269601503835986  0.4683472185984314  0.342607779237099  1.0000
  H   H42       1.0  0.2838239167502294  0.5131651161976193  0.4089507585580209  1.0000
  H   H43       1.0  0.3341526364913534  0.4665393578676388  0.4316575905258162  1.0000
  H   H44       1.0  0.2644899515974259  0.5002205445782408  0.3225008005459316  1.0000
  H   H45       1.0  0.22602961291728013  0.9202965524833714  0.5882593297515939  1.0000
  H   H46       1.0  0.2608696003432698  0.973531722111545  0.6531331398339263  1.0000
  H   H47       1.0  0.2124144587283895  0.9260943248198076  0.6764341006578505  1.0000
  H   H48       1.0  0.2622140908938206  0.9784433929348493  0.5638904662872122  1.0000
  H   H49       1.0  0.7777295502286988  0.5808037313412627  0.08949486031875152  1.0000
  H   H50       1.0  0.7357163541405286  0.532735501272505  0.1540469710306738  1.0000
  H   H51       1.0  0.7831489763006018  0.5811775013413154  0.1787036268340927  1.0000
  H   H52       1.0  0.7439896965749853  0.5211953501705225  0.0657523757301703  1.0000
  H   H53       1.0  0.0788908527300691  0.8966215882721329  0.7032566294650949  1.0000
  H   H54       1.0  0.0385265321071628  0.8319432324059476  0.7527516056220946  1.0000
  H   H55       1.0  0.0874539911316319  0.807320475235244  0.7043773886210616  1.0000
  H   H56       1.0  0.017682808613400904  0.9176471368619589  0.7358421300607036  1.0000
  H   H57       1.0  0.4753834617681534  0.3515760221415293  0.3210038449291801  1.0000
  H   H58       1.0  0.5085313948134385  0.41532923974251196  0.26572387864973734  1.0000
  H   H59       1.0  0.459554447861656  0.4395283978765435  0.312245773470309  1.0000
  H   H60       1.0  0.5135446198709062  0.32567352179486864  0.2652609429398396  1.0000
  H   H61       1.0  0.9183330883185761  0.6034640503825699  0.2059968757209134  1.0000
  H   H62       1.0  0.9642289306470246  0.6671785135001259  0.2522674035030121  1.0000
  H   H63       1.0  0.917177156446492  0.6931338414969233  0.20294478813218572  1.0000
  H   H64       1.0  0.9764200972540065  0.5788445841619136  0.24158938965130972  1.0000
  H   H65       1.0  0.5284552859900272  0.149543588416897  0.8201103393991149  1.0000
  H   H66       1.0  0.4887554354545287  0.08596701382838032  0.7685312313470476  1.0000
  H   H67       1.0  0.5372272467047807  0.060315361575646896  0.8156473805387634  1.0000
  H   H68       1.0  0.4924054065251013  0.17553173044834838  0.76330224790798  1.0000
  H   H69       1.0  0.897383054817034  0.7203989127868978  0.0692934253366531  1.0000
  H   H70       1.0  0.8321740645445673  0.7611304944614119  0.0197736116173886  1.0000
  H   H71       1.0  0.8062671666496755  0.713479072952417  0.0668257233704921  1.0000
  H   H72       1.0  0.9231583382120121  0.756063377131852  0.012428039705312702  1.0000
  H   H73       1.0  0.3542877646447167  0.3298177135275751  0.4533810561277249  1.0000
  H   H74       1.0  0.4188437071180288  0.2859486728632206  0.5011213340230898  1.0000
  H   H75       1.0  0.4456123121564985  0.3334276697772864  0.4532476455158232  1.0000
  H   H76       1.0  0.33051036120850336  0.26933354514365965  0.4848763442154009  1.0000
  H   H77       1.0  0.6479602623700843  0.17280470283480298  0.9527469831689077  1.0000
  H   H78       1.0  0.5834816541632363  0.21451022592982133  0.0024137133310873  1.0000
  H   H79       1.0  0.5568183761187983  0.16657389144456397  0.9547602981357954  1.0000
  H   H80       1.0  0.6709050297843006  0.23338390867347408  0.9843403512458124  1.0000
  H   H81       1.0  0.1043656501086971  0.7811284552518387  0.5695369780414979  1.0000
  H   H82       1.0  0.16918450899557058  0.7408977221934734  0.519179191095482  1.0000
  H   H83       1.0  0.19528422364275136  0.7896948593181818  0.5658342062175379  1.0000
  H   H84       1.0  0.07801871567463789  0.7452049221643121  0.5133241083549293  1.0000
  C   C1        1.0  0.37492724988566556  0.4324833737683349  0.3961744862421669  1.0000
  C   C2        1.0  0.380270315509307  0.40239559208566794  0.4232959992401462  1.0000
  C   C3        1.0  0.4106599148109921  0.3746882985174551  0.4189770593362426  1.0000
  C   C4        1.0  0.436712012338468  0.3781354722629827  0.3874378980432311  1.0000
  C   C5        1.0  0.4319302972468861  0.40763437164820704  0.3595157767553516  1.0000
  C   C6        1.0  0.4011293153026543  0.43483259848956385  0.3645776239365333  1.0000
  C   C7        1.0  0.6278688168449945  0.0696686866448744  0.8945550113411045  1.0000
  C   C8        1.0  0.5999933401889875  0.06645216634854731  0.864293187343364  1.0000
  C   C9        1.0  0.56855597224461  0.0930712110158822  0.8604500048820469  1.0000
  C   C10       1.0  0.5643953644840565  0.12260174402229039  0.8885206907939109  1.0000
  C   C11       1.0  0.5917783514377036  0.12669033416795372  0.9190053309159367  1.0000
  C   C12       1.0  0.6231730205769282  0.09987884933678971  0.9217806024367052  1.0000
  C   C13       1.0  0.8158737628336611  0.6242844587201972  0.14517368993190874  1.0000
  C   C14       1.0  0.8126434557145926  0.6514674091842776  0.11485945596562173  1.0000
  C   C15       1.0  0.8400628222366963  0.6820496956363229  0.11075435759437371  1.0000
  C   C16       1.0  0.8705352252936507  0.6858375809732635  0.13844805018298703  1.0000
  C   C17       1.0  0.8745716570556041  0.6591598046218436  0.1690736096813481  1.0000
  C   C18       1.0  0.8467248776002662  0.6288229875744378  0.1722925070790069  1.0000
  C   C19       1.0  0.18363269314043856  0.8798297567109047  0.6436865761846563  1.0000
  C   C20       1.0  0.15325704564028092  0.8744482074991922  0.6711023523264643  1.0000
  C   C21       1.0  0.12685009779465867  0.8428251515329563  0.6686326498475168  1.0000
  C   C22       1.0  0.1315704049256752  0.815957820832594  0.6382189866105819  1.0000
  C   C23       1.0  0.16136493899583826  0.820707146765102  0.6100628721378882  1.0000
  C   C24       1.0  0.1876100877187881  0.8523264983506635  0.6136297654414733  1.0000
  C   C25       1.0  0.7991948338609873  0.9497879608493279  0.8260272651897225  1.0000
  C   C26       1.0  0.767261408873999  0.9552090639085763  0.8517113469935681  1.0000
  C   C27       1.0  0.7768422644986402  0.9310833346433044  0.8834130562739662  1.0000
  C   C28       1.0  0.9793860278708804  0.8585838401044512  0.8086707594685196  1.0000
  C   C29       1.0  0.9833881273560081  0.8851072476839262  0.7777767744501534  1.0000
  C   C30       1.0  0.9484442238414345  0.9074575905693151  0.7797029898413756  1.0000
  C   C31       1.0  0.8576872363326515  0.8171892381485647  0.9630902759826867  1.0000
  C   C32       1.0  0.8893846232438777  0.792347514881058  0.9730647409264607  1.0000
  C   C33       1.0  0.9173384970944624  0.7988333332357697  0.9434763579071088  1.0000
  C   C34       1.0  0.1928560526732355  0.5395968269880173  0.3346073879794673  1.0000
  C   C35       1.0  0.22749661369335433  0.5380414216389868  0.35737205953557805  1.0000
  C   C36       1.0  0.22078192090685178  0.5661722930066233  0.3864505908164091  1.0000
  C   C37       1.0  0.019206225513009698  0.6396548209350713  0.3108764993411981  1.0000
  C   C38       1.0  0.0130243541348349  0.6110080575916684  0.2821684536152134  1.0000
  C   C39       1.0  0.04524671413260959  0.5854304322134354  0.28712983837120026  1.0000
  C   C40       1.0  0.14259377768411946  0.6834279901390587  0.4638385646269114  1.0000
  C   C41       1.0  0.11113918841730448  0.708581595482194  0.47373503892820423  1.0000
  C   C42       1.0  0.08267889176891431  0.7015513210388562  0.4446325494310842  1.0000
  C   C43       1.0  0.3192211229882814  0.030350649614945303  0.6305160457554919  1.0000
  C   C44       1.0  0.2947376127084879  0.020270276856223297  0.5988810341746174  1.0000
  C   C45       1.0  0.2992441327462103  0.05174685455163801  0.5731644155316289  1.0000
  C   C46       1.0  0.45009086678096816  0.1702416654877936  0.6931138013402319  1.0000
  C   C47       1.0  0.4567928588333388  0.14251787464070279  0.7224529512896967  1.0000
  C   C48       1.0  0.4323576336378565  0.11101320711954799  0.7115742628576812  1.0000
  C   C49       1.0  0.3407958600185879  0.19954067447809357  0.5273586532008282  1.0000
  C   C50       1.0  0.36331199923149876  0.23401212018310957  0.5260331292530509  1.0000
  C   C51       1.0  0.38999024021541817  0.23006605037249978  0.5572684365928211  1.0000
  C   C52       1.0  0.6816665404176873  0.47261994748463815  0.13024307942495036  1.0000
  C   C53       1.0  0.7077449509953198  0.4817913689598327  0.09967733560128522  1.0000
  C   C54       1.0  0.7041713701227081  0.44975830440741754  0.0743665146200598  1.0000
  C   C55       1.0  0.553588977206914  0.3315424569842945  0.1938878175838852  1.0000
  C   C56       1.0  0.5457861507756547  0.3595836336462597  0.2227155647129209  1.0000
  C   C57       1.0  0.5685796592204824  0.39194844283191094  0.2111058055660138  1.0000
  C   C58       1.0  0.6609250677402655  0.3024740019809613  0.0275641992918594  1.0000
  C   C59       1.0  0.6384846965418803  0.2679309117972224  0.026337054038165802  1.0000
  C   C60       1.0  0.6121284735228514  0.2718626343430373  0.05777068580754731  1.0000
  C   C61       1.0  0.6610645654177462  0.04272336502150151  0.8987355739055192  1.0000
  C   C62       1.0  0.6783931035963633  0.021947885228122705  0.8697978560154098  1.0000
  C   C63       1.0  0.7116865616683936  0.9964849058268609  0.8755233985467542  1.0000
  C   C64       1.0  0.7333406701965047  0.9804518015758177  0.8463777375837722  1.0000
  C   C65       1.0  0.3425035012963349  0.4602116607415425  0.4015918268653138  1.0000
  C   C66       1.0  0.32073084245202205  0.47651344504700427  0.372736144557969  1.0000
  C   C67       1.0  0.28793051230362476  0.502447955124076  0.3792639233991509  1.0000
  C   C68       1.0  0.2612398826819771  0.5127424083422055  0.3515671913624062  1.0000
  C   C69       1.0  0.20999288089499402  0.9133644728275385  0.6473542943322671  1.0000
  C   C70       1.0  0.2298896994118635  0.9310012730413534  0.617995873301915  1.0000
  C   C71       1.0  0.2548580491451276  0.964521892440551  0.6231842667380718  1.0000
  C   C72       1.0  0.26994817557464046  0.9862524249222703  0.5937868134618967  1.0000
  C   C73       1.0  0.7882933562600343  0.5917075356778766  0.1491394709397937  1.0000
  C   C74       1.0  0.7707652188185107  0.5723003107098562  0.1193473764918878  1.0000
  C   C75       1.0  0.7449687013849058  0.5393747491804958  0.12432636375772431  1.0000
  C   C76       1.0  0.7330169235400775  0.5154881901637438  0.0950956505875951  1.0000
  C   C77       1.0  0.09502771769835051  0.837439919863698  0.6969463141752286  1.0000
  C   C78       1.0  0.07331288076424869  0.8666688440191876  0.712784072779705  1.0000
  C   C79       1.0  0.0417179036773518  0.8610918271064917  0.7402194387895946  1.0000
  C   C80       1.0  0.015376749252467901  0.8893014051921571  0.7502162874365936  1.0000
  C   C81       1.0  0.4579064902514673  0.41076514711397044  0.3258661557363567  1.0000
  C   C82       1.0  0.47847238371279827  0.38107610273394243  0.3092798947426729  1.0000
  C   C83       1.0  0.5035045904288679  0.38552557603786397  0.2759348891835316  1.0000
  C   C84       1.0  0.5201774937098095  0.3554968336024658  0.2560552888506892  1.0000
  C   C85       1.0  0.9071018904880005  0.6633808196217499  0.1968790697239911  1.0000
  C   C86       1.0  0.9264376925739127  0.6333218046897359  0.2140833974441634  1.0000
  C   C87       1.0  0.9582451661350644  0.6377011611512557  0.24153628494129012  1.0000
  C   C88       1.0  0.9813842638093887  0.6078245084859405  0.25402297717324274  1.0000
  C   C89       1.0  0.5412623536063705  0.0896179274542774  0.8276699969107854  1.0000
  C   C90       1.0  0.5226261651180124  0.11982184501638225  0.8099368133021869  1.0000
  C   C91       1.0  0.4967318065367722  0.11573095974890178  0.7770491972551454  1.0000
  C   C92       1.0  0.48284782897272277  0.14601291786242138  0.7556007944430692  1.0000
  C   C93       1.0  0.836319991091564  0.7089295477794408  0.0781418463633869  1.0000
  C   C94       1.0  0.8670005847953418  0.7267796913120962  0.0598679922072236  1.0000
  C   C95       1.0  0.8625187283210991  0.7526535302499936  0.027458574269083207  1.0000
  C   C96       1.0  0.8931032445657223  0.7661145971399463  0.0056039236614396  1.0000
  C   C97       1.0  0.41523729834754863  0.3426174782911104  0.4465244727762894  1.0000
  C   C98       1.0  0.384615988848708  0.32253530210599024  0.4623309124332167  1.0000
  C   C99       1.0  0.3891604366808891  0.29067797539838847  0.48900284211125483  1.0000
  C   C100      1.0  0.3595114038080425  0.265819707822942  0.49884024645716357  1.0000
  C   C101      1.0  0.5872412351579187  0.1583371927778288  0.9471235709200769  1.0000
  C   C102      1.0  0.6176944855956422  0.1791266118533485  0.9624845822951897  1.0000
  C   C103      1.0  0.6129591304932305  0.2106354985689407  0.9896084573334678  1.0000
  C   C104      1.0  0.642220506510114  0.2361941762894659  0.99898057786951  1.0000
  C   C105      1.0  0.1653302038950599  0.7937115210845532  0.5774840090429978  1.0000
  C   C106      1.0  0.13468245740077828  0.7752101237742864  0.5596773153608723  1.0000
  C   C107      1.0  0.13890499891904542  0.7491645119293012  0.5272906223649869  1.0000
  C   C108      1.0  0.10798486771194153  0.7352664308690747  0.5060282859201594  1.0000
  N   N1        1.0  0.8117183468075169  0.9129880197764066  0.8769614049785022  1.0000
  N   N2        1.0  0.8258060332691245  0.9248974555522053  0.8414694314696405  1.0000
  N   N3        1.0  0.9254075929245716  0.8949414316099363  0.8090798756478819  1.0000
  N   N4        1.0  0.9448163889238896  0.8648076475172742  0.8272850218451426  1.0000
  N   N5        1.0  0.9032174457351232  0.825079004795967  0.9178694366569005  1.0000
  N   N6        1.0  0.8662573353353623  0.8366811186047798  0.9302573737597657  1.0000
  N   N7        1.0  0.18499027453946582  0.582906855666934  0.38123952276200174  1.0000
  N   N8        1.0  0.1674997240768619  0.5661746900794141  0.3492087067051841  1.0000
  N   N9        1.0  0.06883284116667451  0.5981005559407251  0.3161394945043057  1.0000
  N   N10       1.0  0.0524519261042968  0.6316098290661786  0.3310920351634081  1.0000
  N   N11       1.0  0.09629745403133678  0.6746944095011003  0.4193571436591199  1.0000
  N   N12       1.0  0.1334215801609631  0.6632405962880767  0.4314991379108975  1.0000
  N   N13       1.0  0.3239766527046655  0.07854050334223221  0.5885328121118647  1.0000
  N   N14       1.0  0.3366584889988218  0.06505280907852298  0.6239961305300525  1.0000
  N   N15       1.0  0.4128800365329397  0.11946105536838303  0.6785040103714834  1.0000
  N   N16       1.0  0.4240850666451905  0.15615314410634804  0.6668152136244458  1.0000
  N   N17       1.0  0.3837141618722129  0.19595240259550908  0.5755545240448612  1.0000
  N   N18       1.0  0.35339536408562117  0.17680144901746792  0.5567651226517825  1.0000
  N   N19       1.0  0.6784145047276695  0.4235457249051109  0.08896563205087199  1.0000
  N   N20       1.0  0.6642227292595565  0.4379379631289595  0.1235364976165201  1.0000
  N   N21       1.0  0.5881835294103652  0.38364637835887544  0.1780714512183437  1.0000
  N   N22       1.0  0.5786170602025393  0.34623599134162936  0.16716395020295494  1.0000
  N   N23       1.0  0.6185263739636042  0.30601831283122044  0.07605661452213042  1.0000
  N   N24       1.0  0.6485945569141621  0.3252249958260053  0.05709815327453071  1.0000
