data_image0
_chemical_formula_structural       Cu4H28C28I4N4
_chemical_formula_sum              "Cu4 H28 C28 I4 N4"
_cell_length_a       4.11631765936356
_cell_length_b       13.832938099599717
_cell_length_c       13.869897149435475
_cell_angle_alpha    89.99948576762705
_cell_angle_beta     99.55564947964606
_cell_angle_gamma    89.99915999069215

_space_group_name_H-M_alt    "P 1"
_space_group_IT_number       1

loop_
  _space_group_symop_operation_xyz
  'x, y, z'

loop_
  _atom_site_type_symbol
  _atom_site_label
  _atom_site_symmetry_multiplicity
  _atom_site_fract_x
  _atom_site_fract_y
  _atom_site_fract_z
  _atom_site_occupancy
  Cu  Cu1       1.0  0.3490876705427439  0.9203994097190031  0.0233570034192425  1.0000
  Cu  Cu2       1.0  0.6509082033620005  0.42039947962578583  0.47665249827188205  1.0000
  Cu  Cu3       1.0  0.6509088108766363  0.07960116086462682  0.9766470096784444  1.0000
  Cu  Cu4       1.0  0.3490858538914878  0.5796003680480266  0.5233521277185744  1.0000
  H   H1        1.0  0.14568106516273358  0.7746827422261048  0.11268738601147987  1.0000
  H   H2        1.0  0.8543279879279597  0.2746878206303763  0.3873254493643046  1.0000
  H   H3        1.0  0.8543250349372187  0.2253171054425636  0.8873127298982053  1.0000
  H   H4        1.0  0.14566329371903208  0.7253134729011775  0.6126732841369884  1.0000
  H   H5        1.0  0.12507467188848412  0.5508619715170865  0.104619281484986  1.0000
  H   H6        1.0  0.8749511613522716  0.05086760895880361  0.3953833253872858  1.0000
  H   H7        1.0  0.8749187997928943  0.44913570747156945  0.8953745022353841  1.0000
  H   H8        1.0  0.12506248456101335  0.9491336845030672  0.6046200115800956  1.0000
  H   H9        1.0  0.004204128316395399  0.630928661106111  0.19908075837853537  1.0000
  H   H10       1.0  0.9958298024243462  0.1309397115485069  0.3009265412142597  1.0000
  H   H11       1.0  0.9958018547583618  0.36906757201175105  0.8009171890953437  1.0000
  H   H12       1.0  0.004176453824115402  0.8690608590186528  0.6990764659666198  1.0000
  H   H13       1.0  0.2750365462170167  0.550207764780744  0.9645111335517953  1.0000
  H   H14       1.0  0.7249350182197104  0.050203650758959405  0.5354850726114505  1.0000
  H   H15       1.0  0.7249641978606576  0.449795697498466  0.035480811469604086  1.0000
  H   H16       1.0  0.2750609166494797  0.9497954740483009  0.46450882103085417  1.0000
  H   H17       1.0  0.5060218918539832  0.55989645558153  0.8089734835382456  1.0000
  H   H18       1.0  0.49393176924798615  0.059894790823634  0.6910196737234741  1.0000
  H   H19       1.0  0.4939740037905125  0.4401091754391544  0.19101968724798007  1.0000
  H   H20       1.0  0.506074213928166  0.9400978277331261  0.3089782737710962  1.0000
  H   H21       1.0  0.6706869470356622  0.7219118333217692  0.7525451884662502  1.0000
  H   H22       1.0  0.3293023925244044  0.2219089118302476  0.7474560437451103  1.0000
  H   H23       1.0  0.3293092218433672  0.2780959664115342  0.24745304203939605  1.0000
  H   H24       1.0  0.6707136387761992  0.7780837066860046  0.2525459575644717  1.0000
  H   H25       1.0  0.5833350329528528  0.8679383846690242  0.8518848264510337  1.0000
  H   H26       1.0  0.4166763758408578  0.36793889754076764  0.6481290638793382  1.0000
  H   H27       1.0  0.4166639897184511  0.1320643546385654  0.14812074220212418  1.0000
  H   H28       1.0  0.5833301538043685  0.6320580584412454  0.3518790030540657  1.0000
  C   C1        1.0  0.3072839958196597  0.7039391948547262  0.9907113665519846  1.0000
  C   C2        1.0  0.692719058723526  0.20393112549506037  0.5092978492852822  1.0000
  C   C3        1.0  0.6927244502198491  0.2960664361161704  0.00928669079831219  1.0000
  C   C4        1.0  0.30728215396188563  0.7960687221818432  0.4907027695828105  1.0000
  C   C5        1.0  0.17742645270906376  0.7028347366622684  0.08248164950697398  1.0000
  C   C6        1.0  0.8225859282982386  0.2028411183098484  0.417518997663386  1.0000
  C   C7        1.0  0.8225747210355437  0.2971614964569652  0.9175182465629773  1.0000
  C   C8        1.0  0.17740793370371216  0.7971601752055761  0.5824820142246239  1.0000
  C   C9        1.0  0.0976917816200071  0.6244601587188328  0.13038245934401968  1.0000
  C   C10       1.0  0.902308378196402  0.12447097688374949  0.3696298806502866  1.0000
  C   C11       1.0  0.9023020023583826  0.3755389660667915  0.8696171069187384  1.0000
  C   C12       1.0  0.09769768275996428  0.8755324853494528  0.630369512419868  1.0000
  C   C13       1.0  0.3472935455889968  0.6195950170207496  0.9375758023901142  1.0000
  C   C14       1.0  0.6526817107748074  0.11960180953923327  0.56242355322604  1.0000
  C   C15       1.0  0.6527001602847237  0.38040483068396463  0.06242231823082989  1.0000
  C   C16       1.0  0.34731207320358237  0.8803973152463908  0.4375760130367183  1.0000
  C   C17       1.0  0.47615796656073434  0.6246070878937717  0.8514436420166474  1.0000
  C   C18       1.0  0.5238191990089972  0.12459773546869708  0.6485507065103703  1.0000
  C   C19       1.0  0.5238402360419485  0.37540215769590896  0.14854674740377047  1.0000
  C   C20       1.0  0.4761842818763071  0.8753956060095545  0.35144640823101264  1.0000
  C   C21       1.0  0.5663052717660335  0.714882150818262  0.8194010191132362  1.0000
  C   C22       1.0  0.433677150294045  0.214888795333799  0.6806014093686555  1.0000
  C   C23       1.0  0.43368600990123707  0.2851184198010727  0.18059771439219924  1.0000
  C   C24       1.0  0.5663266819101908  0.7851067148502081  0.3194022107298125  1.0000
  C   C25       1.0  0.5178822429168974  0.7958886533063778  0.8742233957748053  1.0000
  C   C26       1.0  0.48212546704647247  0.29588186103981673  0.6257844842876992  1.0000
  C   C27       1.0  0.4821237397725754  0.2041213151436807  0.1257745516204452  1.0000
  C   C28       1.0  0.5178807893844919  0.7041122033173506  0.3742185229304269  1.0000
  I   I1        1.0  0.9033998046892293  0.9659737029429037  0.1332288142715257  1.0000
  I   I2        1.0  0.09658854704003518  0.46597140503565976  0.36677922300348337  1.0000
  I   I3        1.0  0.09659663768795208  0.0340268676441653  0.866774476007336  1.0000
  I   I4        1.0  0.9034007007819087  0.5340320572006264  0.633227351562347  1.0000
  N   N1        1.0  0.38927886335788037  0.7919472268319508  0.9577734893010826  1.0000
  N   N2        1.0  0.6107266822065897  0.2919536650779476  0.542235771515962  1.0000
  N   N3        1.0  0.6107176572050863  0.20804972918714523  0.0422312466361348  1.0000
  N   N4        1.0  0.3892722624614394  0.7080461825876226  0.45776835151608  1.0000
