data_image0
_chemical_formula_structural       CuH28C28N10O6
_chemical_formula_sum              "Cu1 H28 C28 N10 O6"
_cell_length_a       7.999842308441871
_cell_length_b       9.370486639727005
_cell_length_c       9.965021722452805
_cell_angle_alpha    90.4247808474851
_cell_angle_beta     103.94686149891743
_cell_angle_gamma    101.92845284997254

_space_group_name_H-M_alt    "P 1"
_space_group_IT_number       1

loop_
  _space_group_symop_operation_xyz
  'x, y, z'

loop_
  _atom_site_type_symbol
  _atom_site_label
  _atom_site_symmetry_multiplicity
  _atom_site_fract_x
  _atom_site_fract_y
  _atom_site_fract_z
  _atom_site_occupancy
  Cu  Cu1       1.0  1.314001771401798e-06  2.5276818901642373e-08  0.9999972490771114  1.0000
  H   H1        1.0  0.8116809735445115  0.25391741495563025  0.883988196297011  1.0000
  H   H2        1.0  0.18832307356512248  0.7460795959209818  0.11600705668995911  1.0000
  H   H3        1.0  0.31116205633757227  0.5205622326529704  0.8906130309022444  1.0000
  H   H4        1.0  0.6888441699937002  0.4794434576229705  0.10939078900473471  1.0000
  H   H5        1.0  0.35552418714625833  0.25195118435402003  0.9982510500353996  1.0000
  H   H6        1.0  0.6444842957507361  0.7480480256105367  0.0017441025476969472  1.0000
  H   H7        1.0  0.016123640714376105  0.634729058778518  0.8280158284222949  1.0000
  H   H8        1.0  0.9838755163336897  0.3652690213350239  0.1719804796241107  1.0000
  H   H9        1.0  0.8158396904873298  0.5009848502666827  0.781870752087123  1.0000
  H   H10       1.0  0.18416334053491568  0.4990132435542023  0.2181253173703368  1.0000
  H   H11       1.0  0.6053687446770296  0.8455741333619783  0.8063429332711819  1.0000
  H   H12       1.0  0.3946306592620701  0.1544250083803149  0.1936574509576232  1.0000
  H   H13       1.0  0.8105447530362043  0.9697203276121372  0.461637057099118  1.0000
  H   H14       1.0  0.18944749027942007  0.0302809953922747  0.5383609371752556  1.0000
  H   H15       1.0  0.07763729753798287  0.0559435931578633  0.7080077010479827  1.0000
  H   H16       1.0  0.9223591176661898  0.9440588517749688  0.29198812018505294  1.0000
  H   H17       1.0  0.48486868568426905  0.8575494011500311  0.4161596614464003  1.0000
  H   H18       1.0  0.5151252578761856  0.1424486166831898  0.5838426414292286  1.0000
  H   H19       1.0  0.3904125437123014  0.8291174901607051  0.5619462204664742  1.0000
  H   H20       1.0  0.6095856622679249  0.170887087775661  0.43805700575339307  1.0000
  H   H21       1.0  0.40182245743170597  0.6052362671192667  0.6899280985385019  1.0000
  H   H22       1.0  0.5981640275908902  0.3947628237549878  0.3100737488350873  1.0000
  H   H23       1.0  0.5891288160714082  0.6592354373524855  0.319164450451332  1.0000
  H   H24       1.0  0.4108703464689539  0.3407680032818732  0.6808449717052909  1.0000
  H   H25       1.0  0.036767063718542665  0.7444275411752557  0.6153370248733694  1.0000
  H   H26       1.0  0.9632419872930029  0.2555639850914914  0.3846631617133057  1.0000
  H   H27       1.0  0.9294769958437641  0.2749627986952348  0.6230219415693554  1.0000
  H   H28       1.0  0.07053099656093312  0.7250297716888312  0.3769840703501401  1.0000
  C   C1        1.0  0.9535837703818968  0.2884734513851939  0.9000577183312117  1.0000
  C   C2        1.0  0.04642083003703586  0.7115257371066405  0.09993867461329839  1.0000
  C   C3        1.0  0.21742249815242332  0.42441387530063684  0.905716390623283  1.0000
  C   C4        1.0  0.7825800785956218  0.5755874868451228  0.09428063348974548  1.0000
  C   C5        1.0  0.23634511436866026  0.29281865306069216  0.9604869709497309  1.0000
  C   C6        1.0  0.7636620630304592  0.7071805393924394  0.039509930783786715  1.0000
  C   C7        1.0  0.9561478693294845  0.5239660732002775  0.7813469711814208  1.0000
  C   C8        1.0  0.04385510216551578  0.476031966262866  0.2186561106832983  1.0000
  C   C9        1.0  0.9792869852056539  0.5112766679977694  0.6357583199392849  1.0000
  C   C10       1.0  0.02071788761598731  0.4887236054189827  0.364239143870229  1.0000
  C   C11       1.0  0.019529095323960556  0.6368215994882148  0.5648723869390011  1.0000
  C   C12       1.0  0.9804840447397608  0.3631808478968637  0.4351297467400173  1.0000
  C   C13       1.0  0.9605962823161318  0.374595733835946  0.5696710916899832  1.0000
  C   C14       1.0  0.039412893242200694  0.6254012616670863  0.4303281841924047  1.0000
  C   C15       1.0  0.7022100911677498  0.890168700392088  0.749443861061529  1.0000
  C   C16       1.0  0.29778902336086327  0.10982934089450685  0.2505574558472006  1.0000
  C   C17       1.0  0.8126974080537364  0.9564729173552423  0.5698493818415074  1.0000
  C   C18       1.0  0.18729400954987338  0.043525143109029295  0.4301464016103226  1.0000
  C   C19       1.0  0.9407232312725141  0.00010500466105870113  0.6906051327170388  1.0000
  C   C20       1.0  0.059272869009497194  0.9998963165199085  0.309394626513317  1.0000
  C   C21       1.0  0.49681302444476916  0.8094853099210937  0.5171948430787339  1.0000
  C   C22       1.0  0.5031770451415126  0.19051269420479847  0.4828076983858409  1.0000
  C   C23       1.0  0.4944272836468429  0.6484516210324929  0.5054514016080631  1.0000
  C   C24       1.0  0.5055614974493423  0.35154638111275455  0.4945508854620044  1.0000
  C   C25       1.0  0.44594922611931753  0.5585029567418474  0.6074288110875088  1.0000
  C   C26       1.0  0.5540336658357033  0.4414972131153904  0.3925733439675696  1.0000
  C   C27       1.0  0.5485866128689167  0.589123593092701  0.3979125512435076  1.0000
  C   C28       1.0  0.4514081308918633  0.41087766398449327  0.6020949677720608  1.0000
  N   N1        1.0  0.0707731837353123  0.20981973606538418  0.9567865831800475  1.0000
  N   N2        1.0  0.9292295918920104  0.790177288361356  0.04320641186748727  1.0000
  N   N3        1.0  0.03814574901040401  0.41980625383551734  0.8681641843274903  1.0000
  N   N4        1.0  0.9618578013055695  0.5801939865390295  0.13183703217737266  1.0000
  N   N5        1.0  0.8699949419630428  0.9571648483735656  0.8012004729030976  1.0000
  N   N6        1.0  0.13000290108325877  0.04283320646315761  0.1987985860661965  1.0000
  N   N7        1.0  0.663294924796304  0.8882452001011887  0.609288048549999  1.0000
  N   N8        1.0  0.33669859000163166  0.11175610935309518  0.39071220366381  1.0000
  N   N9        1.0  0.670365339955545  0.10042984859290979  0.13634858704079278  1.0000
  N   N10       1.0  0.32963347886122557  0.899576961316413  0.8636487667293622  1.0000
  O   O1        1.0  0.7154023438549046  0.04893919591323479  0.03584152916150881  1.0000
  O   O2        1.0  0.2846044698012378  0.951068703039489  0.9641594236131538  1.0000
  O   O3        1.0  0.6332907193207332  0.2267265835311179  0.1307250382523009  1.0000
  O   O4        1.0  0.36671196496631336  0.7732802323201396  0.8692730787013758  1.0000
  O   O5        1.0  0.6615061102674956  0.027866072734077797  0.2423060399251398  1.0000
  O   O6        1.0  0.3384854318829013  0.9721374569664717  0.7576888328224031  1.0000
