data_image0
_chemical_formula_structural       Al2C48Br24O12
_chemical_formula_sum              "Al2 C48 Br24 O12"
_cell_length_a       4.103143991336351
_cell_length_b       29.166545931804524
_cell_length_c       29.1666370671056
_cell_angle_alpha    119.99694869524076
_cell_angle_beta     90.00048624568068
_cell_angle_gamma    89.99867641509412

_space_group_name_H-M_alt    "P 1"
_space_group_IT_number       1

loop_
  _space_group_symop_operation_xyz
  'x, y, z'

loop_
  _atom_site_type_symbol
  _atom_site_label
  _atom_site_symmetry_multiplicity
  _atom_site_fract_x
  _atom_site_fract_y
  _atom_site_fract_z
  _atom_site_occupancy
  Al  Al1       1.0  0.00019556335983849998  0.5000045123067736  0.4999908018469839  1.0000
  Al  Al2       1.0  0.9990900059264403  0.1666637155820752  0.833336888948459  1.0000
  C   C1        1.0  0.5002056769284308  0.4594325784302953  0.41883287688542487  1.0000
  C   C2        1.0  0.5002235354541966  0.45941468289839077  0.5405641780284896  1.0000
  C   C3        1.0  0.5001657676836404  0.5811630068054114  0.5405800754207064  1.0000
  C   C4        1.0  0.49909615287693027  0.20727691128253417  0.792786087258044  1.0000
  C   C5        1.0  0.49910761559121386  0.08550283964368811  0.7927321690873087  1.0000
  C   C6        1.0  0.499111577421665  0.2072088565077763  0.9144969220604368  1.0000
  C   C7        1.0  0.4992905398920229  0.23729727055076222  0.7627810001136056  1.0000
  C   C8        1.0  0.6091628073327299  0.21275791272969977  0.7102197862821669  1.0000
  C   C9        1.0  0.6129424831876732  0.24044661773384504  0.6824818767080602  1.0000
  C   C10       1.0  0.4998040047978448  0.29340634145430045  0.7067038199820033  1.0000
  C   C11       1.0  0.38644663844831234  0.31763352990337523  0.7596540054201953  1.0000
  C   C12       1.0  0.3896981596239896  0.2898747653072747  0.7873234506529344  1.0000
  C   C13       1.0  0.4999791049893787  0.3213332761324423  0.6787777450643163  1.0000
  C   C14       1.0  0.5000692873432155  0.3454568697542228  0.6546405883035717  1.0000
  C   C15       1.0  0.5001444646622488  0.3733681298288475  0.6266897328592692  1.0000
  C   C16       1.0  0.3867732551573154  0.3491223412172886  0.5737463105988995  1.0000
  C   C17       1.0  0.39028484197989133  0.37685242456424123  0.54605136245943  1.0000
  C   C18       1.0  0.5002216820450158  0.429419687579319  0.5705768137028286  1.0000
  C   C19       1.0  0.6101369724563027  0.45397088567471394  0.6231462678624098  1.0000
  C   C20       1.0  0.6135664014659881  0.426306020836094  0.6509076334275505  1.0000
  C   C21       1.0  0.499274557222506  0.025476995161263005  0.7627179543290834  1.0000
  C   C22       1.0  0.6092090456151951  0.9974586165073943  0.7872586275897574  1.0000
  C   C23       1.0  0.6129778240471991  0.9420329752626626  0.759576478227828  1.0000
  C   C24       1.0  0.4997385536870667  0.9132937927754554  0.7066201174855139  1.0000
  C   C25       1.0  0.38625207146498747  0.9420183918252006  0.6823974550820678  1.0000
  C   C26       1.0  0.3895559201391023  0.9974445455577196  0.7101490157867404  1.0000
  C   C27       1.0  0.49999054131989595  0.8574502935213175  0.6786982620484848  1.0000
  C   C28       1.0  0.5001860132637075  0.8091844655602072  0.6545632810134235  1.0000
  C   C29       1.0  0.5002698383095066  0.7533279834059599  0.6266482376296736  1.0000
  C   C30       1.0  0.3868473924674802  0.724625001355065  0.6508881871921518  1.0000
  C   C31       1.0  0.39027984171679014  0.6692021670749637  0.6231490627321604  1.0000
  C   C32       1.0  0.5002011110978372  0.6411686864128894  0.5705808560448985  1.0000
  C   C33       1.0  0.6101701499611423  0.669190612322346  0.5460359549381977  1.0000
  C   C34       1.0  0.6136884663973914  0.7246145151143965  0.5737088555813017  1.0000
  C   C35       1.0  0.49931810615135663  0.23721402224653326  0.9745206562644313  1.0000
  C   C36       1.0  0.6092723395855941  0.289771154748422  0.0025356564377361133  1.0000
  C   C37       1.0  0.6131102759096051  0.31750810775913857  0.05795773026860472  1.0000
  C   C38       1.0  0.49992402123157825  0.29329084472634287  0.08669922604916988  1.0000
  C   C39       1.0  0.38649221687644797  0.24034575092873206  0.057984966985607386  1.0000
  C   C40       1.0  0.38970252925717824  0.21267585120474305  0.002560278710291162  1.0000
  C   C41       1.0  0.5000818498662056  0.32121960975053543  0.14254866837378438  1.0000
  C   C42       1.0  0.5002568177177907  0.34536208405167906  0.19081233699503736  1.0000
  C   C43       1.0  0.5003171587040284  0.37331136072611326  0.24666526689492232  1.0000
  C   C44       1.0  0.38689121607417587  0.4262538929255584  0.2753599657258193  1.0000
  C   C45       1.0  0.3903489594449637  0.4539469707448447  0.33078408870200354  1.0000
  C   C46       1.0  0.5002647991736423  0.42941959605605007  0.35882587254564413  1.0000
  C   C47       1.0  0.6102129110708887  0.3768554977821026  0.3308176144981587  1.0000
  C   C48       1.0  0.6137327488392259  0.3490958028527942  0.27539221011528536  1.0000
  Br  Br1       1.0  0.7501274143774098  0.14166053845731597  0.6777036374108576  1.0000
  Br  Br2       1.0  0.24827681559500545  0.3223767906332285  0.8583949387986679  1.0000
  Br  Br3       1.0  0.22841226495288675  0.3875760565898786  0.7916115126779744  1.0000
  Br  Br4       1.0  0.7714531519366686  0.20849088401172378  0.6125679827604529  1.0000
  Br  Br5       1.0  0.2276995738040881  0.2792403243947207  0.5418681942419356  1.0000
  Br  Br6       1.0  0.7725098640530702  0.45821640438502703  0.7207996584292999  1.0000
  Br  Br7       1.0  0.7514827128315601  0.5250413014722995  0.6556386909201423  1.0000
  Br  Br8       1.0  0.24901564539811014  0.3443249870903244  0.4749730037136217  1.0000
  Br  Br9       1.0  0.7502350928317013  0.03603701376935953  0.8583518008187953  1.0000
  Br  Br10      1.0  0.24808120870292782  0.03601051097250256  0.6776418000964952  1.0000
  Br  Br11      1.0  0.22808894770162874  0.9040351211710984  0.6124633628690361  1.0000
  Br  Br12      1.0  0.7716110647709512  0.9040755419184662  0.7915281153502819  1.0000
  Br  Br13      1.0  0.2277927896296106  0.7626189438039148  0.7207718595490462  1.0000
  Br  Br14      1.0  0.7727311344835996  0.762602380364946  0.5418083604688418  1.0000
  Br  Br15      1.0  0.7514798346426373  0.6306196828938224  0.47496161657596747  1.0000
  Br  Br16      1.0  0.24892366987256753  0.6306442101827088  0.65566760425898  1.0000
  Br  Br17      1.0  0.7502678595689644  0.32228315349372844  0.9639495062109517  1.0000
  Br  Br18      1.0  0.24821990704427319  0.14160765743190515  0.9640025645696966  1.0000
  Br  Br19      1.0  0.2284046278942  0.20839795746030632  0.09597857399406712  1.0000
  Br  Br20      1.0  0.7717088712511285  0.38741673366049406  0.0959063256702706  1.0000
  Br  Br21      1.0  0.2277976426212334  0.4581343669419411  0.23735553133118253  1.0000
  Br  Br22      1.0  0.7727588808291512  0.27920794234887575  0.2374221414117486  1.0000
  Br  Br23      1.0  0.7515348073777232  0.3443609045117526  0.36939917708244246  1.0000
  Br  Br24      1.0  0.249023815100152  0.5250237578904801  0.3693294592583101  1.0000
  O   O1        1.0  0.7374978769439408  0.5584586614604843  0.5489475046129042  1.0000
  O   O2        1.0  0.7375122461730185  0.49050638180960954  0.44153680043038424  1.0000
  O   O3        1.0  0.737553534369411  0.4510442312653423  0.5094949745257296  1.0000
  O   O4        1.0  0.2628412949646375  0.5584684224264721  0.5095113845909723  1.0000
  O   O5        1.0  0.26289856223133506  0.4904839514992646  0.5489326493121283  1.0000
  O   O6        1.0  0.26286694792338483  0.4510615142946436  0.441527635087077  1.0000
  O   O7        1.0  0.7364312946680728  0.17615028269808877  0.8917931674012252  1.0000
  O   O8        1.0  0.7364314370264822  0.21563156911883422  0.8238473988418066  1.0000
  O   O9        1.0  0.7364359145357257  0.10820426002970875  0.7843720922033129  1.0000
  O   O10       1.0  0.26169241222444123  0.2155907616630304  0.8918252939647431  1.0000
  O   O11       1.0  0.2617083153865493  0.10817869282365694  0.8237829367051718  1.0000
  O   O12       1.0  0.26169978780757924  0.1762262794241921  0.784408951444597  1.0000
