data_image0
_chemical_formula_structural       Zn8H24C48O50
_chemical_formula_sum              "Zn8 H24 C48 O50"
_cell_length_a       18.49742818574123
_cell_length_b       18.49736999527377
_cell_length_c       18.49737012102223
_cell_angle_alpha    89.99999214081147
_cell_angle_beta     120.00001552686565
_cell_angle_gamma    120.00003924024637

_space_group_name_H-M_alt    "P 1"
_space_group_IT_number       1

loop_
  _space_group_symop_operation_xyz
  'x, y, z'

loop_
  _atom_site_type_symbol
  _atom_site_label
  _atom_site_symmetry_multiplicity
  _atom_site_fract_x
  _atom_site_fract_y
  _atom_site_fract_z
  _atom_site_occupancy
  Zn  Zn1       1.0  0.5860351414117418  0.6290455065178192  0.04301847154692957  1.0000
  Zn  Zn2       1.0  0.4139640252502802  0.4569817923861238  0.8709558687035823  1.0000
  Zn  Zn3       1.0  0.41397028365828  0.45698358454003346  0.04301373327054139  1.0000
  Zn  Zn4       1.0  0.5860274407264329  0.4569859128394357  0.043016108111089565  1.0000
  Zn  Zn5       1.0  0.41396450856281325  0.8709554323964923  0.45698353239932726  1.0000
  Zn  Zn6       1.0  0.5860283130217993  0.043016276913547744  0.4569864191360935  1.0000
  Zn  Zn7       1.0  0.5860343860944822  0.04301806706933318  0.6290458063460207  1.0000
  Zn  Zn8       1.0  0.41397071454648676  0.04301416932099754  0.45698544544411845  1.0000
  H   H1        1.0  0.8266414255561115  0.5396586978430805  0.16332003280660243  1.0000
  H   H2        1.0  0.1733578587335742  0.9603405511548004  0.33667962582615  1.0000
  H   H3        1.0  0.17335683529287158  0.7130161316405721  0.3366794607526913  1.0000
  H   H4        1.0  0.8266413833410199  0.7869827138127691  0.16332236813831713  1.0000
  H   H5        1.0  0.1733570371521367  0.33667821921730484  0.9603414371275676  1.0000
  H   H6        1.0  0.8266415570302924  0.16332248519647408  0.539658707489437  1.0000
  H   H7        1.0  0.8266401203467025  0.1633206025822461  0.7869823368810884  1.0000
  H   H8        1.0  0.17335792531508787  0.3366775669567303  0.7130180740907477  1.0000
  H   H9        1.0  0.37633915054330913  0.5396595633411465  0.16332339700293372  1.0000
  H   H10       1.0  0.6236604994322051  0.9603413755731368  0.3366791475611918  1.0000
  H   H11       1.0  0.3763348893735027  0.7130165509867367  0.336677397255947  1.0000
  H   H12       1.0  0.6236621878689587  0.786983801545645  0.16332277970521844  1.0000
  H   H13       1.0  0.6236603778312286  0.33667775726352994  0.9603418494695432  1.0000
  H   H14       1.0  0.3763357193547349  0.16332045014473812  0.5396602903504686  1.0000
  H   H15       1.0  0.6236640461264287  0.1633248115718614  0.7869837684603809  1.0000
  H   H16       1.0  0.3763374107382944  0.33668007976382347  0.7130172668849893  1.0000
  H   H17       1.0  0.3763375470025637  0.5396589550442599  0.7130174942081665  1.0000
  H   H18       1.0  0.6236596034731149  0.9603403298248451  0.7869837940621166  1.0000
  H   H19       1.0  0.3763378199886135  0.7130171292763594  0.5396596093114283  1.0000
  H   H20       1.0  0.6236634102849763  0.7869829248122926  0.9603415563907305  1.0000
  H   H21       1.0  0.6236619867110703  0.33667815471376633  0.1633217853459357  1.0000
  H   H22       1.0  0.3763370513799701  0.1633214860328849  0.336679128383608  1.0000
  H   H23       1.0  0.6236620794070407  0.1633216703981617  0.3366803937025652  1.0000
  H   H24       1.0  0.3763363344334608  0.33667734609714023  0.16332020790093088  1.0000
  C   C1        1.0  0.49999852551220403  0.6400220096972902  0.8599758963656113  1.0000
  C   C2        1.0  0.21995167913653546  0.3599738911586172  0.8599763537369469  1.0000
  C   C3        1.0  0.5000012602088191  0.640024718242799  0.14002626998760792  1.0000
  C   C4        1.0  0.49999937023551416  0.3599742750498579  0.14002294289432626  1.0000
  C   C5        1.0  0.7800474651141797  0.6400236420911726  0.14002419101083044  1.0000
  C   C6        1.0  0.4999987982502603  0.3599770397981459  0.8599779755724413  1.0000
  C   C7        1.0  0.49999776551518954  0.8599755964201635  0.35997542183259407  1.0000
  C   C8        1.0  0.7800471736144273  0.14002574759000191  0.6400233795462144  1.0000
  C   C9        1.0  0.49999755929910356  0.8599768716274739  0.6400226966021094  1.0000
  C   C10       1.0  0.5000005272971534  0.14002704444858682  0.6400241565822142  1.0000
  C   C11       1.0  0.21995119493067955  0.8599749826552384  0.35997839920308644  1.0000
  C   C12       1.0  0.5000005506727091  0.14002492428302565  0.35997679039169117  1.0000
  C   C13       1.0  0.8916851180625116  0.6958422843555636  0.19584311283092853  1.0000
  C   C14       1.0  0.10831434907247214  0.8041578096004683  0.30415934031218217  1.0000
  C   C15       1.0  0.9463265120713018  0.6562922376475058  0.22316326344039777  1.0000
  C   C16       1.0  0.0536704580595852  0.8437053593031932  0.27683685996276336  1.0000
  C   C17       1.0  0.053669786012328455  0.7099635746074996  0.2768353378138854  1.0000
  C   C18       1.0  0.9463286911891372  0.7900342051807172  0.22316553912541073  1.0000
  C   C19       1.0  0.10831358478009183  0.30415546960109907  0.8041582924475462  1.0000
  C   C20       1.0  0.8916831366516504  0.19584336205862485  0.6958414564091696  1.0000
  C   C21       1.0  0.05366908779362233  0.2768337227877283  0.8437065843955837  1.0000
  C   C22       1.0  0.9463280750481358  0.22316488816507968  0.6562933851661725  1.0000
  C   C23       1.0  0.9463276866061462  0.22316425858172556  0.7900365276359907  1.0000
  C   C24       1.0  0.053671166146728004  0.2768353801668511  0.7099642868829078  1.0000
  C   C25       1.0  0.5000005622260631  0.6958417486146118  0.19584308867887054  1.0000
  C   C26       1.0  0.4999975806779133  0.8041590074621823  0.30415816173125165  1.0000
  C   C27       1.0  0.43313010750678416  0.6562940394809473  0.22316454443446074  1.0000
  C   C28       1.0  0.5668692838954288  0.843707965098595  0.27683570837415783  1.0000
  C   C29       1.0  0.43312640205441244  0.7099654540339484  0.2768357691287448  1.0000
  C   C30       1.0  0.5668719236881897  0.7900361470011462  0.2231644914666474  1.0000
  C   C31       1.0  0.499998506298546  0.30415769525854597  0.8041590400595027  1.0000
  C   C32       1.0  0.49999902222427284  0.1958426056107783  0.6958411123442828  1.0000
  C   C33       1.0  0.5668690550199357  0.27683482150411726  0.8437065441189519  1.0000
  C   C34       1.0  0.4331289906418546  0.2231633480348662  0.6562938668528844  1.0000
  C   C35       1.0  0.5668699291726326  0.22316388623431754  0.7900344443912886  1.0000
  C   C36       1.0  0.4331274165087039  0.27683556967677  0.7099650759736135  1.0000
  C   C37       1.0  0.4999996862926325  0.6958417622320071  0.8041583153923995  1.0000
  C   C38       1.0  0.49999827127126634  0.8041589918467621  0.6958417545713401  1.0000
  C   C39       1.0  0.4331280273971105  0.6562917437748937  0.7099662196329674  1.0000
  C   C40       1.0  0.5668700058986077  0.8437070996803798  0.790035510047396  1.0000
  C   C41       1.0  0.433128136752039  0.7099658424503801  0.656293821693957  1.0000
  C   C42       1.0  0.5668707036328442  0.7900344702145361  0.8437072302977312  1.0000
  C   C43       1.0  0.4999970680665128  0.304156029594118  0.19584049379130153  1.0000
  C   C44       1.0  0.49999965586096795  0.1958419591054579  0.30415818161931435  1.0000
  C   C45       1.0  0.566870350804244  0.2768345876672953  0.2231638431508856  1.0000
  C   C46       1.0  0.4331272559432761  0.22316295961844898  0.2768352736698104  1.0000
  C   C47       1.0  0.5668707899718511  0.22316302386655454  0.2768370559708018  1.0000
  C   C48       1.0  0.43312744102526307  0.2768351476705532  0.22316183235807327  1.0000
  O   O1        1.0  0.499998543078064  0.4999978292488976  0.9999984030348158  1.0000
  O   O2        1.0  0.5612125802213725  0.6772713635945066  0.9451523601761309  1.0000
  O   O3        1.0  0.26787640835052434  0.38393609769286746  0.8227305987311978  1.0000
  O   O4        1.0  0.43879150725828003  0.5548521809304887  0.11606224248663469  1.0000
  O   O5        1.0  0.438787242073218  0.5548492900769731  0.8227292155245111  1.0000
  O   O6        1.0  0.561210935581336  0.6772705516898655  0.11606394866336699  1.0000
  O   O7        1.0  0.2678800040120635  0.3839381484039421  0.9451497988871579  1.0000
  O   O8        1.0  0.43878759834698405  0.3839358832442984  0.11605853213185209  1.0000
  O   O9        1.0  0.732121260175383  0.5548519426747661  0.11606099960494017  1.0000
  O   O10       1.0  0.5612074123124913  0.38393838461560387  0.11606141635723329  1.0000
  O   O11       1.0  0.7321239957875746  0.6772709333195194  0.11606246342228829  1.0000
  O   O12       1.0  0.4387911898543067  0.38394217332331243  0.8227321366137162  1.0000
  O   O13       1.0  0.5612081741334479  0.3839396379340415  0.945149927077793  1.0000
  O   O14       1.0  0.49999894169224757  0.9999984793316872  0.5000008899110353  1.0000
  O   O15       1.0  0.438786841641587  0.8227285144704126  0.3839371189047326  1.0000
  O   O16       1.0  0.732121787151108  0.11606376664314408  0.5548514036052481  1.0000
  O   O17       1.0  0.5612052043492427  0.9451486013213427  0.6772691800985058  1.0000
  O   O18       1.0  0.5612104568769852  0.9451504100309622  0.3839403779249436  1.0000
  O   O19       1.0  0.4387922127216372  0.8227315910437981  0.5548543711864014  1.0000
  O   O20       1.0  0.7321231443808925  0.11606225468365496  0.6772700251589042  1.0000
  O   O21       1.0  0.5612137539451608  0.1160675291855781  0.677271182821798  1.0000
  O   O22       1.0  0.26787883121109973  0.9451487755325872  0.38394230628209397  1.0000
  O   O23       1.0  0.4387892786651832  0.11606257355860095  0.5548528905523185  1.0000
  O   O24       1.0  0.2678759127583774  0.8227289399295757  0.383940751043731  1.0000
  O   O25       1.0  0.5612100083986319  0.11606166404149572  0.3839395034530995  1.0000
  O   O26       1.0  0.43878941873324345  0.11606235966550563  0.3839410969364607  1.0000
  O   O27       1.0  0.901153290844178  0.5680051781079882  0.2005760221013445  1.0000
  O   O28       1.0  0.09884316214678546  0.9319945501730731  0.2994233021159046  1.0000
  O   O29       1.0  0.09884202862709658  0.6668471418762394  0.2994203649378376  1.0000
  O   O30       1.0  0.9011566314129951  0.833151482870271  0.20057952218672873  1.0000
  O   O31       1.0  0.09883998707412904  0.29941907144193186  0.931992763688683  1.0000
  O   O32       1.0  0.9011559272636801  0.2005782910082558  0.5680049597673714  1.0000
  O   O33       1.0  0.901158084662697  0.2005793082333795  0.833150757308026  1.0000
  O   O34       1.0  0.0988405852467835  0.2994194855570029  0.6668483439362588  1.0000
  O   O35       1.0  0.36742828662148946  0.5680039778814107  0.20057877744435607  1.0000
  O   O36       1.0  0.6325708148276661  0.9319944261582124  0.2994207897673816  1.0000
  O   O37       1.0  0.3674255472213588  0.6668505673209211  0.29942072557726357  1.0000
  O   O38       1.0  0.6325712714525692  0.8331508508766134  0.20057986271774542  1.0000
  O   O39       1.0  0.6325722680830875  0.299422251521193  0.9319952685958908  1.0000
  O   O40       1.0  0.3674276503313009  0.2005777907718027  0.568006619371971  1.0000
  O   O41       1.0  0.6325712176288292  0.20057849340227568  0.8331487224493016  1.0000
  O   O42       1.0  0.3674264937307043  0.29942265242539173  0.6668493589040166  1.0000
  O   O43       1.0  0.36742770876779224  0.5680065320364706  0.6668512583011648  1.0000
  O   O44       1.0  0.6325721972795647  0.9319941841728365  0.8331514077573485  1.0000
  O   O45       1.0  0.3674264621834452  0.6668503359062327  0.5680053097479812  1.0000
  O   O46       1.0  0.6325725610410159  0.8331508217169626  0.9319952930468529  1.0000
  O   O47       1.0  0.6325699885601778  0.2994199665130495  0.20057772144510014  1.0000
  O   O48       1.0  0.3674261111205723  0.200577397935092  0.2994228043109358  1.0000
  O   O49       1.0  0.6325711594155622  0.200578073266712  0.29942363213527307  1.0000
  O   O50       1.0  0.36742655444352573  0.29942222960072223  0.20057553824342014  1.0000
