data_image0
_chemical_formula_structural       Zn2H40C24S4O20
_chemical_formula_sum              "Zn2 H40 C24 S4 O20"
_cell_length_a       5.261937183111365
_cell_length_b       10.189808947987231
_cell_length_c       16.06017803732581
_cell_angle_alpha    99.3656886567736
_cell_angle_beta     90.00070619605366
_cell_angle_gamma    89.99987991628848

_space_group_name_H-M_alt    "P 1"
_space_group_IT_number       1

loop_
  _space_group_symop_operation_xyz
  'x, y, z'

loop_
  _atom_site_type_symbol
  _atom_site_label
  _atom_site_symmetry_multiplicity
  _atom_site_fract_x
  _atom_site_fract_y
  _atom_site_fract_z
  _atom_site_occupancy
  Zn  Zn1       1.0  0.5000097422893149  0.5000048151308578  0.49999873126760264  1.0000
  Zn  Zn2       1.0  0.9999898156189602  4.984778726700196e-06  0.9999946143569218  1.0000
  H   H1        1.0  0.517755260549258  0.022553406613546705  0.3843228144701598  1.0000
  H   H2        1.0  0.017750914871669504  0.47743447223759744  0.11568792584202475  1.0000
  H   H3        1.0  0.48225472217572474  0.9774333012402611  0.6156909389534491  1.0000
  H   H4        1.0  0.9822438641854278  0.5225492716189136  0.8843174240915915  1.0000
  H   H5        1.0  0.9039543090587545  0.7637306352143939  0.4422741357274021  1.0000
  H   H6        1.0  0.40400998868470595  0.7362530763595245  0.05773768801074651  1.0000
  H   H7        1.0  0.09601766491071122  0.23625009719987847  0.5577421081796317  1.0000
  H   H8        1.0  0.5960399031328408  0.26373067056734106  0.9422664170424824  1.0000
  H   H9        1.0  0.6984287484449752  0.26282879249220775  0.660835456551176  1.0000
  H   H10       1.0  0.19838991067918954  0.2371729283173778  0.8391632349978339  1.0000
  H   H11       1.0  0.30161734227524317  0.7371758692147311  0.3391596202666706  1.0000
  H   H12       1.0  0.8015744612703559  0.762838669768968  0.1608431497204847  1.0000
  H   H13       1.0  0.7461768805239118  0.37366676101509466  0.7592443216692006  1.0000
  H   H14       1.0  0.2461845383295653  0.12634293326044602  0.7407554042200886  1.0000
  H   H15       1.0  0.253829300973166  0.6263378960936664  0.24075262256101845  1.0000
  H   H16       1.0  0.7538178423890615  0.8736855781360264  0.259250875221639  1.0000
  H   H17       1.0  0.8030266373062959  0.431352063288273  0.659344332884075  1.0000
  H   H18       1.0  0.3030267507870477  0.06866261450023362  0.840659890335921  1.0000
  H   H19       1.0  0.1969814446309357  0.5686675117423762  0.3406547886788617  1.0000
  H   H20       1.0  0.6969566255220772  0.9313539628618059  0.15934452270223431  1.0000
  H   H21       1.0  0.5364484601980737  0.6358280028047149  0.71508125887938  1.0000
  H   H22       1.0  0.03650774598161631  0.8641613868513365  0.7849228034159809  1.0000
  H   H23       1.0  0.4634931065315514  0.36416568428310825  0.2849263724915545  1.0000
  H   H24       1.0  0.9634965349363044  0.13585025103331114  0.21506739640500433  1.0000
  H   H25       1.0  0.4336079645892497  0.5793023043631823  0.8111070186444779  1.0000
  H   H26       1.0  0.9336469673102246  0.9206753107672729  0.6888875448886297  1.0000
  H   H27       1.0  0.5663621086537916  0.42067548395180415  0.1888927293096216  1.0000
  H   H28       1.0  0.06636491534148799  0.0793313585593296  0.3111002691742044  1.0000
  H   H29       1.0  0.20271442460611416  0.6290590396884002  0.7404558097899356  1.0000
  H   H30       1.0  0.7027733072060371  0.870917499898454  0.7595382813292348  1.0000
  H   H31       1.0  0.7972385447292043  0.37091376782076685  0.25954653234774133  1.0000
  H   H32       1.0  0.29723857542742144  0.12908419933836512  0.2404477694584841  1.0000
  H   H33       1.0  0.05866593722493012  0.3827199299840062  0.4465045078364228  1.0000
  H   H34       1.0  0.5586485120190404  0.11728492520857971  0.053486382753213504  1.0000
  H   H35       1.0  0.9413535472855374  0.61727777542918  0.553487353339932  1.0000
  H   H36       1.0  0.44132726247222115  0.8827167418827887  0.9465127404432537  1.0000
  H   H37       1.0  0.3081230479091346  0.3036227799718391  0.4096227434216644  1.0000
  H   H38       1.0  0.8081160195813982  0.19638414566050955  0.09037129299898791  1.0000
  H   H39       1.0  0.6918888348698786  0.6963769101089954  0.5903711925469822  1.0000
  H   H40       1.0  0.1918768587629884  0.8036215152587407  0.9096220198618853  1.0000
  C   C1        1.0  0.9473263307816782  0.8673195418161656  0.4667632494627655  1.0000
  C   C2        1.0  0.44741969453513536  0.6326831040752126  0.0332420150259907  1.0000
  C   C3        1.0  0.05257532669642021  0.13268210077541912  0.5332458335641377  1.0000
  C   C4        1.0  0.552675807634266  0.36732155917066234  0.9667524393985901  1.0000
  C   C5        1.0  0.8522684659922106  0.1025893005184386  0.4760503090260287  1.0000
  C   C6        1.0  0.35236010250073246  0.3974106289240424  0.02396311152905642  1.0000
  C   C7        1.0  0.14767310077391474  0.897414326748951  0.5239608488951576  1.0000
  C   C8        1.0  0.6477258977629107  0.6025810643370166  0.9760461803394024  1.0000
  C   C9        1.0  0.6930849422231449  0.21158469738732327  0.4526583253237035  1.0000
  C   C10       1.0  0.19306966106205445  0.28839626249849465  0.04735928961786581  1.0000
  C   C11       1.0  0.3069440450250839  0.7883960273845506  0.547361031202449  1.0000
  C   C12       1.0  0.8069118150486078  0.7115655826579472  0.9526506273637099  1.0000
  C   C13       1.0  0.7981923486639175  0.9676919331734626  0.44269991191985986  1.0000
  C   C14       1.0  0.2982414877691255  0.5323374812481492  0.05732182837120803  1.0000
  C   C15       1.0  0.20177392405089023  0.03232956530133891  0.5573261843357785  1.0000
  C   C16       1.0  0.7018008022620281  0.46769002787284825  0.9426874599976358  1.0000
  C   C17       1.0  0.689468465749492  0.3662252278126914  0.6927912504084405  1.0000
  C   C18       1.0  0.1894556429973377  0.13377648992062063  0.8072074027270235  1.0000
  C   C19       1.0  0.31056432188526634  0.6337794338919595  0.3072038263808495  1.0000
  C   C20       1.0  0.810522031991795  0.8662371035500412  0.19279669933303722  1.0000
  C   C21       1.0  0.389434829304392  0.5829833858712307  0.7447359165222381  1.0000
  C   C22       1.0  0.8894914160987071  0.9169981864733006  0.7552613620175778  1.0000
  C   C23       1.0  0.6105181399930117  0.4169953940100657  0.25526518004912196  1.0000
  C   C24       1.0  0.1105109643467657  0.08301146674207872  0.24472676299071594  1.0000
  S   S1        1.0  0.3635445854107004  0.4149925652776858  0.6895036826198719  1.0000
  S   S2        1.0  0.8635535769710428  0.08499133957709402  0.8104814021454488  1.0000
  S   S3        1.0  0.636467297314347  0.5849912199036498  0.3104848598681116  1.0000
  S   S4        1.0  0.1364355004459199  0.9150163167235235  0.18950962802045274  1.0000
  O   O1        1.0  0.30251597308044614  0.42539163065945484  0.5978304254879917  1.0000
  O   O2        1.0  0.8025092762962702  0.07459523556956071  0.9021553306932832  1.0000
  O   O3        1.0  0.6974940092513933  0.5746020931706894  0.402162266045508  1.0000
  O   O4        1.0  0.19748360201317894  0.9253984959098392  0.09783424830677495  1.0000
  O   O5        1.0  0.2235077429747534  0.3937225742079492  0.4185085738980447  1.0000
  O   O6        1.0  0.7234951725514663  0.10628334606592922  0.0814775255823861  1.0000
  O   O7        1.0  0.7765098411368998  0.6062781089735554  0.581486088237469  1.0000
  O   O8        1.0  0.2764977057589135  0.8937233140747696  0.9185140234357334  1.0000
  O   O9        1.0  0.6017657100275285  0.9338357161745918  0.3881704309750944  1.0000
  O   O10       1.0  0.10179000408513161  0.5661727495957579  0.11184579918113263  1.0000
  O   O11       1.0  0.3982062639540943  0.0661718666619606  0.6118504791227011  1.0000
  O   O12       1.0  0.8982332815198363  0.43383586614075403  0.8881596521984464  1.0000
  O   O13       1.0  0.5019948378867769  0.178611199670712  0.4036902835029821  1.0000
  O   O14       1.0  0.0020039296901899  0.32141747196470766  0.09631716904803513  1.0000
  O   O15       1.0  0.4980094432827755  0.8214043815343504  0.5963146484241122  1.0000
  O   O16       1.0  0.9979927496452491  0.6786180094939173  0.9036867234717292  1.0000
  O   O17       1.0  0.7507920268139969  0.3321706989154905  0.4818092025663745  1.0000
  O   O18       1.0  0.250850461520308  0.16781037265040777  0.018171310327858205  1.0000
  O   O19       1.0  0.24917424521284914  0.6678101192024432  0.5181721813650385  1.0000
  O   O20       1.0  0.749222235140266  0.8321634907270835  0.9818062357482804  1.0000
