data_image0
_chemical_formula_structural       Cd6H12C48S7N12O24
_chemical_formula_sum              "Cd6 H12 C48 S7 N12 O24"
_cell_length_a       13.105133045287452
_cell_length_b       13.106045717149476
_cell_length_c       13.105724326869213
_cell_angle_alpha    98.31714518430623
_cell_angle_beta     98.3144170139786
_cell_angle_gamma    98.31775346640784

_space_group_name_H-M_alt    "P 1"
_space_group_IT_number       1

loop_
  _space_group_symop_operation_xyz
  'x, y, z'

loop_
  _atom_site_type_symbol
  _atom_site_label
  _atom_site_symmetry_multiplicity
  _atom_site_fract_x
  _atom_site_fract_y
  _atom_site_fract_z
  _atom_site_occupancy
  Cd  Cd1       1.0  0.6941758634983798  0.5982495298116248  0.46434947316293324  1.0000
  Cd  Cd2       1.0  0.46436281296760745  0.6941631065507253  0.5982456990653446  1.0000
  Cd  Cd3       1.0  0.5982516609524354  0.46434664479810556  0.6941472101650916  1.0000
  Cd  Cd4       1.0  0.3058229780023681  0.4017508286798446  0.5356498575939669  1.0000
  Cd  Cd5       1.0  0.5356380974608185  0.3058357098447146  0.4017552315929791  1.0000
  Cd  Cd6       1.0  0.40174834579091373  0.5356513803093677  0.3058527198045695  1.0000
  H   H1        1.0  0.9934757722861605  0.4729643345010501  0.7678689564076676  1.0000
  H   H2        1.0  0.7678977826544441  0.9934930259562764  0.4729396580200814  1.0000
  H   H3        1.0  0.47293782515701827  0.7678504398193625  0.9934600862067172  1.0000
  H   H4        1.0  0.006523870122848094  0.5270360578512978  0.23213583268437082  1.0000
  H   H5        1.0  0.2321008036500274  0.006505767813472099  0.527059417553545  1.0000
  H   H6        1.0  0.527061911755041  0.2321507016488127  0.006538716826128156  1.0000
  H   H7        1.0  0.1768842149191698  0.5279773392244137  0.7453795734922083  1.0000
  H   H8        1.0  0.7453691042393515  0.17687314173267046  0.527914298679633  1.0000
  H   H9        1.0  0.5279257043059218  0.7453405304008739  0.17686543931118592  1.0000
  H   H10       1.0  0.8231148941885065  0.47202459645566813  0.2546223050670307  1.0000
  H   H11       1.0  0.2546311494264941  0.8231264397852626  0.4720843580606058  1.0000
  H   H12       1.0  0.47207390914488206  0.2546598328620746  0.8231340003363811  1.0000
  C   C1        1.0  0.8171940624645446  0.5118737981022292  0.6721827591752217  1.0000
  C   C2        1.0  0.6722390279433911  0.8172212797166624  0.5118756347106412  1.0000
  C   C3        1.0  0.5118842330908393  0.6722011673978797  0.8171958773363811  1.0000
  C   C4        1.0  0.1828051681918552  0.48812421807813416  0.3278162976974315  1.0000
  C   C5        1.0  0.32776303309261584  0.18277988437720438  0.4881250234069014  1.0000
  C   C6        1.0  0.4881179514064159  0.32780077490122056  0.18280414416644672  1.0000
  C   C7        1.0  0.9241259653523956  0.5486446568761565  0.6499671921821175  1.0000
  C   C8        1.0  0.6499951460711203  0.9241421947247658  0.5486257427713994  1.0000
  C   C9        1.0  0.5486262120244235  0.6499575995852778  0.9241180883885748  1.0000
  C   C10       1.0  0.0758708218556947  0.4513525626289193  0.350031410426908  1.0000
  C   C11       1.0  0.3500069149648866  0.07585896936910069  0.4513749153461433  1.0000
  C   C12       1.0  0.4513761000709665  0.3500451250746863  0.07588206070588654  1.0000
  C   C13       1.0  0.00951309873372712  0.521789013394347  0.7094761096853759  1.0000
  C   C14       1.0  0.7095029522103147  0.009530747582246599  0.5217562855651678  1.0000
  C   C15       1.0  0.5217638370448867  0.709456270065928  0.009505246294850176  1.0000
  C   C16       1.0  0.9904870397446359  0.47820979822961374  0.2905247120822807  1.0000
  C   C17       1.0  0.29049679297551023  0.9904704021971894  0.47824404588038766  1.0000
  C   C18       1.0  0.47823679941536323  0.29054565853459025  0.9904937932203027  1.0000
  C   C19       1.0  0.1140092030249491  0.5540303306089882  0.6972351286656249  1.0000
  C   C20       1.0  0.6972315356803878  0.11400398196116157  0.5539864452448741  1.0000
  C   C21       1.0  0.5539950611564849  0.6972208498995511  0.1139959404204447  1.0000
  C   C22       1.0  0.8859896550233375  0.44597004450499605  0.3027672589166955  1.0000
  C   C23       1.0  0.3027672975465877  0.8859963682190538  0.4460113570993228  1.0000
  C   C24       1.0  0.4460053242443821  0.3027795181348694  0.8860036081177824  1.0000
  C   C25       1.0  0.1377742360674787  0.6171784466805831  0.6249952872287282  1.0000
  C   C26       1.0  0.624977809532112  0.1377567109264746  0.6171312807766043  1.0000
  C   C27       1.0  0.6171480967803833  0.6249761179387364  0.13776010577802117  1.0000
  C   C28       1.0  0.8622235906975887  0.3828203547845775  0.37500597207329633  1.0000
  C   C29       1.0  0.37502154872242244  0.8622420876147531  0.3828679036876822  1.0000
  C   C30       1.0  0.3828533157668161  0.37502581958888465  0.8622398068341468  1.0000
  C   C31       1.0  0.05332020126810729  0.6487233255759788  0.5630981605052838  1.0000
  C   C32       1.0  0.5630962208250025  0.053290050520985205  0.6486866357705594  1.0000
  C   C33       1.0  0.6487053094784586  0.5630889845340049  0.05330050990674811  1.0000
  C   C34       1.0  0.9466782657120022  0.3512746941441733  0.43690231588941236  1.0000
  C   C35       1.0  0.4369032650276666  0.9467095303810991  0.3513126762853673  1.0000
  C   C36       1.0  0.3512961113425135  0.436912961304877  0.9467009311181229  1.0000
  C   C37       1.0  0.9462132844142348  0.6127917842518116  0.5740909443451656  1.0000
  C   C38       1.0  0.5741096523507352  0.9462132478314726  0.6127676544102981  1.0000
  C   C39       1.0  0.6127892118518545  0.5740878647017523  0.9462046329474064  1.0000
  C   C40       1.0  0.053785306027123225  0.3872070136735672  0.4259088954348158  1.0000
  C   C41       1.0  0.4258891891500128  0.0537871106600036  0.38723167634660177  1.0000
  C   C42       1.0  0.3872131043804217  0.4259148641138352  0.053796280353410005  1.0000
  C   C43       1.0  0.24863523536049575  0.6521964481934432  0.6140870897697823  1.0000
  C   C44       1.0  0.6140596945634088  0.2486025949909063  0.6521669313958826  1.0000
  C   C45       1.0  0.6521776737548635  0.6140632589319922  0.24861166677435884  1.0000
  C   C46       1.0  0.7513627190027138  0.3478031356325814  0.3859142971238754  1.0000
  C   C47       1.0  0.38594108412999617  0.751395434888046  0.34783310746444573  1.0000
  C   C48       1.0  0.347824251409243  0.3859371144897566  0.7513873353388405  1.0000
  S   S1        1.0  0.9440597617748951  0.7187063583752434  0.43771577257831507  1.0000
  S   S2        1.0  0.43774611830672683  0.9440364081492162  0.7187156394463801  1.0000
  S   S3        1.0  0.718750457781134  0.437756352453107  0.9440513675035407  1.0000
  S   S4        1.0  0.055939213685235224  0.28129009308339903  0.5622830291110645  1.0000
  S   S5        1.0  0.5622518153720577  0.05596315489865591  0.2812819264155095  1.0000
  S   S6        1.0  0.2812503186879099  0.562246370975153  0.05595009222230375  1.0000
  S   S7        1.0  0.4999993548828599  0.49999978598749095  0.49999921947945586  1.0000
  N   N1        1.0  0.8773713972846693  0.6476946681775075  0.505757142156682  1.0000
  N   N2        1.0  0.5057926730603555  0.8773588947172329  0.6476908077488446  1.0000
  N   N3        1.0  0.6477225284221009  0.5057823061148454  0.87736133771552  1.0000
  N   N4        1.0  0.12262783337173032  0.3523033480028629  0.494241914715964  1.0000
  N   N5        1.0  0.49420448453147975  0.1226406594035367  0.3523058850160297  1.0000
  N   N6        1.0  0.352278116311922  0.4942196307969269  0.12263923021233582  1.0000
  N   N7        1.0  0.060699283743481706  0.7096229221695651  0.4884869642382554  1.0000
  N   N8        1.0  0.4884936904413025  0.06067284380480939  0.7095959318913501  1.0000
  N   N9        1.0  0.7096111339827971  0.4884965926896214  0.0606819030808126  1.0000
  N   N10       1.0  0.9392987921684579  0.29037274215674813  0.5115116009688166  1.0000
  N   N11       1.0  0.5115067032333303  0.9393275325408721  0.2904051450595873  1.0000
  N   N12       1.0  0.2903902827012814  0.5115053489936301  0.9393187737377033  1.0000
  O   O1        1.0  0.7380951889537288  0.5483318166129934  0.6277354933195767  1.0000
  O   O2        1.0  0.6277723079480992  0.7381369607065834  0.5483355950569404  1.0000
  O   O3        1.0  0.5483629512154167  0.6277699707277833  0.7381073554544741  1.0000
  O   O4        1.0  0.2619041775745785  0.45166699023949514  0.3722652195574199  1.0000
  O   O5        1.0  0.372227428963953  0.2618641807615987  0.4516632079759049  1.0000
  O   O6        1.0  0.4516406537207089  0.37223120290903466  0.2618935204443957  1.0000
  O   O7        1.0  0.8066263868757702  0.4496064540578146  0.7353573206428551  1.0000
  O   O8        1.0  0.7354380339938161  0.8066541583030257  0.4496322974934088  1.0000
  O   O9        1.0  0.4496156613584575  0.735369824986556  0.8066389558707528  1.0000
  O   O10       1.0  0.19337208010433934  0.5503915656623306  0.2646431557518413  1.0000
  O   O11       1.0  0.26456402290530434  0.1933470016352103  0.5503675964177788  1.0000
  O   O12       1.0  0.5503854918555862  0.2646305436637135  0.19335993735177942  1.0000
  O   O13       1.0  0.2815160575015909  0.7474149339556958  0.617230809728362  1.0000
  O   O14       1.0  0.617187962444014  0.28146237836643456  0.7473819917243391  1.0000
  O   O15       1.0  0.7474002695059456  0.6172013839233941  0.2814727042925611  1.0000
  O   O16       1.0  0.7184789407963947  0.2525854173009137  0.382771033400644  1.0000
  O   O17       1.0  0.3828099877823092  0.7185372013039598  0.2526186309629638  1.0000
  O   O18       1.0  0.2526015321969055  0.3827982112931211  0.7185269344353529  1.0000
  O   O19       1.0  0.30790371137364764  0.5820420291647891  0.6036977435491195  1.0000
  O   O20       1.0  0.6036782732205878  0.3079002220951921  0.5820298508440587  1.0000
  O   O21       1.0  0.5820391529498607  0.6036677002649498  0.3079117959253637  1.0000
  O   O22       1.0  0.6920942388526754  0.417957550505605  0.3963028791381901  1.0000
  O   O23       1.0  0.3963227648059729  0.6920993766611049  0.4179712074058984  1.0000
  O   O24       1.0  0.41796212372543107  0.3963334465905533  0.692086460682461  1.0000
