data_image0
_chemical_formula_structural       La2H42C54O12
_chemical_formula_sum              "La2 H42 C54 O12"
_cell_length_a       7.828457099375781
_cell_length_b       13.369190831548512
_cell_length_c       13.369187068639885
_cell_angle_alpha    116.29292227179391
_cell_angle_beta     101.25560118932175
_cell_angle_gamma    101.25535740045322

_space_group_name_H-M_alt    "P 1"
_space_group_IT_number       1

loop_
  _space_group_symop_operation_xyz
  'x, y, z'

loop_
  _atom_site_type_symbol
  _atom_site_label
  _atom_site_symmetry_multiplicity
  _atom_site_fract_x
  _atom_site_fract_y
  _atom_site_fract_z
  _atom_site_occupancy
  La  La1       1.0  0.0062302573672781  2.8898029782000004e-06  0.9999598638105455  1.0000
  La  La2       1.0  0.5062311328394884  0.9999592260819413  4.663706420140579e-06  1.0000
  H   H1        1.0  0.4356389255971748  0.6470496866617451  0.8232087134896277  1.0000
  H   H2        1.0  0.7886774911841388  0.1761415516633349  0.3529193664066029  1.0000
  H   H3        1.0  0.6124771630630903  0.17694508686109597  0.8239369212931537  1.0000
  H   H4        1.0  0.11247912687885275  0.8239364486814297  0.17694591574718307  1.0000
  H   H5        1.0  0.9356433567794724  0.8232081087398129  0.6470536528874574  1.0000
  H   H6        1.0  0.28867403001314784  0.3529193639136494  0.17614115802103922  1.0000
  H   H7        1.0  0.757792211333907  0.6127122827102126  0.9644292817345602  1.0000
  H   H8        1.0  0.1451941655982907  0.3516580541476984  0.3872489002450905  1.0000
  H   H9        1.0  0.7933347876758248  0.035633050118114795  0.6483667792078833  1.0000
  H   H10       1.0  0.2933382436374217  0.64836682906202  0.03563431644632686  1.0000
  H   H11       1.0  0.2577918956227662  0.9644307901142141  0.6127142889714393  1.0000
  H   H12       1.0  0.6451931369679258  0.387249604948522  0.35165820529979896  1.0000
  H   H13       1.0  0.2707668249241237  0.4553592259491808  0.7418592481736824  1.0000
  H   H14       1.0  0.8155103089643632  0.2865650142715451  0.5446498676163075  1.0000
  H   H15       1.0  0.5287721779074772  0.25817340026284796  0.7134699715026754  1.0000
  H   H16       1.0  0.02877284526105931  0.7134695360047301  0.25817435344482925  1.0000
  H   H17       1.0  0.7707669023331789  0.7418601408004478  0.4553601809632113  1.0000
  H   H18       1.0  0.3155097085343286  0.5446506485400419  0.2865643818133137  1.0000
  H   H19       1.0  0.07313528045202841  0.26714537295515584  0.7066171179883511  1.0000
  H   H20       1.0  0.806119430392805  0.4395987665833374  0.7328493497707312  1.0000
  H   H21       1.0  0.3665952921896221  0.2933791505964365  0.5603978218862622  1.0000
  H   H22       1.0  0.8665964673583275  0.5603965162375175  0.2933790832538535  1.0000
  H   H23       1.0  0.5731385718539103  0.7066201069995158  0.2671473670842844  1.0000
  H   H24       1.0  0.306114102612014  0.7328498950612712  0.4395969025610427  1.0000
  H   H25       1.0  0.17896166292052126  0.17670489502307868  0.8252749155011331  1.0000
  H   H26       1.0  0.00227055319312082  0.6487354358108702  0.8232187463470808  1.0000
  H   H27       1.0  0.3538248859219947  0.17458542817941233  0.3513170800217083  1.0000
  H   H28       1.0  0.8538212118511695  0.3513144863957364  0.174581517395886  1.0000
  H   H29       1.0  0.6789644487469816  0.8252766363749089  0.17670682245801575  1.0000
  H   H30       1.0  0.5022694481137008  0.8232215748434583  0.6487340927753351  1.0000
  H   H31       1.0  0.48784768866544687  0.27721183719277315  0.9785610694214171  1.0000
  H   H32       1.0  0.21061011456601608  0.701459576934411  0.7226680111421969  1.0000
  H   H33       1.0  0.5093636517381555  0.021257257723753798  0.2986133653439893  1.0000
  H   H34       1.0  0.009358475774774866  0.2986150939013185  0.021254169076570364  1.0000
  H   H35       1.0  0.9878517628845388  0.9785630817572156  0.2772135856641071  1.0000
  H   H36       1.0  0.7106102174009763  0.7226716081724759  0.7014575203543031  1.0000
  H   H37       1.0  0.6881457838130274  0.46510834949725677  0.013163538753275356  1.0000
  H   H38       1.0  0.22309796352721634  0.5480964775763368  0.5348404986675419  1.0000
  H   H39       1.0  0.6751692909432875  0.9868695768003658  0.4520553025060323  1.0000
  H   H40       1.0  0.1751696137042202  0.4520562240778858  0.9868695505932408  1.0000
  H   H41       1.0  0.1881458165345222  0.013165906113918898  0.4651122806568324  1.0000
  H   H42       1.0  0.7230987213730488  0.5348448628115108  0.5480970630114115  1.0000
  C   C1        1.0  0.7114035574657861  0.775186966321769  0.9143607256477253  1.0000
  C   C2        1.0  0.9363517988867188  0.13914601550665398  0.2247777702723184  1.0000
  C   C3        1.0  0.7968442849647913  0.0855979440680485  0.8608146487694697  1.0000
  C   C4        1.0  0.2968446722047774  0.8608143945861643  0.08560067437073834  1.0000
  C   C5        1.0  0.21140918418916493  0.9143608687624151  0.7751891987438171  1.0000
  C   C6        1.0  0.4363495458451964  0.2247778043366182  0.13914715491984708  1.0000
  C   C7        1.0  0.5739105251047859  0.6624403685806967  0.8746545895321987  1.0000
  C   C8        1.0  0.9116088270429971  0.21216792753521216  0.3375630681371291  1.0000
  C   C9        1.0  0.6992460218597287  0.12546627126736348  0.787857388162415  1.0000
  C   C10       1.0  0.19924407119051327  0.7878560210997847  0.12546617459169343  1.0000
  C   C11       1.0  0.07391474141473238  0.8746549040276788  0.6624435914126251  1.0000
  C   C12       1.0  0.41161065490963017  0.3375628878546734  0.21216822394789148  1.0000
  C   C13       1.0  0.6169032981654681  0.586317223735449  0.9078585049110259  1.0000
  C   C14       1.0  0.030731392918696056  0.32151711080169315  0.41366724147828643  1.0000
  C   C15       1.0  0.7091281278583637  0.0922704402016237  0.6785425020127889  1.0000
  C   C16       1.0  0.20912847475309346  0.6785426975861312  0.09227086545796945  1.0000
  C   C17       1.0  0.11690727268267403  0.9078606673575889  0.5863207611649983  1.0000
  C   C18       1.0  0.530732343337057  0.4136677532073919  0.32151817613278416  1.0000
  C   C19       1.0  0.4940420832316832  0.4744469073377219  0.8809870927469989  1.0000
  C   C20       1.0  0.019719801010239724  0.4065575097479694  0.5255211721928887  1.0000
  C   C21       1.0  0.6131875749207083  0.11909338266540459  0.5935152264770237  1.0000
  C   C22       1.0  0.11318610959481391  0.5935146582363231  0.11909566407352659  1.0000
  C   C23       1.0  0.9940427336222015  0.8809893801220952  0.474450247184123  1.0000
  C   C24       1.0  0.5197192172151618  0.525521918456441  0.4065560067138562  1.0000
  C   C25       1.0  0.31896700669776124  0.4170377096439211  0.794342998594459  1.0000
  C   C26       1.0  0.9020608749839877  0.37737130171409206  0.582946782495533  1.0000
  C   C27       1.0  0.5246836823164216  0.20571500750492785  0.6226888537699509  1.0000
  C   C28       1.0  0.024686587354551526  0.6226886534973345  0.2057151017980416  1.0000
  C   C29       1.0  0.8189649253972675  0.7943447316918507  0.41703848946739436  1.0000
  C   C30       1.0  0.40205792001649604  0.5829477807445897  0.3773699459632169  1.0000
  C   C31       1.0  0.20767446249882232  0.3106571063571266  0.7742965988908354  1.0000
  C   C32       1.0  0.8971238740624371  0.4637649123876385  0.6893289268166213  1.0000
  C   C33       1.0  0.4335150663327312  0.22572143722025825  0.5362946791404468  1.0000
  C   C34       1.0  0.9335149788424104  0.5362930105583174  0.22571916877148362  1.0000
  C   C35       1.0  0.7076740758452756  0.7742976051821202  0.3106575228595218  1.0000
  C   C36       1.0  0.3971223145842799  0.6893304119102837  0.4637630625957812  1.0000
  C   C37       1.0  0.26701698390805  0.25954563460838637  0.8404637219770379  1.0000
  C   C38       1.0  0.007472561406011365  0.5810701176858258  0.7403722863539953  1.0000
  C   C39       1.0  0.42671776060009137  0.15946631904144226  0.41900844571866  1.0000
  C   C40       1.0  0.9267178877361602  0.4190064048010027  0.15946507433854853  1.0000
  C   C41       1.0  0.7670210724113956  0.8404660908308015  0.2595470391741798  1.0000
  C   C42       1.0  0.5074688603278545  0.7403727377957665  0.5810681849711301  1.0000
  C   C43       1.0  0.44022136753622476  0.3159376179149902  0.9265827604826029  1.0000
  C   C44       1.0  0.12423158893342645  0.6107492534841156  0.6839499790117786  1.0000
  C   C45       1.0  0.5137627091716155  0.07334400250574188  0.3893443272831192  1.0000
  C   C46       1.0  0.01376092792854418  0.3893422292530814  0.07334180716868126  1.0000
  C   C47       1.0  0.9402267281264045  0.9265857872278929  0.31594192587526493  1.0000
  C   C48       1.0  0.6242314890774383  0.6839517591531603  0.6107478875491452  1.0000
  C   C49       1.0  0.5530307597500225  0.4215194048088263  0.9459889262561421  1.0000
  C   C50       1.0  0.13154860399862403  0.5245186256886498  0.57841240858221  1.0000
  C   C51       1.0  0.6072009462368727  0.05402184517922851  0.4755883521480513  1.0000
  C   C52       1.0  0.10720265535332635  0.4755887652877107  0.05402022824723221  1.0000
  C   C53       1.0  0.053032017648909954  0.9459902853536661  0.42152202881514705  1.0000
  C   C54       1.0  0.6315498920779207  0.5784137047741211  0.524516671569181  1.0000
  O   O1        1.0  0.6591551480666525  0.854140764455366  0.8961251019869256  1.0000
  O   O2        1.0  0.8052038552116514  0.04189653566432839  0.14582775809630988  1.0000
  O   O3        1.0  0.7629947584837851  0.10392892768822999  0.9580783212740228  1.0000
  O   O4        1.0  0.26299350498150875  0.9580781885094038  0.10393038730256174  1.0000
  O   O5        1.0  0.15916115030315584  0.8961250005143385  0.8541423243910272  1.0000
  O   O6        1.0  0.30520303797513293  0.1458274498933392  0.0418990249007152  1.0000
  O   O7        1.0  0.8805410875794167  0.7967748993667956  0.9652188168857024  1.0000
  O   O8        1.0  0.08382380259884309  0.16851965560752544  0.20315686044713743  1.0000
  O   O9        1.0  0.9148259411660505  0.0345132439224471  0.8313832789940463  1.0000
  O   O10       1.0  0.4148332474900867  0.831385714607016  0.03451949444244199  1.0000
  O   O11       1.0  0.3805478564778751  0.9652203576219871  0.796778417042958  1.0000
  O   O12       1.0  0.5838210426618815  0.20315662257836206  0.16852065153167226  1.0000
