data_image0
_chemical_formula_structural       Cu2H30C38N8O8
_chemical_formula_sum              "Cu2 H30 C38 N8 O8"
_cell_length_a       8.2789445877957
_cell_length_b       11.164028329794862
_cell_length_c       11.163993184767607
_cell_angle_alpha    100.06337414291438
_cell_angle_beta     109.98622494064531
_cell_angle_gamma    109.98680446930516

_space_group_name_H-M_alt    "P 1"
_space_group_IT_number       1

loop_
  _space_group_symop_operation_xyz
  'x, y, z'

loop_
  _atom_site_type_symbol
  _atom_site_label
  _atom_site_symmetry_multiplicity
  _atom_site_fract_x
  _atom_site_fract_y
  _atom_site_fract_z
  _atom_site_occupancy
  Cu  Cu1       1.0  6.314587467062894e-07  0.5000007875557416  1.552806097515399e-07  1.0000
  Cu  Cu2       1.0  3.670272833485254e-07  0.9999995406309381  0.5000001225817384  1.0000
  H   H1        1.0  0.8381273059097936  0.670151614671596  0.14223137724278703  1.0000
  H   H2        1.0  0.1618762339420742  0.857767644483559  0.32984844132989366  1.0000
  H   H3        1.0  0.16187461792148386  0.3298508949447481  0.8577684730730296  1.0000
  H   H4        1.0  0.8381238718173807  0.142231838005948  0.6701513202138827  1.0000
  H   H5        1.0  0.6377178220073674  0.44941112161662033  0.7314660052223516  1.0000
  H   H6        1.0  0.3622860486350917  0.2685316644462362  0.550589075550178  1.0000
  H   H7        1.0  0.36228289029815397  0.550589370575743  0.2685340847382349  1.0000
  H   H8        1.0  0.637714741817682  0.7314668181430265  0.44941068631329256  1.0000
  H   H9        1.0  0.3969066179995267  0.5665423830330099  0.7561134596808613  1.0000
  H   H10       1.0  0.6030970962106039  0.24388714054855853  0.43345686451367255  1.0000
  H   H11       1.0  0.6030940974387491  0.4334581131228106  0.24388842323651255  1.0000
  H   H12       1.0  0.39690240300278395  0.7561113322380919  0.5665425686132934  1.0000
  H   H13       1.0  0.5838849231377453  0.7417109232100644  0.13394686479245624  1.0000
  H   H14       1.0  0.4161173440386466  0.8660543886614961  0.2582867992816205  1.0000
  H   H15       1.0  0.4161151060408345  0.25829057086426854  0.8660541213268331  1.0000
  H   H16       1.0  0.5838833682668748  0.13394610353087444  0.7417132906789731  1.0000
  H   H17       1.0  0.3815550178857239  0.6910282681385242  0.9764318698767552  1.0000
  H   H18       1.0  0.6184498811274324  0.023569146876838  0.3089703639400339  1.0000
  H   H19       1.0  0.6184456944197976  0.3089722240538393  0.023568220083831182  1.0000
  H   H20       1.0  0.3815502246320223  0.9764303356126691  0.6910293976037424  1.0000
  H   H21       1.0  0.39857740208312004  0.8172143111902058  0.8172164521687008  1.0000
  H   H22       1.0  0.6014227036763344  0.18278517129930094  0.1827833093750754  1.0000
  H   H23       1.0  0.8741197157083462  0.9535548029979637  0.20535373894146855  1.0000
  H   H24       1.0  0.1258843531597408  0.7946453915826198  0.046443763261713435  1.0000
  H   H25       1.0  0.12588107317805  0.04644367760956671  0.794645126443619  1.0000
  H   H26       1.0  0.8741137782333865  0.2053550829862516  0.953556565704261  1.0000
  H   H27       1.0  0.030559762557196363  0.16849539179871442  0.16849560033826086  1.0000
  H   H28       1.0  0.9694403432022582  0.8315040906907927  0.8315041612055225  1.0000
  H   H29       1.0  0.973632316410466  0.6640964143833089  0.6640982145409849  1.0000
  H   H30       1.0  0.02636330908476482  0.3359020289955126  0.33590023237647415  1.0000
  C   C1        1.0  0.7565232679530567  0.6267363946853877  0.03331526318053331  1.0000
  C   C2        1.0  0.24347428023655487  0.9666819226252272  0.3732590976346231  1.0000
  C   C3        1.0  0.24347494158732275  0.3732620702803828  0.9666847376883181  1.0000
  C   C4        1.0  0.7565271183286627  0.0333175716486167  0.626741889124055  1.0000
  C   C5        1.0  0.6461658233685769  0.5153335855687545  0.8191849191507287  1.0000
  C   C6        1.0  0.3538374709899443  0.1808125823040925  0.48466647559812503  1.0000
  C   C7        1.0  0.3538342808244936  0.4846658949390277  0.1808139459146574  1.0000
  C   C8        1.0  0.6461620266570666  0.8191858885008332  0.5153320610504508  1.0000
  C   C9        1.0  0.5269836050939037  0.5726286899456242  0.8303086905766789  1.0000
  C   C10       1.0  0.473018275810638  0.1696911654207867  0.42737122860502547  1.0000
  C   C11       1.0  0.47301452629922397  0.4273717846232473  0.16969163838928844  1.0000
  C   C12       1.0  0.5269805418421855  0.8303083112295654  0.5726299971590265  1.0000
  C   C13       1.0  0.537809133039886  0.7354302774455661  0.0275993695165226  1.0000
  C   C14       1.0  0.4621919259744161  0.9724007477426254  0.2645675079044381  1.0000
  C   C15       1.0  0.4621915792656353  0.26457021474679726  0.9724007204440709  1.0000
  C   C16       1.0  0.537809471024424  0.027598744549486305  0.7354325823758427  1.0000
  C   C17       1.0  0.5391153092388166  0.8933921495857646  0.8933939867651971  1.0000
  C   C18       1.0  0.46088608619364624  0.10660734072462928  0.10660520703670065  1.0000
  C   C19       1.0  0.6274814403756965  0.8709151904655104  0.012696714283691875  1.0000
  C   C20       1.0  0.37251982316998083  0.9873036472217223  0.12908242449177015  1.0000
  C   C21       1.0  0.3725173741443726  0.12908428222138474  0.9873027185235869  1.0000
  C   C22       1.0  0.6274802825894737  0.012695835267784603  0.870917337052006  1.0000
  C   C23       1.0  0.8045727775557909  0.9705875338809166  0.11190758051216688  1.0000
  C   C24       1.0  0.19542825149329732  0.8880934644786013  0.029411374858654145  1.0000
  C   C25       1.0  0.1954266435103449  0.029412948508834805  0.8880921807119222  1.0000
  C   C26       1.0  0.8045724608122244  0.1119070277137624  0.9705887151019325  1.0000
  C   C27       1.0  0.8921001111650284  0.09127287356897541  0.09127362246074713  1.0000
  C   C28       1.0  0.10789938804835962  0.9087255992176752  0.9087258106662189  1.0000
  C   C29       1.0  0.9668665735655394  0.4489667817542796  0.7401707843524573  1.0000
  C   C30       1.0  0.03313925184066592  0.2598331302094294  0.5510365657475091  1.0000
  C   C31       1.0  0.033134743719671296  0.5510347181592152  0.25982873754654884  1.0000
  C   C32       1.0  0.9668614620312398  0.7401673639646662  0.4489644206914675  1.0000
  C   C33       1.0  0.9922795018269  0.4751536535228241  0.6181842965504811  1.0000
  C   C34       1.0  0.007720660080792543  0.3818164636994935  0.5248484680653505  1.0000
  C   C35       1.0  0.0077180198873991876  0.524845807379741  0.38181391104189544  1.0000
  C   C36       1.0  0.9922742807211125  0.6181829795795794  0.47514997853241436  1.0000
  C   C37       1.0  0.9863065194316721  0.592232583476438  0.5922322478387086  1.0000
  C   C38       1.0  0.0136865235847808  0.40776584029716645  0.407765541605741  1.0000
  N   N1        1.0  0.7884891132153841  0.5498196050468993  0.9467199072630236  1.0000
  N   N2        1.0  0.21150965535277777  0.053277387358001194  0.4501805389965766  1.0000
  N   N3        1.0  0.21150962159105555  0.4501818752613716  0.05327895716298065  1.0000
  N   N4        1.0  0.7884879476415352  0.9467200679049131  0.5498191334554717  1.0000
  N   N5        1.0  0.5988231673905774  0.6420051408806913  0.9660632799206963  1.0000
  N   N6        1.0  0.4011787978365291  0.033936391897640306  0.3579922172965907  1.0000
  N   N7        1.0  0.4011775464813212  0.35799535329340426  0.03393770651828731  1.0000
  N   N8        1.0  0.598820701376859  0.9660620808890101  0.6420072158303823  1.0000
  O   O1        1.0  0.06332752417836233  0.5516140357206042  0.8500032753788673  1.0000
  O   O2        1.0  0.9366800139570374  0.1499998875166568  0.448392102556248  1.0000
  O   O3        1.0  0.936674398086538  0.4483884719140151  0.14999567845855918  1.0000
  O   O4        1.0  0.06332138460818039  0.8499996067571872  0.5516088842024301  1.0000
  O   O5        1.0  0.851803608856777  0.3350602141057877  0.7289187176662962  1.0000
  O   O6        1.0  0.14820305964595806  0.27108650503625853  0.6649457436959735  1.0000
  O   O7        1.0  0.1482002940399596  0.6649413093763812  0.27108325466250693  1.0000
  O   O8        1.0  0.8517989454653262  0.728913998940442  0.3350555714795149  1.0000
