data_image0
_chemical_formula_structural       Al2H11C22O10F3
_chemical_formula_sum              "Al2 H11 C22 O10 F3"
_cell_length_a       6.699753816110081
_cell_length_b       11.073003954294633
_cell_length_c       15.49014375005142
_cell_angle_alpha    80.10738163480289
_cell_angle_beta     74.77944543444153
_cell_angle_gamma    73.60943234167188

_space_group_name_H-M_alt    "P 1"
_space_group_IT_number       1

loop_
  _space_group_symop_operation_xyz
  'x, y, z'

loop_
  _atom_site_type_symbol
  _atom_site_label
  _atom_site_symmetry_multiplicity
  _atom_site_fract_x
  _atom_site_fract_y
  _atom_site_fract_z
  _atom_site_occupancy
  Al  Al1       1.0  0.5080633028227625  0.4942727088027752  0.5013135883733499  1.0000
  Al  Al2       1.0  0.009783591204346477  0.492962587717301  0.4983568279132697  1.0000
  H   H1        1.0  0.23110116820359383  0.6389450618585288  0.4337078928010883  1.0000
  H   H2        1.0  0.7318309004744988  0.4211378531898476  0.6101040905354156  1.0000
  H   H3        1.0  0.1299090603797879  0.10051443216314483  0.49987067027722554  1.0000
  H   H4        1.0  0.7604958539177815  0.12762355240383266  0.4957069463799684  1.0000
  H   H5        1.0  0.26892877782685093  0.8658347319845486  0.49639686837323205  1.0000
  H   H6        1.0  0.7561838866561957  0.4171439049682348  0.9511814806558904  1.0000
  H   H7        1.0  0.2959819189263584  0.4890664786963938  0.049566690074698314  1.0000
  H   H8        1.0  0.5765327225855116  0.4957855317477708  0.2428563330780734  1.0000
  H   H9        1.0  0.6267423125790046  0.5123886660457089  0.0776623039015547  1.0000
  H   H10       1.0  0.343016990097027  0.5971672488277237  0.7582667516250439  1.0000
  H   H11       1.0  0.2590139630115189  0.6050569314362094  0.9230043090063875  1.0000
  C   C1        1.0  0.8530190780510055  0.48325644507563936  0.34018179800188636  1.0000
  C   C2        1.0  0.662518923558352  0.7235142202680508  0.49194541354974325  1.0000
  C   C3        1.0  0.15847472733715046  0.5039854848037777  0.6613591022244876  1.0000
  C   C4        1.0  0.3578121222741402  0.26784935177418123  0.5026935669072758  1.0000
  C   C5        1.0  0.5906748902581925  0.8639769241344198  0.4929031453879418  1.0000
  C   C6        1.0  0.43619821472707093  0.12809344946379755  0.4985958842657114  1.0000
  C   C7        1.0  0.7256603992804925  0.9409983740215323  0.4921184039792907  1.0000
  C   C8        1.0  0.29741268691758904  0.05456497425243609  0.4979310498862193  1.0000
  C   C9        1.0  0.6521249091278635  0.0706464692763547  0.49551813773954484  1.0000
  C   C10       1.0  0.37469372164794384  0.9246154610612434  0.4956719827606479  1.0000
  C   C11       1.0  0.09415120246784177  0.5097166322732817  0.760678834628614  1.0000
  C   C12       1.0  0.9006056708344301  0.4867322509850212  0.2402559189722099  1.0000
  C   C13       1.0  0.9253436832979532  0.463569643697099  0.8178992077227465  1.0000
  C   C14       1.0  0.8811417002145348  0.46162789685016764  0.9108052635402051  1.0000
  C   C15       1.0  0.10103283619550746  0.4858207485888928  0.18273301189093163  1.0000
  C   C16       1.0  0.1346953810254092  0.4936484262385863  0.08989685610850273  1.0000
  C   C17       1.0  0.7329608565719213  0.49498619929746457  0.1990866717818065  1.0000
  C   C18       1.0  0.762969192884711  0.5032301885681322  0.1063762669525801  1.0000
  C   C19       1.0  0.21249857912336984  0.5599442914621662  0.8017554356929681  1.0000
  C   C20       1.0  0.16712191533111553  0.5621013545227669  0.8941890359059601  1.0000
  C   C21       1.0  0.003199651165132935  0.510137344496208  0.9508677057517049  1.0000
  C   C22       1.0  0.9651227972436373  0.5030482128844013  0.04972835136814521  1.0000
  O   O1        1.0  0.6685420778778022  0.46958509801345377  0.3817905520251018  1.0000
  O   O2        1.0  0.8525737965020427  0.6688620546477678  0.4992290345502965  1.0000
  O   O3        1.0  0.024685054924525114  0.48698130325121286  0.6225589790777306  1.0000
  O   O4        1.0  0.4875882639918031  0.3234863792159786  0.516036557241236  1.0000
  O   O5        1.0  0.34673853779541725  0.5157033948153328  0.6234488827406042  1.0000
  O   O6        1.0  0.16840604118638686  0.31995615139697975  0.4934952438288464  1.0000
  O   O7        1.0  0.993487033473045  0.4973317951002514  0.376391794216353  1.0000
  O   O8        1.0  0.5248372343423497  0.6688412506914146  0.48412306438961394  1.0000
  O   O9        1.0  0.2579308656263636  0.5507479704036058  0.4583482140488968  1.0000
  O   O10       1.0  0.7565870702220324  0.4411483894095197  0.5452638841126786  1.0000
  F   F1        1.0  0.9380266226431146  0.8905432187379532  0.4871602152855702  1.0000
  F   F2        1.0  0.8018386021069048  0.4128740860031003  0.7845396625283669  1.0000
  F   F3        1.0  0.2740951269373468  0.47443674940110714  0.21629977603651446  1.0000
