data_image0
_chemical_formula_structural       Ho6H38C60O46
_chemical_formula_sum              "Ho6 H38 C60 O46"
_cell_length_a       10.135176967302375
_cell_length_b       12.089130078859158
_cell_length_c       14.640837872855855
_cell_angle_alpha    68.96569958562564
_cell_angle_beta     84.51289708138167
_cell_angle_gamma    75.38029717242947

_space_group_name_H-M_alt    "P 1"
_space_group_IT_number       1

loop_
  _space_group_symop_operation_xyz
  'x, y, z'

loop_
  _atom_site_type_symbol
  _atom_site_label
  _atom_site_symmetry_multiplicity
  _atom_site_fract_x
  _atom_site_fract_y
  _atom_site_fract_z
  _atom_site_occupancy
  Ho  Ho1       1.0  0.24567138949461753  0.4850300010242634  0.9005979980372845  1.0000
  Ho  Ho2       1.0  0.754327919702838  0.5149719785958311  0.09940121383911564  1.0000
  Ho  Ho3       1.0  0.3599238552799303  0.9793616902457959  0.7829697311234444  1.0000
  Ho  Ho4       1.0  0.6400759257469416  0.020638461093582805  0.2170286289815096  1.0000
  Ho  Ho5       1.0  0.49313387995002955  0.2887869877248121  0.5476913993934434  1.0000
  Ho  Ho6       1.0  0.5068656655230797  0.7112104318151183  0.4523098461352932  1.0000
  H   H1        1.0  0.7177527625713505  0.7987678947233761  0.8493658053875922  1.0000
  H   H2        1.0  0.2822485268436096  0.2012340928975221  0.15063326138827904  1.0000
  H   H3        1.0  0.8810975877229622  0.04978260749574301  0.6043435899935405  1.0000
  H   H4        1.0  0.11890590258152395  0.950214823171777  0.39565600182392296  1.0000
  H   H5        1.0  0.09084623778073096  0.8919460238198982  0.6118982188095501  1.0000
  H   H6        1.0  0.90915626241501  0.1080514028472237  0.3881014455581778  1.0000
  H   H7        1.0  0.27871515200487806  0.7734857654688914  0.6773267681880882  1.0000
  H   H8        1.0  0.7212851866713449  0.226512584396815  0.3226782394516903  1.0000
  H   H9        1.0  0.203983181034431  0.7329459901594363  0.5914216161378365  1.0000
  H   H10       1.0  0.7960213458287412  0.26705510507032676  0.40857953412199793  1.0000
  H   H11       1.0  0.011016395783542462  0.30217223955887823  0.9568033926839876  1.0000
  H   H12       1.0  0.9889841316355613  0.6978288274842513  0.043194639001313824  1.0000
  H   H13       1.0  0.9623227631859732  0.9752133464519518  0.18983857262873727  1.0000
  H   H14       1.0  0.0376780543995778  0.024790469449662605  0.8101613459185874  1.0000
  H   H15       1.0  0.16913705053052283  0.8588849301048784  0.13764050832693894  1.0000
  H   H16       1.0  0.8308635158976398  0.14111614912327042  0.8623609321339389  1.0000
  H   H17       1.0  0.32437894050900684  0.7777682524842648  0.0873097044311706  1.0000
  H   H18       1.0  0.6756193863815128  0.2222337255724369  0.912690261750605  1.0000
  H   H19       1.0  0.44798390414473477  0.8548089495601374  0.09613552867277517  1.0000
  H   H20       1.0  0.5520168903963236  0.14519121309065502  0.9038648041472616  1.0000
  H   H21       1.0  0.9357761212373246  0.24919654010529513  0.6260504029280939  1.0000
  H   H22       1.0  0.06422146706277229  0.7508045246846533  0.373950573428445  1.0000
  H   H23       1.0  0.8857731265737312  0.5367056963504027  0.34463897982467984  1.0000
  H   H24       1.0  0.11422247370705914  0.46329535800173727  0.6553614598772699  1.0000
  H   H25       1.0  0.13332832429751554  0.4701729523416348  0.309039246074427  1.0000
  H   H26       1.0  0.8666667885502335  0.5298299254172109  0.6909606818887328  1.0000
  H   H27       1.0  0.34380614337785426  0.2928582716630573  0.2899881087095224  1.0000
  H   H28       1.0  0.6561926631438906  0.7071418805499335  0.710011687455925  1.0000
  H   H29       1.0  0.2842708069062567  0.16859441725814864  0.3774313113678078  1.0000
  H   H30       1.0  0.7157235595492607  0.8314075447969458  0.6225689450150116  1.0000
  H   H31       1.0  0.44799157695509717  0.657601327175989  0.8862614004032991  1.0000
  H   H32       1.0  0.5520089348603746  0.342399734993137  0.11373526777177291  1.0000
  H   H33       1.0  0.530859263729667  0.5215316526856101  0.9079925247396194  1.0000
  H   H34       1.0  0.46913856048514185  0.4784684979639806  0.09200802573119667  1.0000
  H   H35       1.0  0.408684411769748  0.24498608231834149  0.7477431060348183  1.0000
  H   H36       1.0  0.591315636379079  0.755013164628693  0.2522575552048707  1.0000
  H   H37       1.0  0.4419346752943979  0.37324939449863603  0.7207121401557829  1.0000
  H   H38       1.0  0.5580641234255308  0.6267507552773497  0.2792869742545464  1.0000
  C   C1        1.0  0.02213333436183254  0.7514199906455588  0.7330598764546326  1.0000
  C   C2        1.0  0.9778659439893216  0.24857833328671572  0.2669390679393686  1.0000
  C   C3        1.0  0.9151418556079208  0.7245004102189015  0.8016763573148042  1.0000
  C   C4        1.0  0.08485941856435626  0.27549792658818023  0.19832380548890427  1.0000
  C   C5        1.0  0.7999634778103225  0.8189428506765994  0.7972329124923481  1.0000
  C   C6        1.0  0.2000380400784749  0.18105457442712955  0.20276750618074862  1.0000
  C   C7        1.0  0.7860481836855939  0.9349157219539138  0.7269046036036003  1.0000
  C   C8        1.0  0.213954826987667  0.0650835345573242  0.27309515823019137  1.0000
  C   C9        1.0  0.891549199508965  0.9590291189533675  0.6592409147344542  1.0000
  C   C10       1.0  0.10845528870608227  0.04096831815156322  0.3407592862878631  1.0000
  C   C11       1.0  0.008536327943602283  0.8688534114245885  0.6627535068777349  1.0000
  C   C12       1.0  0.991467162360884  0.13114401924293875  0.3372460849397285  1.0000
  C   C13       1.0  0.24434602919497897  0.7001651921109656  0.66587118120804  1.0000
  C   C14       1.0  0.7556562584914917  0.29983315600752297  0.33413095431075135  1.0000
  C   C15       1.0  0.3637244008544014  0.5913758233787123  0.6776801808965233  1.0000
  C   C16       1.0  0.6362820828208271  0.40862527254083875  0.32231877899744193  1.0000
  C   C17       1.0  0.9161405598745989  0.6031739401911693  0.880354519612553  1.0000
  C   C18       1.0  0.08385923675589162  0.3968262160222198  0.11964520400263005  1.0000
  C   C19       1.0  0.6569042910767137  0.029888838382540008  0.7168047031030941  1.0000
  C   C20       1.0  0.34309722645113505  0.970112232660995  0.28319325603194306  1.0000
  C   C21       1.0  0.2048071825325052  0.012003354527152503  0.011701903484606608  1.0000
  C   C22       1.0  0.795191380272719  0.9879977093891911  0.9882976368114457  1.0000
  C   C23       1.0  0.1602749728689759  0.13876418383828337  0.9615787816431907  1.0000
  C   C24       1.0  0.8397248393651464  0.8612359772491164  0.03842230548222145  1.0000
  C   C25       1.0  0.043091995285017476  0.20385762085884102  0.9941258767893334  1.0000
  C   C26       1.0  0.9569065519165816  0.796143438183492  0.005872299996489893  1.0000
  C   C27       1.0  0.9681527688327519  0.14568720864443926  0.07350209387388425  1.0000
  C   C28       1.0  0.031847774189977016  0.8543138632727006  0.9264973013216463  1.0000
  C   C29       1.0  0.015546923588303199  0.020846098276670902  0.12441356490273854  1.0000
  C   C30       1.0  0.9844536272362349  0.9791549760774744  0.8755865120479103  1.0000
  C   C31       1.0  0.13391689893647632  0.9549668978505396  0.09491243079014565  1.0000
  C   C32       1.0  0.8660846576004388  0.0450341853780145  0.905088937120475  1.0000
  C   C33       1.0  0.3927644044366543  0.8355338921040104  0.04459142074472294  1.0000
  C   C34       1.0  0.6072349281662424  0.16446809482709313  0.9554098363970174  1.0000
  C   C35       1.0  0.48793055249743816  0.7614991337622926  0.9901863299354763  1.0000
  C   C36       1.0  0.5120672795191794  0.23850101932430334  0.009814902290464977  1.0000
  C   C37       1.0  0.23299169411625087  0.20945273768215608  0.8763180889755732  1.0000
  C   C38       1.0  0.7670108060794831  0.7905446889849728  0.12368157539214765  1.0000
  C   C39       1.0  0.8450645812949273  0.21805606372799252  0.10728858919073055  1.0000
  C   C40       1.0  0.15493596952961036  0.781945010626153  0.8927114877599184  1.0000
  C   C41       1.0  0.17351003978379245  0.3292491298817808  0.45022720138732814  1.0000
  C   C42       1.0  0.8264882793049109  0.6707528457379157  0.5497720830393292  1.0000
  C   C43       1.0  0.12023925586742473  0.2662929272365916  0.5410918086722776  1.0000
  C   C44       1.0  0.879760304848368  0.7337081431171556  0.4589083408286285  1.0000
  C   C45       1.0  0.9792032298261971  0.29941253495846354  0.5572308498657536  1.0000
  C   C46       1.0  0.02079510486613854  0.7005894455352435  0.4427697980711401  1.0000
  C   C47       1.0  0.8947720108587945  0.39797788053215305  0.4879673625834757  1.0000
  C   C48       1.0  0.10522483885088722  0.6020222709910428  0.5120346239478337  1.0000
  C   C49       1.0  0.9513100182681953  0.4602550479951688  0.3987662861725951  1.0000
  C   C50       1.0  0.04868633620663585  0.5397469244977273  0.6012345068648203  1.0000
  C   C51       1.0  0.08936416346614343  0.4236705779576084  0.3789244080637674  1.0000
  C   C52       1.0  0.9106351304886362  0.5763277508486696  0.621075899840463  1.0000
  C   C53       1.0  0.35155112869298927  0.23078925522946042  0.3665873480440355  1.0000
  C   C54       1.0  0.6484444715878012  0.7692117991226796  0.6334130916579143  1.0000
  C   C55       1.0  0.497238129315761  0.15545611179375382  0.3883233387358376  1.0000
  C   C56       1.0  0.5027574479205297  0.8445412893075713  0.6116775152388314  1.0000
  C   C57       1.0  0.20962338076855494  0.16831135105644535  0.6201093161137835  1.0000
  C   C58       1.0  0.7903744200408126  0.831688792282137  0.3798891890916919  1.0000
  C   C59       1.0  0.7439521637818841  0.43692689754484354  0.5060012552988555  1.0000
  C   C60       1.0  0.2560449296443109  0.5630723422749924  0.49400098710184903  1.0000
  O   O1        1.0  0.1404645460054254  0.6635002609075331  0.7373273456075469  1.0000
  O   O2        1.0  0.8595367359686744  0.33649807833655393  0.26267349895127984  1.0000
  O   O3        1.0  0.4550373622079959  0.5998915006751134  0.6125912722543347  1.0000
  O   O4        1.0  0.5449646973655857  0.40010776402074555  0.3874119709052979  1.0000
  O   O5        1.0  0.3648214673645925  0.4968853493813797  0.7531790510385507  1.0000
  O   O6        1.0  0.6351775598291738  0.5031102378774364  0.24682141526900386  1.0000
  O   O7        1.0  0.018284906873873297  0.5141547836919215  0.8871553948477388  1.0000
  O   O8        1.0  0.9817131454538311  0.48584445038030577  0.11284404798224301  1.0000
  O   O9        1.0  0.811874241526439  0.5949811543625715  0.9364639639431974  1.0000
  O   O10       1.0  0.18812355928292845  0.40501898897600347  0.06353454126227825  1.0000
  O   O11       1.0  0.5665279383206823  0.012620663203627201  0.784723647675975  1.0000
  O   O12       1.0  0.4334733202479693  0.9873776687294514  0.21527515161749725  1.0000
  O   O13       1.0  0.6424924828693293  0.1208533849320617  0.6385824564696636  1.0000
  O   O14       1.0  0.3575107711595109  0.8791486058156297  0.36141510169545654  1.0000
  O   O15       1.0  0.31818395658439846  0.948274167928368  0.9760098276481344  1.0000
  O   O16       1.0  0.6818161146089139  0.05172873226948841  0.023990419318842302  1.0000
  O   O17       1.0  0.5608043123408206  0.6623754949041399  0.04387627459514217  1.0000
  O   O18       1.0  0.4391932759592834  0.33762556988580883  0.9561247017614041  1.0000
  O   O19       1.0  0.4833656983933067  0.7974159670012639  0.897591758095253  1.0000
  O   O20       1.0  0.516631607542159  0.2025823513672123  0.10240801315438122  1.0000
  O   O21       1.0  0.30286882041160357  0.1552394025840655  0.820167329174119  1.0000
  O   O22       1.0  0.6971329486345752  0.8447607591931147  0.17983156758542412  1.0000
  O   O23       1.0  0.22213165650514094  0.32081503141401413  0.8615319028147185  1.0000
  O   O24       1.0  0.7778725957952018  0.6791833198312747  0.13846872409332173  1.0000
  O   O25       1.0  0.8246443779458089  0.3335513766531335  0.07244325000083757  1.0000
  O   O26       1.0  0.17535717859110625  0.6664497065754205  0.9275581179097758  1.0000
  O   O27       1.0  0.7678382395000725  0.1608291603340462  0.1708037690304352  1.0000
  O   O28       1.0  0.23215905827263575  0.839172801537231  0.8291928609260215  1.0000
  O   O29       1.0  0.31255061929154937  0.298135605479331  0.432303499868894  1.0000
  O   O30       1.0  0.6874476997971538  0.7018663701403584  0.5676957845577635  1.0000
  O   O31       1.0  0.5512794984919506  0.10473994406209643  0.32677729736853695  1.0000
  O   O32       1.0  0.4487146168061854  0.8952592813195396  0.6732244809278356  1.0000
  O   O33       1.0  0.5556020889924723  0.14850944152021842  0.4627596203262173  1.0000
  O   O34       1.0  0.4443949657856052  0.8514861401747921  0.5372416728369702  1.0000
  O   O35       1.0  0.33706346125279646  0.16480338838068323  0.624491778722387  1.0000
  O   O36       1.0  0.662935291017206  0.8351931008334716  0.3755057046953141  1.0000
  O   O37       1.0  0.1586688367242742  0.08792645929104033  0.685387786733749  1.0000
  O   O38       1.0  0.8413302521621014  0.9120764393434231  0.31461321453860347  1.0000
  O   O39       1.0  0.6833251344466617  0.35535080201296415  0.5582509269644974  1.0000
  O   O40       1.0  0.3166746781484021  0.6446457131346222  0.44175261969897417  1.0000
  O   O41       1.0  0.6862805279367236  0.5486780700603691  0.46448943433270545  1.0000
  O   O42       1.0  0.31371681700780135  0.4513202604931196  0.5355137456925121  1.0000
  O   O43       1.0  0.43994206373506717  0.5746780092889098  0.8952519077346682  1.0000
  O   O44       1.0  0.5600578904310607  0.42532485435388884  0.10473811290557937  1.0000
  O   O45       1.0  0.47029727441536534  0.2960340979338483  0.7066771912209336  1.0000
  O   O46       1.0  0.5297030096481661  0.7039642348728281  0.2933230441330395  1.0000
