data_image0
_chemical_formula_structural       Co4H48C76N8O20
_chemical_formula_sum              "Co4 H48 C76 N8 O20"
_cell_length_a       5.848800951018821
_cell_length_b       15.648336789824324
_cell_length_c       22.571115573417888
_cell_angle_alpha    96.18910687318467
_cell_angle_beta     90.00079866812
_cell_angle_gamma    90.00185665054457

_space_group_name_H-M_alt    "P 1"
_space_group_IT_number       1

loop_
  _space_group_symop_operation_xyz
  'x, y, z'

loop_
  _atom_site_type_symbol
  _atom_site_label
  _atom_site_symmetry_multiplicity
  _atom_site_fract_x
  _atom_site_fract_y
  _atom_site_fract_z
  _atom_site_occupancy
  Co  Co1       1.0  0.37118765924017777  0.7614880398649787  0.8465322114933544  1.0000
  Co  Co2       1.0  0.8711734391494872  0.7385226791630758  0.653466038382213  1.0000
  Co  Co3       1.0  0.6288318716134073  0.23851714585622827  0.1534731594516501  1.0000
  Co  Co4       1.0  0.12884267208818298  0.26148581837365736  0.34652851769710946  1.0000
  H   H1        1.0  0.4023239251578303  0.9637324464521412  0.6879698574195815  1.0000
  H   H2        1.0  0.90229095872467  0.5362806566924901  0.8120220588386502  1.0000
  H   H3        1.0  0.5976597001977239  0.0362605810619314  0.3120283508969166  1.0000
  H   H4        1.0  0.0977542180873527  0.46372595969877756  0.1879670321642024  1.0000
  H   H5        1.0  0.0555402884294907  0.05558309896992599  0.7190359586198767  1.0000
  H   H6        1.0  0.5554629728187663  0.444438306878034  0.7809665989331691  1.0000
  H   H7        1.0  0.9444638545214942  0.9444175597699028  0.28097215628041283  1.0000
  H   H8        1.0  0.44457194536779815  0.5555637747296344  0.2190261215239389  1.0000
  H   H9        1.0  0.9521540304802231  0.8963043480388961  0.8617114646931653  1.0000
  H   H10       1.0  0.45209836972674106  0.6037054711687446  0.6382874795440898  1.0000
  H   H11       1.0  0.0478825971311352  0.1036841255076908  0.1382925869507972  1.0000
  H   H12       1.0  0.5479109029478693  0.3963107044288775  0.3617116701337864  1.0000
  H   H13       1.0  0.0986768112218925  0.1135053912076103  0.8781094649368627  1.0000
  H   H14       1.0  0.598537282056064  0.38648150565497724  0.6219299716349838  1.0000
  H   H15       1.0  0.9013871723653678  0.8864693725873494  0.1219174292781275  1.0000
  H   H16       1.0  0.40149592654918115  0.6135224729424847  0.3780664429944877  1.0000
  H   H17       1.0  0.4169458112620461  0.009307543624252899  0.8690202945201122  1.0000
  H   H18       1.0  0.9168380729895489  0.49069930576836635  0.6309692614538136  1.0000
  H   H19       1.0  0.583077138762384  0.9906905754546785  0.1309840755064755  1.0000
  H   H20       1.0  0.08319342615894242  0.5093104460870563  0.369028938096541  1.0000
  H   H21       1.0  0.29300685792141923  0.5764274823510006  0.871664772160095  1.0000
  H   H22       1.0  0.79296150094374  0.9235693680331708  0.6283338436740706  1.0000
  H   H23       1.0  0.7070195114613895  0.42357526940455154  0.1283248998180895  1.0000
  H   H24       1.0  0.2069793811396039  0.07642999690801129  0.37167505506660353  1.0000
  H   H25       1.0  0.49265302218925905  0.4700595527982686  0.9288419640230289  1.0000
  H   H26       1.0  0.9925909661441636  0.0299456247909546  0.5711552934365045  1.0000
  H   H27       1.0  0.507325473457712  0.5299284147087491  0.07114654072400131  1.0000
  H   H28       1.0  0.007250751271804701  0.9700756097124525  0.428853559380059  1.0000
  H   H29       1.0  0.8180902163773708  0.4298812173020606  0.9840712534413073  1.0000
  H   H30       1.0  0.3180360610129611  0.07013015266264938  0.5159187088991715  1.0000
  H   H31       1.0  0.18187973037677813  0.5700976454568971  0.015928494931827686  1.0000
  H   H32       1.0  0.681783429839605  0.9299125794186265  0.4840594981684276  1.0000
  H   H33       1.0  0.0404837928969215  0.6569214506560358  0.9597043904746486  1.0000
  H   H34       1.0  0.5404203622910372  0.8430998613951673  0.5402902772547478  1.0000
  H   H35       1.0  0.9595186395012901  0.3430566245837312  0.0403116887296378  1.0000
  H   H36       1.0  0.4594487109069618  0.15694370182080059  0.45966672901249694  1.0000
  H   H37       1.0  0.8223511014607395  0.7515220577371408  0.9021566607095224  1.0000
  H   H38       1.0  0.3223113399384019  0.7484950774742173  0.5978454455776047  1.0000
  H   H39       1.0  0.17768039743230446  0.24847013534628812  0.09786319139351461  1.0000
  H   H40       1.0  0.6776551886389369  0.25153101769296876  0.40212303039450603  1.0000
  H   H41       1.0  0.35288647767650627  0.0672683038529982  0.975979933668498  1.0000
  H   H42       1.0  0.8528335502574721  0.43271773213287906  0.5240156991519598  1.0000
  H   H43       1.0  0.6471450206137773  0.9327130011426944  0.0240346283559063  1.0000
  H   H44       1.0  0.14719623887449268  0.5672862346903855  0.475982043698238  1.0000
  H   H45       1.0  0.03471143431058721  0.16972294404731514  0.9849301583946612  1.0000
  H   H46       1.0  0.5346268754385122  0.33024704429836754  0.5151103470398013  1.0000
  H   H47       1.0  0.9653405803355354  0.8302331124503296  0.015102790847244297  1.0000
  H   H48       1.0  0.46540975250348277  0.6697537282551307  0.48488492839209835  1.0000
  C   C1        1.0  0.5556977147981429  0.8265817338710305  0.7450144937033158  1.0000
  C   C2        1.0  0.055687901590893284  0.6734345950727985  0.7549838288003343  1.0000
  C   C3        1.0  0.44430471814055744  0.17341967732706823  0.2549812751303548  1.0000
  C   C4        1.0  0.9443230806062813  0.3265783979747495  0.24501152521719402  1.0000
  C   C5        1.0  0.35597590232106296  0.8847930538206725  0.7590767049550351  1.0000
  C   C6        1.0  0.8559430591669964  0.6152226485655417  0.7409178902443827  1.0000
  C   C7        1.0  0.6440333691818695  0.11519610150625677  0.2409229699338411  1.0000
  C   C8        1.0  0.1440833108549953  0.3847929392054965  0.2590750103289849  1.0000
  C   C9        1.0  0.29819698978970877  0.9519058093654705  0.7262310704449177  1.0000
  C   C10       1.0  0.7981512748110972  0.548101407367099  0.7737666122142174  1.0000
  C   C11       1.0  0.7018020230948065  0.04808011632546539  0.2737701216707649  1.0000
  C   C12       1.0  0.20187851462706874  0.45191225208532165  0.22622613613571474  1.0000
  C   C13       1.0  0.10800568466947878  0.002178909474693601  0.7431466452173723  1.0000
  C   C14       1.0  0.607940453393823  0.49783483299367504  0.7568528579935716  1.0000
  C   C15       1.0  0.8920018772537829  0.9978114883094874  0.2568580013291353  1.0000
  C   C16       1.0  0.39209617507197697  0.5021794731999591  0.2431394983743189  1.0000
  C   C17       1.0  0.9825453148284992  0.9828223126559124  0.7925506375690716  1.0000
  C   C18       1.0  0.48245970881924893  0.5171917154161109  0.7074527473720593  1.0000
  C   C19       1.0  0.017465666883637695  0.017169939058653893  0.20746257333652812  1.0000
  C   C20       1.0  0.5175512732331667  0.48282133247595027  0.2925364082422917  1.0000
  C   C21       1.0  0.0491226456909786  0.9137986276448513  0.8235044605521722  1.0000
  C   C22       1.0  0.5490653935996761  0.586213133342291  0.6764917028488355  1.0000
  C   C23       1.0  0.9509054330747944  0.0861866084417215  0.1765019938090333  1.0000
  C   C24       1.0  0.4509472983082857  0.4137998753860188  0.3235018802006238  1.0000
  C   C25       1.0  0.7592420584940881  0.05901487088824101  0.8681198154863594  1.0000
  C   C26       1.0  0.2591079418200978  0.44098273567451685  0.6318865478955331  1.0000
  C   C27       1.0  0.24081337640573255  0.9409677119854506  0.1318957335718949  1.0000
  C   C28       1.0  0.7409218473863602  0.5590244724717053  0.3681083494730188  1.0000
  C   C29       1.0  0.9357852223876221  0.1035925965611568  0.8997957551108513  1.0000
  C   C30       1.0  0.4356576628698718  0.3963980944254786  0.6002298166257631  1.0000
  C   C31       1.0  0.06426508307902878  0.8963822063212277  0.10022671163918061  1.0000
  C   C32       1.0  0.5643755457043652  0.6036058959243817  0.3997652697744627  1.0000
  C   C33       1.0  0.5482980336103367  0.04624505223790721  0.8944777452371254  1.0000
  C   C34       1.0  0.0482031084644134  0.4537414922354087  0.6055286771101507  1.0000
  C   C35       1.0  0.4517556913888185  0.9537349712567218  0.10553627261166548  1.0000
  C   C36       1.0  0.9518403586053311  0.5462611969497286  0.3944680788000241  1.0000
  C   C37       1.0  0.45859576847261246  0.5907461836494861  0.8926008112713788  1.0000
  C   C38       1.0  0.9585327751760103  0.9092617579936758  0.6074015547991323  1.0000
  C   C39       1.0  0.5414254714547012  0.4092494504822212  0.10739361542714221  1.0000
  C   C40       1.0  0.04136194420954809  0.0907537231662019  0.3926032995090837  1.0000
  C   C41       1.0  0.5713777539892887  0.5322008775723716  0.9242186697459759  1.0000
  C   C42       1.0  0.0713100043671488  0.9678053430091254  0.5757815753980182  1.0000
  C   C43       1.0  0.4286434854990517  0.4677844603246867  0.0757762732779881  1.0000
  C   C44       1.0  0.9285573592641044  0.0322178787602425  0.4242207885682276  1.0000
  C   C45       1.0  0.7855479919187472  0.5533375422115369  0.9506720688971554  1.0000
  C   C46       1.0  0.2854891020881496  0.9466746514264983  0.5493263993162572  1.0000
  C   C47       1.0  0.21444589124801888  0.44663874957951316  0.0493274765597391  1.0000
  C   C48       1.0  0.7143816814823866  0.05336867675244859  0.4506571715402856  1.0000
  C   C49       1.0  0.9014878369365036  0.49243592448572565  0.9844188642099921  1.0000
  C   C50       1.0  0.4014145042691338  0.0075745376357474  0.5155762321084367  1.0000
  C   C51       1.0  0.09848039982885838  0.5075384505537457  0.015579200721710202  1.0000
  C   C52       1.0  0.5983844693651575  0.9924584585934042  0.48441183958217243  1.0000
  C   C53       1.0  0.875120136118035  0.6346577625889439  0.9420158500989474  1.0000
  C   C54       1.0  0.37505623978447744  0.8653619973669038  0.5579840151744406  1.0000
  C   C55       1.0  0.12488400586524759  0.3653210298737122  0.057991867734998016  1.0000
  C   C56       1.0  0.6248179629796978  0.1346775250800505  0.44199349556661355  1.0000
  C   C57       1.0  0.7536096515491123  0.6889769139099187  0.9091715918867465  1.0000
  C   C58       1.0  0.253571619284557  0.8110361228002815  0.5908308032090304  1.0000
  C   C59       1.0  0.2464218470887261  0.3110140680450685  0.09083974660971711  1.0000
  C   C60       1.0  0.746388070140128  0.18898152607975754  0.40914719616510814  1.0000
  C   C61       1.0  0.5143075427878969  0.0780057625540493  0.953847679802486  1.0000
  C   C62       1.0  0.014213853293952599  0.4219700678238638  0.5461573183170714  1.0000
  C   C63       1.0  0.4857513110200458  0.9219633141235731  0.0461676891267189  1.0000
  C   C64       1.0  0.9858210650634475  0.5780339107845051  0.4538390963166634  1.0000
  C   C65       1.0  0.6891905546812679  0.12239250616040916  0.9866064228428897  1.0000
  C   C66       1.0  0.18911706570930423  0.37758291720915343  0.5134067715023605  1.0000
  C   C67       1.0  0.31084778200733615  0.8775726823658018  0.013412183515875104  1.0000
  C   C68       1.0  0.8109127234297091  0.62242235476171  0.4865888591203956  1.0000
  C   C69       1.0  0.8997943058531206  0.1350427487295249  0.9590778123347548  1.0000
  C   C70       1.0  0.3997141769007014  0.36493842973977303  0.5409530679431782  1.0000
  C   C71       1.0  0.100249160404239  0.8649255910506498  0.04094813164608981  1.0000
  C   C72       1.0  0.6003019343228574  0.6350674575017476  0.45904571259102783  1.0000
  C   C73       1.0  0.6522237838849635  0.15664850644036932  0.049939126335374305  1.0000
  C   C74       1.0  0.15221419050859453  0.34334247659669614  0.4500692299650951  1.0000
  C   C75       1.0  0.34777009973181794  0.8433295765798121  0.9500760673614224  1.0000
  C   C76       1.0  0.8478053403231413  0.6566672947697326  0.5499267558399908  1.0000
  N   N1        1.0  0.5464511959366262  0.6686077088326384  0.8850396895696448  1.0000
  N   N2        1.0  0.046421223963740495  0.8314020389874626  0.6149620639992577  1.0000
  N   N3        1.0  0.4535751736078523  0.3313923660307835  0.1149617334958464  1.0000
  N   N4        1.0  0.953541884984986  0.16860775552393645  0.385031265206571  1.0000
  N   N5        1.0  0.23294246644036318  0.8664445158342104  0.8067974492879274  1.0000
  N   N6        1.0  0.7329004165912637  0.6335651021079157  0.6931979478197974  1.0000
  N   N7        1.0  0.7670685150894202  0.1335504206074205  0.1932031250441923  1.0000
  N   N8        1.0  0.2671174043691805  0.3664427526595872  0.3067965575198031  1.0000
  O   O1        1.0  0.6137255781490865  0.7791950061328877  0.7851163734046055  1.0000
  O   O2        1.0  0.113697497220187  0.7208200953073314  0.7148865137624796  1.0000
  O   O3        1.0  0.386305920622469  0.220804425983097  0.2148849989296977  1.0000
  O   O4        1.0  0.8863186141295643  0.27918901366982135  0.2851116350055065  1.0000
  O   O5        1.0  0.787463920078217  0.029379868034226302  0.8079646768539916  1.0000
  O   O6        1.0  0.28735064677919553  0.47065535636617273  0.692047426993021  1.0000
  O   O7        1.0  0.21259151555267414  0.9706200934080583  0.1920495858334448  1.0000
  O   O8        1.0  0.7126894011958456  0.5293569862516633  0.3079487618391994  1.0000
  O   O9        1.0  0.81474001716812  0.20069897803067957  0.0773666321652726  1.0000
  O   O10       1.0  0.31473551915956216  0.29929274531476574  0.4226477463959597  1.0000
  O   O11       1.0  0.18523334953376747  0.7992842941093629  0.922643654515241  1.0000
  O   O12       1.0  0.6852617845346741  0.7007080074006211  0.5773497426532544  1.0000
  O   O13       1.0  0.46583868822104074  0.14487698466382426  0.07653231256043111  1.0000
  O   O14       1.0  0.9658663163553598  0.35512971758075906  0.4234616976615229  1.0000
  O   O15       1.0  0.5341449371770467  0.8551114493700922  0.9234761663821588  1.0000
  O   O16       1.0  0.03416518306995191  0.6448890841236831  0.5765314566445809  1.0000
  O   O17       1.0  0.655527314186024  0.8280754529617196  0.6951283964768039  1.0000
  O   O18       1.0  0.15552144795895367  0.6719306262708996  0.8048641977934495  1.0000
  O   O19       1.0  0.3444563110884573  0.17191695135954188  0.304867547380276  1.0000
  O   O20       1.0  0.8444724368342095  0.3280849377881694  0.19513135915737934  1.0000
