data_image0
_chemical_formula_structural       Ni2H28C30N20O6
_chemical_formula_sum              "Ni2 H28 C30 N20 O6"
_cell_length_a       8.6488031195631
_cell_length_b       10.762508114281015
_cell_length_c       11.035829646289455
_cell_angle_alpha    82.88013625171963
_cell_angle_beta     69.76226257801535
_cell_angle_gamma    72.73925699192714

_space_group_name_H-M_alt    "P 1"
_space_group_IT_number       1

loop_
  _space_group_symop_operation_xyz
  'x, y, z'

loop_
  _atom_site_type_symbol
  _atom_site_label
  _atom_site_symmetry_multiplicity
  _atom_site_fract_x
  _atom_site_fract_y
  _atom_site_fract_z
  _atom_site_occupancy
  Ni  Ni1       1.0  0.3927250395078802  0.2571264440872412  0.2949654224161762  1.0000
  Ni  Ni2       1.0  0.6072748831099657  0.74287199234778  0.7050343520179397  1.0000
  H   H1        1.0  0.14575220741460979  0.17662932828097408  0.5800244159473777  1.0000
  H   H2        1.0  0.8542459898296358  0.8233739780040775  0.41997343383547303  1.0000
  H   H3        1.0  0.8031510848751963  0.14454124929246603  0.39667784736514017  1.0000
  H   H4        1.0  0.1968436358356556  0.8554649848804348  0.6033224199834065  1.0000
  H   H5        1.0  0.0881317404869506  0.20171891348794446  0.21251360109564396  1.0000
  H   H6        1.0  0.9118650128766818  0.7982814850613802  0.7874849981662139  1.0000
  H   H7        1.0  0.47929375105792354  0.5245886572709536  0.1344731025757895  1.0000
  H   H8        1.0  0.5207089819955968  0.47540879400029457  0.8655260156755347  1.0000
  H   H9        1.0  0.945411762832286  0.6999913204176095  0.2487338457322679  1.0000
  H   H10       1.0  0.054590094641334005  0.30000515987255477  0.7512674436275333  1.0000
  H   H11       1.0  0.007587573274278643  0.44512775416586703  0.3475218591022369  1.0000
  H   H12       1.0  0.9924148610899618  0.5548706610161104  0.6524817559025494  1.0000
  H   H13       1.0  0.2817562229730727  0.523701629301726  0.4501980720743504  1.0000
  H   H14       1.0  0.7182458268029207  0.476297768419272  0.5498009995288697  1.0000
  H   H15       1.0  0.30579553755578803  0.5252758847049819  0.6942730487316808  1.0000
  H   H16       1.0  0.694208088257419  0.4747225338216977  0.3057257064421677  1.0000
  H   H17       1.0  0.4746726422741575  0.1369102966591456  0.5670905928078156  1.0000
  H   H18       1.0  0.5253313165879092  0.8630871505054926  0.43290728167458065  1.0000
  H   H19       1.0  0.8664028464495316  0.1276015761306724  0.6101555841304532  1.0000
  H   H20       1.0  0.13359434305822043  0.8724046461033341  0.38984400371124645  1.0000
  H   H21       1.0  0.2379374114606421  0.7326402663737636  0.12628637770827575  1.0000
  H   H22       1.0  0.7620600337704103  0.2673581838629885  0.8737131722171868  1.0000
  H   H23       1.0  0.40524205196768304  0.2897781429373082  0.7558043726427996  1.0000
  H   H24       1.0  0.5947631498827379  0.7102192963950458  0.2441940661016701  1.0000
  H   H25       1.0  0.36188797461203137  0.25983456668770794  0.055708772845271384  1.0000
  H   H26       1.0  0.6381082619902612  0.7401638839299948  0.9442938288801346  1.0000
  H   H27       1.0  0.5343782232662095  0.15912613089770386  0.06163206863968898  1.0000
  H   H28       1.0  0.4656211568206102  0.8408703631941916  0.938368996211459  1.0000
  C   C1        1.0  0.6778875703067868  0.012642400689266295  0.2642284225154228  1.0000
  C   C2        1.0  0.3221085255490053  0.9873599387213117  0.7357728421448401  1.0000
  C   C3        1.0  0.9270085073667715  0.9801519964011616  0.09269103428980686  1.0000
  C   C4        1.0  0.07298654639293999  0.01985326640969729  0.9073083523672948  1.0000
  C   C5        1.0  0.11061151448553382  0.9447189797723463  0.019689744034543807  1.0000
  C   C6        1.0  0.889379503029957  0.05528727230889529  0.9803115425742774  1.0000
  C   C7        1.0  0.7567685831795642  0.310600393282165  0.14771292831425598  1.0000
  C   C8        1.0  0.2432424404344573  0.6893979912906545  0.8522828843235359  1.0000
  C   C9        1.0  0.9599162799443876  0.4179045623941988  0.03862962777900939  1.0000
  C   C10       1.0  0.040087388818307125  0.5820938468183242  0.9613736474723568  1.0000
  C   C11       1.0  0.12752008438756954  0.44328394784517394  0.9744004940941551  1.0000
  C   C12       1.0  0.872485169002232  0.5567134803102006  0.025603368743340047  1.0000
  C   C13       1.0  0.09419904827291252  0.17861054648763283  0.5033270132868779  1.0000
  C   C14       1.0  0.9057994991999863  0.8213917847097106  0.49667176383552913  1.0000
  C   C15       1.0  0.9164780379359385  0.16031389211404698  0.4059518609146693  1.0000
  C   C16       1.0  0.08351769910130005  0.8396894242470692  0.5940475723905365  1.0000
  C   C17       1.0  0.05835983052172366  0.1891254179845703  0.3161002061556958  1.0000
  C   C18       1.0  0.9416369400217022  0.810874976839095  0.6839002011371633  1.0000
  C   C19       1.0  0.34328052310667073  0.5346257644234527  0.18006251336787932  1.0000
  C   C20       1.0  0.6567231027065362  0.4653726541032269  0.819936241805962  1.0000
  C   C21       1.0  0.06323022189280188  0.6250923175760119  0.24271012388199859  1.0000
  C   C22       1.0  0.936772186701745  0.37490610319445483  0.7572907790762784  1.0000
  C   C23       1.0  0.09625759692699619  0.4988211513529707  0.2891414752303946  1.0000
  C   C24       1.0  0.9037460546559044  0.5011772615852123  0.7108599919899562  1.0000
  C   C25       1.0  0.3242998961379798  0.4433588020153109  0.5109233635432986  1.0000
  C   C26       1.0  0.675702162227907  0.5566405938428642  0.4890766120754221  1.0000
  C   C27       1.0  0.333889319581644  0.4458582829502048  0.632042435872613  1.0000
  C   C28       1.0  0.6661115043857964  0.5541411188774105  0.3679578794995279  1.0000
  C   C29       1.0  0.42587053560041704  0.2421616036636181  0.5664126266582841  1.0000
  C   C30       1.0  0.5741311639469158  0.7578387691450886  0.43358551760537273  1.0000
  N   N1        1.0  0.5330660758705221  0.062237878153212  0.3239204331999446  1.0000
  N   N2        1.0  0.4669354227845445  0.9377595790874906  0.6760790248047998  1.0000
  N   N3        1.0  0.8394004601485175  0.9546854460947712  0.2135829884635782  1.0000
  N   N4        1.0  0.16059161665933888  0.04532469626122548  0.7864130052646702  1.0000
  N   N5        1.0  0.6207975006652402  0.29644698634073313  0.20834344183590053  1.0000
  N   N6        1.0  0.3791988337340583  0.703547584798251  0.7916559768771165  1.0000
  N   N7        1.0  0.9148264865441716  0.31011037932935176  0.08611285235354418  1.0000
  N   N8        1.0  0.08517469624182185  0.6898880455477322  0.9138892943736608  1.0000
  N   N9        1.0  0.16701227468359994  0.20161050893943158  0.3783048971085705  1.0000
  N   N10       1.0  0.8329885406939398  0.7983888947510136  0.6216945142480698  1.0000
  N   N11       1.0  0.9418234020266284  0.15422244812481267  0.5236966414438482  1.0000
  N   N12       1.0  0.05817200196174352  0.8457818395983377  0.4763036725528096  1.0000
  N   N13       1.0  0.2710202379542751  0.4432326119913339  0.2491704064876643  1.0000
  N   N14       1.0  0.7289853313046066  0.5567638485276589  0.7508307676273703  1.0000
  N   N15       1.0  0.22042807398383238  0.6459770516805747  0.17496045350502953  1.0000
  N   N16       1.0  0.7795730830324742  0.3540213787849993  0.8250389811756592  1.0000
  N   N17       1.0  0.3813376162998239  0.31620867391585245  0.47116057568468506  1.0000
  N   N18       1.0  0.6186653004661693  0.6837916966490595  0.5288354207945432  1.0000
  N   N19       1.0  0.3980348469237144  0.3183416256066208  0.6657124279030598  1.0000
  N   N20       1.0  0.6019668612135122  0.6816587453392557  0.3342866203761047  1.0000
  O   O1        1.0  0.24405423204037652  0.8793593570159925  0.043362507780656805  1.0000
  O   O2        1.0  0.7559377674419209  0.12064398470478468  0.9566343287228065  1.0000
  O   O3        1.0  0.2815380439481955  0.3771811563100512  0.9429409126015927  1.0000
  O   O4        1.0  0.7184675339005794  0.6228153023461117  0.0570611655289425  1.0000
  O   O5        1.0  0.41123796673051777  0.19208305579633833  0.1117771725350138  1.0000
  O   O6        1.0  0.5887589617391953  0.8079134465087987  0.8882263798539968  1.0000
