data_image0
_chemical_formula_structural       Cd2H24C28O14
_chemical_formula_sum              "Cd2 H24 C28 O14"
_cell_length_a       5.7453655475945
_cell_length_b       7.714895413741678
_cell_length_c       16.230426653446912
_cell_angle_alpha    103.71366230426774
_cell_angle_beta     100.23739508681189
_cell_angle_gamma    89.9809356925946

_space_group_name_H-M_alt    "P 1"
_space_group_IT_number       1

loop_
  _space_group_symop_operation_xyz
  'x, y, z'

loop_
  _atom_site_type_symbol
  _atom_site_label
  _atom_site_symmetry_multiplicity
  _atom_site_fract_x
  _atom_site_fract_y
  _atom_site_fract_z
  _atom_site_occupancy
  Cd  Cd1       1.0  0.928564987490965  0.8083189103249993  0.5000613395847608  1.0000
  Cd  Cd2       1.0  0.428203262305516  0.19223175921283803  0.5000929894196133  1.0000
  H   H1        1.0  0.4380108428565562  0.7321213861441294  0.7165544061884503  1.0000
  H   H2        1.0  0.7189280503825161  0.26697059114081156  0.2827436909288181  1.0000
  H   H3        1.0  0.21923061571277463  0.5151791820519876  0.2830077576368879  1.0000
  H   H4        1.0  0.9371326095855679  0.48502045662924337  0.7167974444215303  1.0000
  H   H5        1.0  0.3512480030857716  0.789228912740697  0.8659801163468543  1.0000
  H   H6        1.0  0.4836616367820242  0.20878264538255567  0.1330971824727456  1.0000
  H   H7        1.0  0.9840106603603332  0.4233356020550687  0.13334236025819726  1.0000
  H   H8        1.0  0.8509032365972686  0.5769303234841914  0.8662700499018214  1.0000
  H   H9        1.0  0.0792703466115796  0.05964277142462751  0.812610087671402  1.0000
  H   H10       1.0  0.2668377977860672  0.941080087247329  0.18783928033076336  1.0000
  H   H11       1.0  0.7662544658450442  0.7464244803297433  0.1878141684178871  1.0000
  H   H12       1.0  0.5790604271629788  0.2534655401773022  0.8126172122905615  1.0000
  H   H13       1.0  0.9886020896887471  0.12520063298687492  0.9612659322278956  1.0000
  H   H14       1.0  0.02860872582084541  0.8746809884378454  0.03888273417668134  1.0000
  H   H15       1.0  0.5280337693698556  0.6636769352366446  0.03889608431005342  1.0000
  H   H16       1.0  0.4888148502740676  0.33599449550569466  0.9613417923411445  1.0000
  H   H17       1.0  0.37926500712460853  0.8161264023834532  0.4499425881584145  1.0000
  H   H18       1.0  0.9294147255722081  0.18433661064275242  0.5504120061813111  1.0000
  H   H19       1.0  0.42980967117718905  0.8665587102037124  0.5505324266343337  1.0000
  H   H20       1.0  0.8788029477704101  0.13419490626868216  0.4498084943716236  1.0000
  H   H21       1.0  0.120014411236383  0.4994224304051615  0.5496712128427818  1.0000
  H   H22       1.0  0.5700203597848271  0.5009642301909382  0.4504572813800607  1.0000
  H   H23       1.0  0.06999487447503581  0.44993741428134376  0.4502995330213437  1.0000
  H   H24       1.0  0.6207002581413192  0.5502205013037197  0.5498212153079649  1.0000
  C   C1        1.0  0.8167985632817789  0.8583109099371455  0.6666655606973748  1.0000
  C   C2        1.0  0.1482778337213091  0.14225294501589766  0.33343208166376564  1.0000
  C   C3        1.0  0.6477218363275838  0.6913927870571542  0.3335570211402228  1.0000
  C   C4        1.0  0.3157257687589023  0.30895155053634943  0.6667147199498371  1.0000
  C   C5        1.0  0.7662039103885759  0.8905989903689006  0.7554895150658325  1.0000
  C   C6        1.0  0.009548683457630604  0.10948339951764302  0.2444041732315938  1.0000
  C   C7        1.0  0.5092715239633634  0.6346551182422074  0.24451081169175376  1.0000
  C   C8        1.0  0.2657053328712706  0.36542078853951665  0.7556171720163434  1.0000
  C   C9        1.0  0.6647701805422557  0.9590978613763711  0.9215963708423232  1.0000
  C   C10       1.0  0.7428948512221821  0.03968747613765089  0.07800108416968499  1.0000
  C   C11       1.0  0.2427430554652545  0.5376084749666675  0.0781554885024036  1.0000
  C   C12       1.0  0.1645891963514501  0.4624503366843556  0.9217656705097782  1.0000
  C   C13       1.0  0.5603219049044411  0.814888172731372  0.7705294522608881  1.0000
  C   C14       1.0  0.788122152732818  0.18444288247485477  0.22897305027539966  1.0000
  C   C15       1.0  0.2881945166009602  0.5439254318050504  0.229161724598967  1.0000
  C   C16       1.0  0.0597670910881902  0.456149416228989  0.7707332608666917  1.0000
  C   C17       1.0  0.5105082831532001  0.8469871592948196  0.8533813540704216  1.0000
  C   C18       1.0  0.6559827409937711  0.15170016434049677  0.1459828016361939  1.0000
  C   C19       1.0  0.15610522561516402  0.4934537911669922  0.1461816773119509  1.0000
  C   C20       1.0  0.010231009774671005  0.5066562794820159  0.8536223944028831  1.0000
  C   C21       1.0  0.9211806725152414  0.9999637641413772  0.8249399582645722  1.0000
  C   C22       1.0  0.09605054354000227  0.0002931536854831  0.1751885633681525  1.0000
  C   C23       1.0  0.5956661773643361  0.674499041147925  0.17523091273984193  1.0000
  C   C24       1.0  0.42093733295238417  0.32539165902813494  0.8250192175268368  1.0000
  C   C25       1.0  0.8711907755455286  0.03599942877362851  0.908039988800354  1.0000
  C   C26       1.0  0.9635470510873532  0.9636625806103114  0.09192294444416398  1.0000
  C   C27       1.0  0.46319058936023083  0.6276676538846858  0.09197547141516083  1.0000
  C   C28       1.0  0.3711977437697627  0.3721302687770135  0.9081588858829903  1.0000
  O   O1        1.0  0.3262150442466023  0.8997260307852245  0.5002256850777016  1.0000
  O   O2        1.0  0.8259488534190281  0.1008692033798368  0.5001159877598412  1.0000
  O   O3        1.0  0.013296457326383408  0.9096963233193807  0.653410508003617  1.0000
  O   O4        1.0  0.3582987418745062  0.09117971164526043  0.3470353815109704  1.0000
  O   O5        1.0  0.8575992492014705  0.7562735750534842  0.3471256707841377  1.0000
  O   O6        1.0  0.512378189728807  0.24456482968138726  0.6533652654974914  1.0000
  O   O7        1.0  0.6542578922169895  0.7754125489476422  0.6032797779339987  1.0000
  O   O8        1.0  0.048426383396019894  0.22518870635636293  0.3965125649087895  1.0000
  O   O9        1.0  0.5477751161865357  0.6717305384236312  0.39665898876899053  1.0000
  O   O10       1.0  0.1527726723699843  0.328349767081285  0.6034124979373416  1.0000
  O   O11       1.0  0.11982736636591078  0.5535191287915991  0.4999912746776758  1.0000
  O   O12       1.0  0.619967136946144  0.4466651782064374  0.5000686893458592  1.0000
  O   O13       1.0  0.5882067119299067  0.9989038649768032  0.999755758977109  1.0000
  O   O14       1.0  0.0880164285279932  0.5001582040874624  0.9999229430492421  1.0000
