data_image0
_chemical_formula_structural       Rb4H8C8N24O8
_chemical_formula_sum              "Rb4 H8 C8 N24 O8"
_cell_length_a       5.070346012034039
_cell_length_b       9.030466726420665
_cell_length_c       14.521547993779555
_cell_angle_alpha    106.83232870290026
_cell_angle_beta     89.9996522754889
_cell_angle_gamma    89.99988531883913

_space_group_name_H-M_alt    "P 1"
_space_group_IT_number       1

loop_
  _space_group_symop_operation_xyz
  'x, y, z'

loop_
  _atom_site_type_symbol
  _atom_site_label
  _atom_site_symmetry_multiplicity
  _atom_site_fract_x
  _atom_site_fract_y
  _atom_site_fract_z
  _atom_site_occupancy
  Rb  Rb1       1.0  0.7039283435534857  0.4674656910662022  0.12954437795015392  1.0000
  Rb  Rb2       1.0  0.2039295841249924  0.0325368430919397  0.37045357635651754  1.0000
  Rb  Rb3       1.0  0.2960778954797051  0.5325380597933177  0.8704535641188187  1.0000
  Rb  Rb4       1.0  0.7960766548893761  0.9674635246429092  0.629547230429978  1.0000
  H   H1        1.0  0.1962855630013678  0.37262465323765787  0.2527509851880013  1.0000
  H   H2        1.0  0.6962854395007626  0.127376811952054  0.24724955758384945  1.0000
  H   H3        1.0  0.8037147592496441  0.627378028100175  0.7472502174492491  1.0000
  H   H4        1.0  0.3037188272524602  0.8726189984085764  0.7527532243046481  1.0000
  H   H5        1.0  0.1991779058569279  0.5648200804186914  0.3248138766946554  1.0000
  H   H6        1.0  0.6991759909535561  0.9351808108079283  0.17518462283837274  1.0000
  H   H7        1.0  0.8008224164604131  0.43517667729816617  0.6751808027630163  1.0000
  H   H8        1.0  0.3008302480317795  0.0648230796825402  0.8248188528022453  1.0000
  C   C1        1.0  0.9055024646184864  0.43106415848423296  0.3536324622251855  1.0000
  C   C2        1.0  0.4054936305792012  0.0689379355239765  0.1463663585691322  1.0000
  C   C3        1.0  0.09449588537825092  0.5689373835117806  0.6463692341894642  1.0000
  C   C4        1.0  0.5945027471789147  0.9310612754244901  0.8536342503084171  1.0000
  C   C5        1.0  0.5887065339207994  0.46331419165447574  0.46141511364767507  1.0000
  C   C6        1.0  0.0887055824867176  0.0366864051880142  0.03858689047302731  1.0000
  C   C7        1.0  0.4112740658034681  0.536685071674185  0.5385875703394732  1.0000
  C   C8        1.0  0.9112888230465117  0.9633173107777112  0.9614096682182026  1.0000
  N   N1        1.0  0.7753231791790612  0.5421996400479897  0.4235656653062564  1.0000
  N   N2        1.0  0.2753220993435761  0.9577988279380704  0.07643500990084821  1.0000
  N   N3        1.0  0.2246672817917741  0.4578019543189313  0.5764381062078741  1.0000
  N   N4        1.0  0.724674278457819  0.0421979646911765  0.9235610529547954  1.0000
  N   N5        1.0  0.680627336389982  0.7662902174559819  0.39454020811457013  1.0000
  N   N6        1.0  0.1806304727829158  0.7337095781404983  0.10545883275806743  1.0000
  N   N7        1.0  0.31937298587299523  0.2337124289741084  0.6054596111297741  1.0000
  N   N8        1.0  0.8193757662508006  0.2662884410906018  0.8945401947923415  1.0000
  N   N9        1.0  0.8039869947034715  0.2923051642196057  0.34833122082009293  1.0000
  N   N10       1.0  0.30398942540281126  0.20769369863280226  0.15166726652205406  1.0000
  N   N11       1.0  0.19601135528358785  0.7076975520282857  0.6516713652126  1.0000
  N   N12       1.0  0.6960128691246439  0.7923031812588163  0.8483322548082841  1.0000
  N   N13       1.0  0.0941558926124912  0.4651182604303941  0.29767423366145357  1.0000
  N   N14       1.0  0.5941667218048465  0.0348834279915735  0.20232587930198787  1.0000
  N   N15       1.0  0.9058365406513288  0.5348797762708486  0.7023254856031118  1.0000
  N   N16       1.0  0.40583951721180983  0.9651180790874105  0.7976744337096309  1.0000
  N   N17       1.0  0.6044398349167892  0.3137642148629993  0.41614391657564914  1.0000
  N   N18       1.0  0.1044415342113112  0.1862363274422805  0.08385735549860132  1.0000
  N   N19       1.0  0.39555457058335713  0.6862350135416548  0.5838573840008863  1.0000
  N   N20       1.0  0.8955647048039382  0.813767475778846  0.9161426616597341  1.0000
  N   N21       1.0  0.8296266901919651  0.6994942398242899  0.4473366144551252  1.0000
  N   N22       1.0  0.329632477553318  0.8005040652635176  0.052662538093933675  1.0000
  N   N23       1.0  0.17037560432071072  0.30050726725934135  0.5526636985615597  1.0000
  N   N24       1.0  0.6703796782437409  0.1994916403646059  0.9473360936057136  1.0000
  O   O1        1.0  0.5186844291562878  0.6945410373881346  0.33035986077936746  1.0000
  O   O2        1.0  0.018682269592936503  0.8054614534773634  0.16963999123082377  1.0000
  O   O3        1.0  0.48131786535867604  0.3054616090396323  0.6696399584624403  1.0000
  O   O4        1.0  0.9813239694416608  0.1945400012400142  0.8303582466914323  1.0000
  O   O5        1.0  0.7106584037063399  0.9116689601547207  0.4135451554601418  1.0000
  O   O6        1.0  0.21066039524579594  0.5883307646659475  0.08645380840206944  1.0000
  O   O7        1.0  0.2893438908086239  0.088333686273053  0.5864546637816659  1.0000
  O   O8        1.0  0.7893399270356481  0.4116660977741233  0.9135450212343416  1.0000
