data_image0
_chemical_formula_structural       Rb6H6C6N24
_chemical_formula_sum              "Rb6 H6 C6 N24"
_cell_length_a       8.246637478791376
_cell_length_b       8.24666638773609
_cell_length_c       11.263016558047847
_cell_angle_alpha    89.99966497171458
_cell_angle_beta     90.000141111163
_cell_angle_gamma    120.00033456777557

_space_group_name_H-M_alt    "P 1"
_space_group_IT_number       1

loop_
  _space_group_symop_operation_xyz
  'x, y, z'

loop_
  _atom_site_type_symbol
  _atom_site_label
  _atom_site_symmetry_multiplicity
  _atom_site_fract_x
  _atom_site_fract_y
  _atom_site_fract_z
  _atom_site_occupancy
  Rb  Rb1       1.0  0.6666666858134604  0.3333330936760818  0.0324849642001794  1.0000
  Rb  Rb2       1.0  0.3333321255434711  0.6666654554255872  0.5324849853026806  1.0000
  Rb  Rb3       1.0  0.3333317616907506  0.6666662549981625  0.9675158648849873  1.0000
  Rb  Rb4       1.0  0.6666670220649991  0.3333331931533652  0.46751495592302933  1.0000
  Rb  Rb5       1.0  0.0  0.0  0.0  1.0000
  Rb  Rb6       1.0  3.938544993587421e-07  0.9999998490361224  0.4999997730632515  1.0000
  H   H1        1.0  0.40597076072400257  0.3634596799803731  0.7499975928056272  1.0000
  H   H2        1.0  0.6365350812818845  0.04250378825639704  0.7499958292795839  1.0000
  H   H3        1.0  0.957488630131429  0.5940291287444381  0.749993154656842  1.0000
  H   H4        1.0  0.36346387873929586  0.9574974731348861  0.2500049998019236  1.0000
  H   H5        1.0  0.04250911727103813  0.4059709200510113  0.25000234725653303  1.0000
  H   H6        1.0  0.5940348251608895  0.636539806038215  0.25000678773213286  1.0000
  C   C1        1.0  0.3733713818277521  0.218694454932013  0.7499987632586597  1.0000
  C   C2        1.0  0.7812990677797557  0.15467215130357917  0.750000157566987  1.0000
  C   C3        1.0  0.845323834937474  0.6266286035061269  0.7500009738347374  1.0000
  C   C4        1.0  0.21869760434385913  0.8453338232118031  0.24999800791746907  1.0000
  C   C5        1.0  0.15467461256601198  0.3733707451607202  0.2500016309736496  1.0000
  C   C6        1.0  0.6266368168890534  0.7813048435399279  0.24999762652738874  1.0000
  N   N1        1.0  0.34947553957228905  0.11816808203501948  0.8488401519446783  1.0000
  N   N2        1.0  0.8818246176321193  0.23130265980722697  0.8488403889166278  1.0000
  N   N3        1.0  0.7686933070919791  0.6505239320718915  0.8488411588418359  1.0000
  N   N4        1.0  0.11817388711789086  0.7687030032564195  0.34884371519363816  1.0000
  N   N5        1.0  0.23130436021030212  0.34947529273426164  0.3488447210047667  1.0000
  N   N6        1.0  0.6505294537001303  0.8818286673253583  0.3488430643290529  1.0000
  N   N7        1.0  0.650531258935629  0.8818326166238107  0.15115890142190844  1.0000
  N   N8        1.0  0.11817154197417046  0.7687014019874211  0.1511586644330976  1.0000
  N   N9        1.0  0.23130514041222475  0.34947541660235265  0.151159670243338  1.0000
  N   N10       1.0  0.8818260979375834  0.23130208357262208  0.651156226018948  1.0000
  N   N11       1.0  0.7686940872939017  0.6505240559399822  0.6511561080804071  1.0000
  N   N12       1.0  0.3494742194625076  0.11817030620008503  0.6511551011768192  1.0000
  N   N13       1.0  0.3081384345688463  0.9469288894584765  0.8086892263005792  1.0000
  N   N14       1.0  0.05306387837850214  0.361205803028831  0.8086902584153678  1.0000
  N   N15       1.0  0.6387879897710745  0.691856682504181  0.8086891868871505  1.0000
  N   N16       1.0  0.9469352216689655  0.6387923562908709  0.3086920903743504  1.0000
  N   N17       1.0  0.36120971006823055  0.3081428770098143  0.3086940497598932  1.0000
  N   N18       1.0  0.6918570276163648  0.05306563201081351  0.30869223463208334  1.0000
  N   N19       1.0  0.6918602005230098  0.05306784640714565  0.1913098270671725  1.0000
  N   N20       1.0  0.946935269229968  0.6387928455501212  0.191309682810342  1.0000
  N   N21       1.0  0.36121045773312915  0.30814266617007036  0.19131164219802338  1.0000
  N   N22       1.0  0.05306583866427415  0.3612068048071251  0.6913078508519775  1.0000
  N   N23       1.0  0.6387880373320697  0.6918571717634309  0.691306779323135  1.0000
  N   N24       1.0  0.3081389946468177  0.9469312914347583  0.6913068187329047  1.0000
