data_image0
_chemical_formula_structural       Zn8H128C192N8O40
_chemical_formula_sum              "Zn8 H128 C192 N8 O40"
_cell_length_a       13.947850390118854
_cell_length_b       16.353255512752828
_cell_length_c       24.5203321830034
_cell_angle_alpha    89.99997244670882
_cell_angle_beta     90.00006024557034
_cell_angle_gamma    114.0684317019395

_space_group_name_H-M_alt    "P 1"
_space_group_IT_number       1

loop_
  _space_group_symop_operation_xyz
  'x, y, z'

loop_
  _atom_site_type_symbol
  _atom_site_label
  _atom_site_symmetry_multiplicity
  _atom_site_fract_x
  _atom_site_fract_y
  _atom_site_fract_z
  _atom_site_occupancy
  Zn  Zn1       1.0  0.017809220861373442  0.7039831310422998  0.3386510958873926  1.0000
  Zn  Zn2       1.0  0.4821884831297751  0.7960162808931205  0.8386526028365465  1.0000
  Zn  Zn3       1.0  0.9821878913102465  0.29601637955499893  0.6613473225263957  1.0000
  Zn  Zn4       1.0  0.517811737993668  0.2039852432996057  0.1613482625267579  1.0000
  Zn  Zn5       1.0  0.8890905678687274  0.4826306090046658  0.33770850082536435  1.0000
  Zn  Zn6       1.0  0.6109101776311051  0.017369660729713104  0.837710282896765  1.0000
  Zn  Zn7       1.0  0.11090797962368262  0.5173689045415485  0.6622915488881275  1.0000
  Zn  Zn8       1.0  0.38909506711107866  0.9826318737844062  0.16229180594248754  1.0000
  H   H1        1.0  0.1396794358473485  0.8307645707868972  0.2569931644309449  1.0000
  H   H2        1.0  0.3603178825035726  0.6692328411469362  0.7569917843630307  1.0000
  H   H3        1.0  0.860319191990982  0.16923360478576652  0.7430068852827886  1.0000
  H   H4        1.0  0.6396832169702548  0.3307660085732493  0.24300785752650705  1.0000
  H   H5        1.0  0.16364940888861676  0.9765765924473018  0.21494396259490134  1.0000
  H   H6        1.0  0.33634815225543946  0.5234214931734087  0.714943838386759  1.0000
  H   H7        1.0  0.836350972925544  0.023422255798386995  0.7850556792944231  1.0000
  H   H8        1.0  0.6636523099057355  0.47657601709867964  0.28505702697726315  1.0000
  H   H9        1.0  0.9135064802861874  0.9754958194206722  0.3202319122617324  1.0000
  H   H10       1.0  0.5864937667355932  0.5245054806991761  0.8202316383252608  1.0000
  H   H11       1.0  0.0864945388409879  0.024504368273099403  0.6797669139779356  1.0000
  H   H12       1.0  0.4135073327400746  0.47549336902091  0.17977004268836783  1.0000
  H   H13       1.0  0.9019045185424088  0.8299982470851361  0.3573468452765027  1.0000
  H   H14       1.0  0.5980937228094945  0.670001707139761  0.8573473473102097  1.0000
  H   H15       1.0  0.09809339163589212  0.16999992701305902  0.6426527966121893  1.0000
  H   H16       1.0  0.4019072963191518  0.3299984805539323  0.14265311022872135  1.0000
  H   H17       1.0  0.1165307272685396  0.10009867604377122  0.20854858012600624  1.0000
  H   H18       1.0  0.3834679265961043  0.39989972088940823  0.7085487712951559  1.0000
  H   H19       1.0  0.8834691751965521  0.8999021784250161  0.7914506539380424  1.0000
  H   H20       1.0  0.6165334111905167  0.6001011365282451  0.2914529097182168  1.0000
  H   H21       1.0  0.9782114964612559  0.11814819398095008  0.3018281584021593  1.0000
  H   H22       1.0  0.5217878293284811  0.38185073821252047  0.8018281391157557  1.0000
  H   H23       1.0  0.0217888853529045  0.8818506542647382  0.6981714834871654  1.0000
  H   H24       1.0  0.47821151617061713  0.618147438834576  0.19817313407263978  1.0000
  H   H25       1.0  0.13652065372723846  0.22651422951242486  0.17308452753714929  1.0000
  H   H26       1.0  0.36347937147313286  0.2734841737120207  0.6730851550820487  1.0000
  H   H27       1.0  0.8634790907724363  0.7734832792852586  0.8269142987025686  1.0000
  H   H28       1.0  0.63652132899864  0.7265153442576492  0.3269153024568965  1.0000
  H   H29       1.0  0.19817352734884955  0.38647754576881255  0.15418428699548056  1.0000
  H   H30       1.0  0.301827899069707  0.1135208621859505  0.6541832976312489  1.0000
  H   H31       1.0  0.8018247818314989  0.6135199600798913  0.8458145392438038  1.0000
  H   H32       1.0  0.6981735190598855  0.8864786572583087  0.3458151207838256  1.0000
  H   H33       1.0  0.05278328744827112  0.4226765527691541  0.30209740517967276  1.0000
  H   H34       1.0  0.4472152165386517  0.0773211656235588  0.8020965143370159  1.0000
  H   H35       1.0  0.9472139050696239  0.5773216198545867  0.6979014210591712  1.0000
  H   H36       1.0  0.5527838103017328  0.9226763416996207  0.1979027197273027  1.0000
  H   H37       1.0  0.9907433874650804  0.2604120549371913  0.3220089426327064  1.0000
  H   H38       1.0  0.5092535834454992  0.23958486323325454  0.8220097770826127  1.0000
  H   H39       1.0  0.009253805052075788  0.7395861176865851  0.6779890679565097  1.0000
  H   H40       1.0  0.4907440884225736  0.7604113031673309  0.1779906804559701  1.0000
  H   H41       1.0  0.1452830978727348  0.5465206488590083  0.25304791435467416  1.0000
  H   H42       1.0  0.35471596733667327  0.9534774361196339  0.7530468476936248  1.0000
  H   H43       1.0  0.8547144936479539  0.4534768555152056  0.7469509118843973  1.0000
  H   H44       1.0  0.645283696816719  0.04652141065162141  0.2469515707210377  1.0000
  H   H45       1.0  0.22794412830959487  0.5287795031548371  0.1387603384975122  1.0000
  H   H46       1.0  0.27205783965254676  0.9712206061903642  0.6387592167323247  1.0000
  H   H47       1.0  0.7720589634513928  0.47122202693591936  0.861239303392196  1.0000
  H   H48       1.0  0.7279435784781542  0.028778913253837902  0.3612404251572059  1.0000
  H   H49       1.0  0.3578889078879185  0.8337975241643535  0.08258653810460709  1.0000
  H   H50       1.0  0.14210769679800697  0.666200572455878  0.582586252021393  1.0000
  H   H51       1.0  0.6421065306552548  0.1661999757862986  0.9174139194330875  1.0000
  H   H52       1.0  0.8578923663600191  0.33379760606575093  0.4174142055175807  1.0000
  H   H53       1.0  0.29083590054464986  0.6667129140571149  0.0858577076879214  1.0000
  H   H54       1.0  0.20916134735645625  0.8332865217028882  0.5858570003371639  1.0000
  H   H55       1.0  0.7091597763098461  0.3332865935910832  0.9141431576743457  1.0000
  H   H56       1.0  0.7908383167984069  0.1667123250682891  0.4141430493767614  1.0000
  H   H57       1.0  0.22779710230833675  0.683945735650582  0.25802337978114304  1.0000
  H   H58       1.0  0.27220643580005793  0.8160557033772593  0.7580214921677422  1.0000
  H   H59       1.0  0.7722039168210486  0.31605445204307614  0.7419778934074299  1.0000
  H   H60       1.0  0.7277949019843604  0.18394515404050799  0.24197774189673277  1.0000
  H   H61       1.0  0.3012249164991232  0.845757127041246  0.24802269563301843  1.0000
  H   H62       1.0  0.1987750956151827  0.6542429675830164  0.7480224472599701  1.0000
  H   H63       1.0  0.6987753849694938  0.154243059177972  0.7519773540808927  1.0000
  H   H64       1.0  0.8012255245103076  0.34575788836021815  0.25197760245391976  1.0000
  H   H65       1.0  0.2154139199950436  0.7857338973142022  0.4900891392063895  1.0000
  H   H66       1.0  0.28458589154157465  0.7142648350484181  0.9900905542060269  1.0000
  H   H67       1.0  0.7845893324581394  0.21426495682944594  0.5099109105086086  1.0000
  H   H68       1.0  0.7154126559519439  0.28573467849773243  0.0099107189819136  1.0000
  H   H69       1.0  0.37711946008484876  0.8404333665423066  0.5478816258605759  1.0000
  H   H70       1.0  0.12287883596335543  0.6595654060216704  0.0478818272593742  1.0000
  H   H71       1.0  0.6228833933651785  0.15956615585088227  0.4521180160293809  1.0000
  H   H72       1.0  0.8771179575535938  0.34043343485149796  0.9521190381033334  1.0000
  H   H73       1.0  0.5645701640830366  0.8673123137575232  0.40404145659842067  1.0000
  H   H74       1.0  0.9354313508103046  0.6326883116886465  0.9040417644456225  1.0000
  H   H75       1.0  0.435432927677212  0.1326892163332758  0.5959573696416456  1.0000
  H   H76       1.0  0.06457006732039616  0.3673112077555558  0.09595787744390796  1.0000
  H   H77       1.0  0.4025691942220745  0.8166480636160145  0.3466029611511912  1.0000
  H   H78       1.0  0.09743235072487255  0.6833533626400196  0.8466042741606683  1.0000
  H   H79       1.0  0.5974337368467174  0.18335614242185022  0.653396272913227  1.0000
  H   H80       1.0  0.9025693057178897  0.31664816450169303  0.15339659120306234  1.0000
  H   H81       1.0  0.6631672321346895  0.04471484753633351  0.6638635465412503  1.0000
  H   H82       1.0  0.8368335987163392  0.45528477033261083  0.163863373287306  1.0000
  H   H83       1.0  0.33683386733950715  0.9552840021838307  0.3361365031731082  1.0000
  H   H84       1.0  0.16316606543853135  0.5447140764385736  0.836136676426619  1.0000
  H   H85       1.0  0.6617290136376467  0.030660772959919296  0.5620296914082061  1.0000
  H   H86       1.0  0.8382719521426975  0.4693395242303424  0.06202992233613709  1.0000
  H   H87       1.0  0.33827272315066637  0.9693394162082641  0.43797076613094527  1.0000
  H   H88       1.0  0.16172874832943754  0.530659993739313  0.9379709430276292  1.0000
  H   H89       1.0  0.48446294956993796  0.7460943457544503  0.5752010419431953  1.0000
  H   H90       1.0  0.015536831087004424  0.7539044271838052  0.075201148939847  1.0000
  H   H91       1.0  0.5155384685611253  0.25390517368973065  0.4247990077711491  1.0000
  H   H92       1.0  0.9844628330678659  0.2460944195873793  0.9247989007740781  1.0000
  H   H93       1.0  0.4814583888131025  0.760816390395135  0.6772033272907976  1.0000
  H   H94       1.0  0.018539023894966547  0.7391830367559182  0.1772046642741856  1.0000
  H   H95       1.0  0.5185427106603555  0.23918245932506474  0.32279590677392617  1.0000
  H   H96       1.0  0.9814573706191962  0.260816472366777  0.8227962010882945  1.0000
  H   H97       1.0  0.8001926681898082  0.7417685159985014  0.43675358359012506  1.0000
  H   H98       1.0  0.699807232090599  0.7582300957182542  0.9367520790433658  1.0000
  H   H99       1.0  0.19981010491540724  0.2582323443681815  0.5632472817740463  1.0000
  H   H100      1.0  0.3001909163986553  0.24177008607750847  0.06324756284507768  1.0000
  H   H101      1.0  0.6502338270100126  0.7634460280591356  0.48216564437878157  1.0000
  H   H102      1.0  0.8497660748577971  0.7365539173512446  0.9821654599075271  1.0000
  H   H103      1.0  0.3497671921190033  0.2365541596345366  0.5178352209849777  1.0000
  H   H104      1.0  0.15023279129113118  0.2634462659190078  0.017834181981129398  1.0000
  H   H105      1.0  0.4441117342407991  0.49340834306070763  0.4393028298653831  1.0000
  H   H106      1.0  0.05588653794595899  0.006591368623986701  0.939305805968061  1.0000
  H   H107      1.0  0.5558891241923404  0.5065945205802721  0.5606935494249041  1.0000
  H   H108      1.0  0.9441106545737766  0.9934068039996548  0.0606950593948739  1.0000
  H   H109      1.0  0.5933321465048067  0.47216487790800715  0.3948825987428534  1.0000
  H   H110      1.0  0.9066661501668776  0.027836050264021105  0.8948849621105806  1.0000
  H   H111      1.0  0.40666903058557563  0.5278386554569678  0.6051141883722408  1.0000
  H   H112      1.0  0.09333167966587305  0.9721634618076963  0.10511508760269087  1.0000
  H   H113      1.0  0.10503603444639957  0.5263136788429676  0.5022659811718454  1.0000
  H   H114      1.0  0.39496313527232724  0.9736871071921487  0.0022654289518726995  1.0000
  H   H115      1.0  0.8949643473688623  0.4736851694026712  0.497734884191935  1.0000
  H   H116      1.0  0.6050350132169342  0.0263130746036069  0.997734212936578  1.0000
  H   H117      1.0  0.2841002512488514  0.5781872043542149  0.5429143337856174  1.0000
  H   H118      1.0  0.21589915249909095  0.9218109019029087  0.042913691128418884  1.0000
  H   H119      1.0  0.7158986952467217  0.421811640942451  0.45708612375291574  1.0000
  H   H120      1.0  0.7840992370275401  0.0781852659722233  0.9570855429359211  1.0000
  H   H121      1.0  0.4196213747266809  0.6363715937632364  0.38181091945597245  1.0000
  H   H122      1.0  0.08037784245146891  0.8636278170536258  0.8818113488621648  1.0000
  H   H123      1.0  0.5803778904246641  0.3636279212575033  0.6181883146080975  1.0000
  H   H124      1.0  0.9196214227002455  0.1363716979670997  0.1181882930267264  1.0000
  H   H125      1.0  0.24078782962466505  0.5868242270873623  0.34173025868461326  1.0000
  H   H126      1.0  0.2592109162371584  0.9131758557564353  0.8417303713108237  1.0000
  H   H127      1.0  0.7592118345301984  0.4131746196838151  0.6582697910293192  1.0000
  H   H128      1.0  0.7407861959351932  0.08682365484082771  0.15826886275260674  1.0000
  C   C1        1.0  0.09172737877895541  0.8658035616175115  0.2694468909383687  1.0000
  C   C2        1.0  0.4082688453799434  0.6341945159175709  0.7694471820644891  1.0000
  C   C3        1.0  0.9082705313978676  0.1341946124807549  0.7305511196510607  1.0000
  C   C4        1.0  0.5917336090687683  0.365805674725074  0.23055409112451025  1.0000
  C   C5        1.0  0.10411258712962018  0.9467910794558281  0.24632321450919645  1.0000
  C   C6        1.0  0.3958846316258899  0.5532076714570736  0.7463231163532951  1.0000
  C   C7        1.0  0.8958853230483114  0.05320709464238151  0.7536760195546817  1.0000
  C   C8        1.0  0.6041151128767268  0.4467898373404608  0.25367897248495547  1.0000
  C   C9        1.0  0.042279995829836936  0.9910574561053876  0.2647829714778496  1.0000
  C   C10       1.0  0.4577186915492745  0.5089412960168006  0.7647821088230556  1.0000
  C   C11       1.0  0.9577196683246567  0.0089413906658109  0.7352166704112617  1.0000
  C   C12       1.0  0.5422796979802981  0.49105487185818225  0.23522038783982419  1.0000
  C   C13       1.0  0.9666878914416583  0.9469615596165611  0.3051660683188046  1.0000
  C   C14       1.0  0.5333120900878041  0.5530377342255832  0.8051661612697598  1.0000
  C   C15       1.0  0.0333118530587484  0.053035949181094104  0.694833573570541  1.0000
  C   C16       1.0  0.4666876544151889  0.44695977457192987  0.19483633539331888  1.0000
  C   C17       1.0  0.9593042883150671  0.8658130363705895  0.32606179929037876  1.0000
  C   C18       1.0  0.5406953319118841  0.6341869237517487  0.82606227848143  1.0000
  C   C19       1.0  0.0406939405189988  0.13418580745167932  0.6739366191238503  1.0000
  C   C20       1.0  0.4593043322440877  0.3658119230193718  0.17393899470695118  1.0000
  C   C21       1.0  0.0628214771831779  0.07945391782519813  0.24330788440634166  1.0000
  C   C22       1.0  0.4371778767073592  0.42054581528014984  0.7433076932475726  1.0000
  C   C23       1.0  0.9371788242850698  0.9205462683940413  0.7566917574827485  1.0000
  C   C24       1.0  0.5628207511328114  0.5794523602924144  0.25669439559024443  1.0000
  C   C25       1.0  0.028688628627833185  0.13841510418523484  0.265745978397092  1.0000
  C   C26       1.0  0.47131076574575553  0.3615846268054169  0.7657462343606054  1.0000
  C   C27       1.0  0.9713106365235048  0.8615844108355049  0.734253255666971  1.0000
  C   C28       1.0  0.5286882610972015  0.6384128805176276  0.234255854477432  1.0000
  C   C29       1.0  0.05934642985507566  0.231029782914419  0.24958224390480405  1.0000
  C   C30       1.0  0.44065413236440065  0.2689679448509991  0.749582511212125  1.0000
  C   C31       1.0  0.9406525969853088  0.7689677244087604  0.7504169901595146  1.0000
  C   C32       1.0  0.5593459307936186  0.7310302336706302  0.25041794632684855  1.0000
  C   C33       1.0  0.11741507928142877  0.26870395276034026  0.20174807454741736  1.0000
  C   C34       1.0  0.38258595360342434  0.2312964569348139  0.7017479113823838  1.0000
  C   C35       1.0  0.8825845045267897  0.7312962319844233  0.7982511595166384  1.0000
  C   C36       1.0  0.6174133115493916  0.7687030580858547  0.298252953980949  1.0000
  C   C37       1.0  0.1515989702377638  0.3592484156732638  0.19082203557326233  1.0000
  C   C38       1.0  0.3484017242775366  0.1407513253275923  0.6908218809799533  1.0000
  C   C39       1.0  0.848398939939429  0.6407497584249883  0.8091763828409808  1.0000
  C   C40       1.0  0.6515985771910734  0.8592488608916259  0.3091781687339504  1.0000
  C   C41       1.0  0.12863938747764783  0.4166247842524982  0.22668409485407173  1.0000
  C   C42       1.0  0.3713624080562994  0.0833756245670543  0.7266839723705161  1.0000
  C   C43       1.0  0.8713578050395152  0.583373388371271  0.7733139157351373  1.0000
  C   C44       1.0  0.628639647388887  0.916625234325153  0.27331648516862816  1.0000
  C   C45       1.0  0.0698838747204391  0.3787351010345433  0.27395791274127385  1.0000
  C   C46       1.0  0.4301138608388228  0.12126261853561725  0.7739582210706073  1.0000
  C   C47       1.0  0.9301105275036148  0.6212617277177301  0.726039690022503  1.0000
  C   C48       1.0  0.5698865209757072  0.8787362297100572  0.22604182864353817  1.0000
  C   C49       1.0  0.03547214120246877  0.28807040659167166  0.2849047507322737  1.0000
  C   C50       1.0  0.4645249767936193  0.21192597249874723  0.7849054584124385  1.0000
  C   C51       1.0  0.9645216237089471  0.7119250827125043  0.7150940755059735  1.0000
  C   C52       1.0  0.5354726147296417  0.7880715318753247  0.21509622260035843  1.0000
  C   C53       1.0  0.1636075988065571  0.5122879005648714  0.21886037868188168  1.0000
  C   C54       1.0  0.33639515098418804  0.987713540679408  0.7188580666235108  1.0000
  C   C55       1.0  0.8363909486858602  0.4877116129813431  0.7811396710316101  1.0000
  C   C56       1.0  0.663606186799498  0.012287316738401399  0.281140351791322  1.0000
  C   C57       1.0  0.21395536880694263  0.5615271277292494  0.17496742420107836  1.0000
  C   C58       1.0  0.2860474624842553  0.9384716417046236  0.6749650978172994  1.0000
  C   C59       1.0  0.7860456503220661  0.43847305996442293  0.8250334411626807  1.0000
  C   C60       1.0  0.71395331833196  0.06152653829158081  0.32503372842261763  1.0000
  C   C61       1.0  0.3272559271097604  0.7966474032062649  0.12014149105196027  1.0000
  C   C62       1.0  0.17274425328457704  0.7033520352206394  0.6201408035569356  1.0000
  C   C63       1.0  0.6727408664064496  0.20335143766693883  0.8798585586611123  1.0000
  C   C64       1.0  0.8272571648457542  0.29664748422358395  0.37985843050777374  1.0000
  C   C65       1.0  0.28999118342869684  0.704009783647415  0.12260720359935816  1.0000
  C   C66       1.0  0.21000892106797403  0.7959909925206787  0.6226061008788902  1.0000
  C   C67       1.0  0.71000552974197  0.29599039519931836  0.8773932539382938  1.0000
  C   C68       1.0  0.7899913803999111  0.20400919369858173  0.3773931331853788  1.0000
  C   C69       1.0  0.2513922038180283  0.6583628417494652  0.17205840545588555  1.0000
  C   C70       1.0  0.24861197719889103  0.8416372688810656  0.6720569033644493  1.0000
  C   C71       1.0  0.7486084966548462  0.3416366762201549  0.8279432755575156  1.0000
  C   C72       1.0  0.7513893605862589  0.15836358853666613  0.3279431463496606  1.0000
  C   C73       1.0  0.254594226062359  0.7116748394953519  0.21773110702057608  1.0000
  C   C74       1.0  0.24541171098796602  0.788327277477272  0.7177304357450609  1.0000
  C   C75       1.0  0.7454082283856136  0.2883253511473285  0.7822693505187883  1.0000
  C   C76       1.0  0.7545896267968215  0.2116735799404807  0.2822692061442281  1.0000
  C   C77       1.0  0.2949253624946023  0.8038015687782333  0.2125056449309852  1.0000
  C   C78       1.0  0.2050784121489925  0.6962005442633767  0.7125049790582237  1.0000
  C   C79       1.0  0.7050755762881308  0.19619995688900363  0.7874948126077185  1.0000
  C   C80       1.0  0.7949247599575386  0.30379964785385033  0.2874942550069051  1.0000
  C   C81       1.0  0.2030031742112826  0.7656309718380856  0.38025253536650877  1.0000
  C   C82       1.0  0.2969965971243339  0.7343711165471661  0.8802543591697185  1.0000
  C   C83       1.0  0.7969980832275924  0.23437122355321094  0.6197471065225384  1.0000
  C   C84       1.0  0.7030021083346013  0.26563174267008094  0.11974732184255289  1.0000
  C   C85       1.0  0.2987841945432734  0.7979263607053185  0.4149396908614235  1.0000
  C   C86       1.0  0.2012154010625551  0.7020737167133363  0.9149402442727634  1.0000
  C   C87       1.0  0.7012190551827615  0.2020785150565487  0.5850599510277944  1.0000
  C   C88       1.0  0.7987821101140539  0.29792512563432183  0.08506062109015738  1.0000
  C   C89       1.0  0.29260884197118014  0.8046538743855293  0.4716363097299378  1.0000
  C   C90       1.0  0.20739157358742227  0.6953461991641845  0.9716385002882714  1.0000
  C   C91       1.0  0.7073928144693793  0.19534765275630414  0.5283621086848881  1.0000
  C   C92       1.0  0.7926098445447421  0.3046533202799395  0.02836277290052889  1.0000
  C   C93       1.0  0.3826429475552899  0.8347663259244272  0.5039050626882258  1.0000
  C   C94       1.0  0.11735845844733464  0.6652331264060581  0.0039064824443216  1.0000
  C   C95       1.0  0.6173587892319148  0.16523386324382022  0.4960941713764768  1.0000
  C   C96       1.0  0.8826423223703515  0.3347650535900684  0.9960939750948652  1.0000
  C   C97       1.0  0.48021548465853653  0.8558551422103662  0.4790587692904324  1.0000
  C   C98       1.0  0.019784464942091427  0.6441469368629242  0.979060048438292  1.0000
  C   C99       1.0  0.5197870474070995  0.14414973207704662  0.5209400569489375  1.0000
  C   C100      1.0  0.9802159972183516  0.35585057340919957  0.0209400012760881  1.0000
  C   C101      1.0  0.48779198486111136  0.850106010362502  0.422413944435867  1.0000
  C   C102      1.0  0.012208181196726267  0.6498967437733755  0.9224135859127001  1.0000
  C   C103      1.0  0.5122097491993144  0.14990020042395003  0.577585289627862  1.0000
  C   C104      1.0  0.9877911643009013  0.35010143327379945  0.07758605597642537  1.0000
  C   C105      1.0  0.3977655660824765  0.8218616161066379  0.3907406154143302  1.0000
  C   C106      1.0  0.10223350651516937  0.6781404698157162  0.8907415251404487  1.0000
  C   C107      1.0  0.6022340953441372  0.17814325228282266  0.6092578029993658  1.0000
  C   C108      1.0  0.8977664762969368  0.32185904667946375  0.1092589323982835  1.0000
  C   C109      1.0  0.5654395275340462  0.9126201120888882  0.7370610000312323  1.0000
  C   C110      1.0  0.9345595331147081  0.5873805246708842  0.2370605952524869  1.0000
  C   C111      1.0  0.4345587013014907  0.08737873173330261  0.26293904968227366  1.0000
  C   C112      1.0  0.06544307929721066  0.4126230116429639  0.7629386388119385  1.0000
  C   C113      1.0  0.5708916594404485  0.9037246662400806  0.6766393094098572  1.0000
  C   C114      1.0  0.9291072921966547  0.5962759762140876  0.17663971417105262  1.0000
  C   C115      1.0  0.4291101576926763  0.09627418495461633  0.3233599246550795  1.0000
  C   C116      1.0  0.07089085629333873  0.40372420558162486  0.8233607433670256  1.0000
  C   C117      1.0  0.6239490744253755  0.9795796847065362  0.644412996032443  1.0000
  C   C118      1.0  0.87605061707481  0.5204196242857505  0.14441339337555087  1.0000
  C   C119      1.0  0.3760519447021692  0.020420502987214203  0.3555862380320463  1.0000
  C   C120      1.0  0.12394936573803507  0.4795798922093938  0.8555878798128234  1.0000
  C   C121      1.0  0.6240166835211127  0.9720942789220717  0.5878733880142873  1.0000
  C   C122      1.0  0.8759850589500713  0.5279050398222368  0.0878741907441736  1.0000
  C   C123      1.0  0.3759847346092188  0.027905240522151997  0.4121258460504221  1.0000
  C   C124      1.0  0.1240174758445534  0.4720938128468576  0.9121270824450673  1.0000
  C   C125      1.0  0.5720958328741971  0.8883137961022527  0.5638451633110932  1.0000
  C   C126      1.0  0.9279072212192144  0.6116868658291068  0.06384637806576168  1.0000
  C   C127      1.0  0.42790590391263805  0.11168639306600882  0.4361536629287882  1.0000
  C   C128      1.0  0.07209674889436707  0.3883119897889884  0.9361544872990846  1.0000
  C   C129      1.0  0.5225102552022349  0.8109692028135245  0.5952358449137234  1.0000
  C   C130      1.0  0.9774903838901636  0.6890307820119261  0.09523706453335018  1.0000
  C   C131      1.0  0.47749148158386845  0.18903098635477988  0.4047621656765229  1.0000
  C   C132      1.0  0.022510078269910066  0.3109667282602189  0.9047625773562159  1.0000
  C   C133      1.0  0.5213005411659353  0.819485305068611  0.6516620771260548  1.0000
  C   C134      1.0  0.9786973290916238  0.6805146685409867  0.15166330019656726  1.0000
  C   C135      1.0  0.4786991229885658  0.180513541702588  0.3483375647630567  1.0000
  C   C136      1.0  0.021301298748177454  0.319483507031606  0.8483383808164359  1.0000
  C   C137      1.0  0.7942747388857823  0.5946768600329903  0.38430651819131606  1.0000
  C   C138      1.0  0.7057254630496457  0.9053271099951133  0.8843090483038408  1.0000
  C   C139      1.0  0.20572532154471895  0.4053273401068864  0.6156931236970563  1.0000
  C   C140      1.0  0.2942774680235587  0.09467709604252411  0.11569507965837997  1.0000
  C   C141      1.0  0.705627997812563  0.6064891318976892  0.4119737332501358  1.0000
  C   C142      1.0  0.7943717774168846  0.893510820127844  0.9119750966725562  1.0000
  C   C143      1.0  0.29437118699433995  0.3935117210965231  0.5880271321129698  1.0000
  C   C144      1.0  0.20562995937436307  0.10648936904018311  0.08802862346513506  1.0000
  C   C145      1.0  0.7216524730281645  0.6880762508945821  0.4372115559829836  1.0000
  C   C146      1.0  0.7783459124144017  0.8119236958035075  0.9372113046646149  1.0000
  C   C147      1.0  0.2783478284419232  0.3119239353245575  0.5627901250301901  1.0000
  C   C148      1.0  0.22165399005253048  0.18807715866518046  0.0627899685235107  1.0000
  C   C149      1.0  0.6392624977791925  0.700316200902101  0.4626907926972449  1.0000
  C   C150      1.0  0.8607346590050182  0.7996810644986354  0.9626901867342352  1.0000
  C   C151      1.0  0.36073820269368884  0.29968331706751167  0.5373108883161563  1.0000
  C   C152      1.0  0.13926325117475358  0.2003171095994745  0.037311086453726695  1.0000
  C   C153      1.0  0.5394823914997529  0.6299733272179892  0.4624978729991724  1.0000
  C   C154      1.0  0.9605157209085246  0.870025947372909  0.9624989354540926  1.0000
  C   C155      1.0  0.4605182286250055  0.3700275287252808  0.5375013610650824  1.0000
  C   C156      1.0  0.0394817099232796  0.1299742329482427  0.03750315338304229  1.0000
  C   C157      1.0  0.5222280531952848  0.5475794600012591  0.43823230439306116  1.0000
  C   C158      1.0  0.9777706527484253  0.9524211563245116  0.9382349820651538  1.0000
  C   C159      1.0  0.4777720875800284  0.452423402165131  0.5617661140210969  1.0000
  C   C160      1.0  0.022228293748987892  0.04757768897206201  0.06176751459747008  1.0000
  C   C161      1.0  0.6053071711315353  0.5361565213575048  0.4133717380022332  1.0000
  C   C162      1.0  0.8946914899581343  0.9638440973112881  0.913373546694295  1.0000
  C   C163      1.0  0.39469057835420057  0.4638443286878129  0.5866270882363551  1.0000
  C   C164      1.0  0.1053105654881534  0.036156761580862506  0.08662813431929807  1.0000
  C   C165      1.0  0.05529715013383902  0.5246927039043924  0.39598477997238746  1.0000
  C   C166      1.0  0.444702408546206  0.9753133969189137  0.8959845757664481  1.0000
  C   C167      1.0  0.9446986846864432  0.4753101494148808  0.6040169010390243  1.0000
  C   C168      1.0  0.5552994058593937  0.024691475894030597  0.10401384264788757  1.0000
  C   C169      1.0  0.16185615243571758  0.5527402372631087  0.4194078179076185  1.0000
  C   C170      1.0  0.33814368954170243  0.9472618474320528  0.9194075589799123  1.0000
  C   C171      1.0  0.8381420763998193  0.4472586065590818  0.5805922318058804  1.0000
  C   C172      1.0  0.6618590032157667  0.05274035090826601  0.08059126725992628  1.0000
  C   C173      1.0  0.17406537569664948  0.5500642865732672  0.4760530578512956  1.0000
  C   C174      1.0  0.3259335321646403  0.9499371215847886  0.9760544220658145  1.0000
  C   C175      1.0  0.8259346874602753  0.4499338919484259  0.5239461762132223  1.0000
  C   C176      1.0  0.6740666889576943  0.050064402607993906  0.023945219823040997  1.0000
  C   C177      1.0  0.27383839399205806  0.5794032318017913  0.4988924962370901  1.0000
  C   C178      1.0  0.22616207074117498  0.9205968391792042  0.9988938102006981  1.0000
  C   C179      1.0  0.7261620681672838  0.4205942784703893  0.5011063300028411  1.0000
  C   C180      1.0  0.7738383110737245  0.07940200906644888  0.0011066473382683997  1.0000
  C   C181      1.0  0.3612106832387881  0.6097664712193237  0.4645528522003061  1.0000
  C   C182      1.0  0.1387893205344354  0.8902342712476354  0.9645520845301971  1.0000
  C   C183      1.0  0.6387889809175533  0.39023237555178275  0.535448828812896  1.0000
  C   C184      1.0  0.8612093073038949  0.1097639043250282  0.03544796518352909  1.0000
  C   C185      1.0  0.35046158474981576  0.6113749109618568  0.40790353461594003  1.0000
  C   C186      1.0  0.14953696184443988  0.8886244959214337  0.9079035895371488  1.0000
  C   C187      1.0  0.64953712343479  0.38862192663724227  0.5920969229228417  1.0000
  C   C188      1.0  0.8504630209673038  0.11137502057376028  0.09209646017676927  1.0000
  C   C189      1.0  0.2505885173886141  0.5833912945730474  0.3856138438372482  1.0000
  C   C190      1.0  0.2494087919827875  0.9166101191594934  0.8856143573282153  1.0000
  C   C191      1.0  0.7494081181629182  0.4166042006290239  0.6143866137011286  1.0000
  C   C192      1.0  0.7505893565068361  0.08339006263624782  0.11438569238504928  1.0000
  N   N1        1.0  0.021550783430370757  0.8257788304262378  0.30917839357674376  1.0000
  N   N2        1.0  0.4784461497263377  0.67422058281236  0.8091795294856536  1.0000
  N   N3        1.0  0.9784456914263938  0.17421934072308426  0.6908188013626174  1.0000
  N   N4        1.0  0.5215541517430111  0.3257796034068221  0.19082133587789227  1.0000
  N   N5        1.0  0.33018120306081755  0.8465418954377597  0.16457277433661224  1.0000
  N   N6        1.0  0.16982144878682692  0.6534595509227259  0.6645729167282609  1.0000
  N   N7        1.0  0.6698190180618866  0.15345962875500163  0.8354272753770573  1.0000
  N   N8        1.0  0.8301820419769469  0.3465413109185036  0.3354267251616746  1.0000
  O   O1        1.0  0.21141773388188045  0.7678347813021773  0.3288445879712538  1.0000
  O   O2        1.0  0.2885825016713497  0.7321699893496146  0.8288459996246045  1.0000
  O   O3        1.0  0.7885844795272519  0.2321694232611975  0.6711546460929441  1.0000
  O   O4        1.0  0.7114143694654727  0.26783353516817243  0.17115568138701315  1.0000
  O   O5        1.0  0.11229231433566154  0.7356315379557472  0.4040527615857882  1.0000
  O   O6        1.0  0.3877074999398218  0.7643705481864772  0.9040542221861684  1.0000
  O   O7        1.0  0.8877075105099267  0.26436463286840006  0.5959460646541643  1.0000
  O   O8        1.0  0.6122938351189191  0.2356363308494451  0.09594623535179639  1.0000
  O   O9        1.0  0.5740154975647087  0.884320053857067  0.5071240732434105  1.0000
  O   O10       1.0  0.9259848218644887  0.6156826152195974  0.007124469920050599  1.0000
  O   O11       1.0  0.4259863971882822  0.11568348098224854  0.4928759764704365  1.0000
  O   O12       1.0  0.07401580098814964  0.3843122191054178  0.9928759876196266  1.0000
  O   O13       1.0  0.6208442278721975  0.9888064564626122  0.7582515819115513  1.0000
  O   O14       1.0  0.8791567053309347  0.5111935129994976  0.258251576242543  1.0000
  O   O15       1.0  0.379154081309629  0.011191049386013698  0.24174887562701025  1.0000
  O   O16       1.0  0.12084694339973368  0.48881069451274334  0.7417501047709862  1.0000
  O   O17       1.0  0.5046510185305592  0.8430438138354432  0.7627107270831315  1.0000
  O   O18       1.0  0.9953488060552967  0.6569568219814457  0.2627107441817813  1.0000
  O   O19       1.0  0.4953444200111434  0.1569536861152869  0.23728809915530033  1.0000
  O   O20       1.0  0.004655878988955929  0.3430480567294652  0.7372876742334142  1.0000
  O   O21       1.0  0.8781793871212284  0.6643314286726679  0.37690328820130486  1.0000
  O   O22       1.0  0.6218196847941329  0.8356732088282259  0.8769049748160141  1.0000
  O   O23       1.0  0.12181907729848969  0.335675444465295  0.6230967615109788  1.0000
  O   O24       1.0  0.37818045598523037  0.16432965333795116  0.12309792967113956  1.0000
  O   O25       1.0  0.7785879359045822  0.5149310439698312  0.3696872300402631  1.0000
  O   O26       1.0  0.7214159082997895  0.985071596834949  0.8696905596328788  1.0000
  O   O27       1.0  0.2214160314803806  0.4850738332665686  0.6303115961995331  1.0000
  O   O28       1.0  0.2785878207793644  0.0149312727036133  0.13031397615461768  1.0000
  O   O29       1.0  0.459763597727644  0.6431621530744495  0.4890484661557721  1.0000
  O   O30       1.0  0.04023629227603451  0.8568352414127745  0.9890484659134057  1.0000
  O   O31       1.0  0.5402385380634483  0.3568373678442143  0.5109519913836067  1.0000
  O   O32       1.0  0.9597619365602412  0.14316360240938047  0.0109523994497351  1.0000
  O   O33       1.0  0.9742102752875326  0.47925875414396313  0.42306748460875804  1.0000
  O   O34       1.0  0.5257884685083525  0.020747524740613702  0.9230667677587687  1.0000
  O   O35       1.0  0.02578531849648158  0.520748113095877  0.576935827701213  1.0000
  O   O36       1.0  0.4742132655509721  0.9792586860458883  0.0769312428305113  1.0000
  O   O37       1.0  0.047174969062680754  0.5475294191412772  0.345630643657131  1.0000
  O   O38       1.0  0.45282481742567876  0.9524773561516683  0.8456304516237552  1.0000
  O   O39       1.0  0.9528227000797214  0.45247276887745597  0.6543710373549343  1.0000
  O   O40       1.0  0.5471759606644894  0.047526845462705615  0.1543691902648305  1.0000
