data_image0
_chemical_formula_structural       Y2H4C8N2Cl6
_chemical_formula_sum              "Y2 H4 C8 N2 Cl6"
_cell_length_a       6.6643636327480795
_cell_length_b       6.875460000061087
_cell_length_c       9.10335160335843
_cell_angle_alpha    81.85642224809729
_cell_angle_beta     76.40656569643065
_cell_angle_gamma    71.8305955980049

_space_group_name_H-M_alt    "P 1"
_space_group_IT_number       1

loop_
  _space_group_symop_operation_xyz
  'x, y, z'

loop_
  _atom_site_type_symbol
  _atom_site_label
  _atom_site_symmetry_multiplicity
  _atom_site_fract_x
  _atom_site_fract_y
  _atom_site_fract_z
  _atom_site_occupancy
  Y   Y1        1.0  0.17611195451083006  0.18213460047929428  0.5319972083945642  1.0000
  Y   Y2        1.0  0.8238743590020546  0.8178746873537646  0.4680025923893395  1.0000
  H   H1        1.0  0.19429915026167066  0.6623073103809246  0.8660644581446774  1.0000
  H   H2        1.0  0.805738007424132  0.3376859404311644  0.13395039678633944  1.0000
  H   H3        1.0  0.6789132607273628  0.12263338907027328  0.9987619671929763  1.0000
  H   H4        1.0  0.3210697920244597  0.8774079910138821  0.0012526110974207594  1.0000
  C   C1        1.0  0.3265642386075952  0.5933143714727009  0.9254955203892761  1.0000
  C   C2        1.0  0.6734269989752378  0.4066628750372556  0.07446724636426438  1.0000
  C   C3        1.0  0.4287133077632532  0.38048991668386367  0.9264292761950301  1.0000
  C   C4        1.0  0.5713004756258543  0.6194732264975895  0.0735443356723451  1.0000
  C   C5        1.0  0.6013090494216298  0.2868079964550887  0.0005705807462489907  1.0000
  C   C6        1.0  0.39869124909617415  0.7131430906619941  0.9994076661540632  1.0000
  C   C7        1.0  0.3562223346505674  0.264776784357224  0.8440222895301092  1.0000
  C   C8        1.0  0.6437828631197321  0.7352520558415206  0.15599425032485933  1.0000
  N   N1        1.0  0.28957680359246735  0.18270753641742485  0.7710574435183517  1.0000
  N   N2        1.0  0.7104306030513853  0.8173028981916488  0.2289694322729687  1.0000
  Cl  Cl1       1.0  0.5692414368248393  0.2163128795528451  0.4325527921546166  1.0000
  Cl  Cl2       1.0  0.43074376731554753  0.7836948904306239  0.5674484529838963  1.0000
  Cl  Cl3       1.0  0.8890909515351877  0.9921508630111686  0.6949191570456961  1.0000
  Cl  Cl4       1.0  0.11089310279105999  0.007866081168174296  0.3050857188560485  1.0000
  Cl  Cl5       1.0  0.9000681333715903  0.5040739486804923  0.6809683507238233  1.0000
  Cl  Cl6       1.0  0.09993028187621891  0.4959412540808116  0.31904087178634905  1.0000
