data_image0
_chemical_formula_structural       Zn4H48C76N4O16F6
_chemical_formula_sum              "Zn4 H48 C76 N4 O16 F6"
_cell_length_a       10.963744078985897
_cell_length_b       14.019801764748918
_cell_length_c       26.378784002940897
_cell_angle_alpha    92.60464539101575
_cell_angle_beta     89.63263165466682
_cell_angle_gamma    90.64346722970994

_space_group_name_H-M_alt    "P 1"
_space_group_IT_number       1

loop_
  _space_group_symop_operation_xyz
  'x, y, z'

loop_
  _atom_site_type_symbol
  _atom_site_label
  _atom_site_symmetry_multiplicity
  _atom_site_fract_x
  _atom_site_fract_y
  _atom_site_fract_z
  _atom_site_occupancy
  Zn  Zn1       1.0  0.501748740025441  0.38200380014993834  0.4977805312411902  1.0000
  Zn  Zn2       1.0  0.5034370571003494  0.5800165198276163  0.506581041423324  1.0000
  Zn  Zn3       1.0  0.4973662926050579  0.6133253997331919  0.09053365701274169  1.0000
  Zn  Zn4       1.0  0.4937033757892593  0.41477125959647754  0.08056922203820698  1.0000
  H   H1        1.0  0.6629852675876791  0.042018237434085386  0.4520564810046394  1.0000
  H   H2        1.0  0.42921197998926897  0.9253955635339182  0.5810982453829182  1.0000
  H   H3        1.0  0.569819594683942  0.7231045070264271  0.4353954010348885  1.0000
  H   H4        1.0  0.5728131348720567  0.9005146927311002  0.42733973630551236  1.0000
  H   H5        1.0  0.35144614048219586  0.2354493625888239  0.5424069134787786  1.0000
  H   H6        1.0  0.3415491324603438  0.057718257057111096  0.5489936971062974  1.0000
  H   H7        1.0  0.663766180113555  0.40633740998631396  0.1911517941426482  1.0000
  H   H8        1.0  0.6800234186038382  0.38537866520201186  0.3782252780478642  1.0000
  H   H9        1.0  0.3410628465903045  0.5893240131656582  0.3485403113352419  1.0000
  H   H10       1.0  0.3322292728527003  0.5986605289612611  0.2540991433950879  1.0000
  H   H11       1.0  0.5181925942882588  0.3388417003542941  0.7608570334127689  1.0000
  H   H12       1.0  0.5270560957807008  0.6600539385541708  0.8276133392287972  1.0000
  H   H13       1.0  0.5179667840530656  0.3705813945353356  0.9278066567901532  1.0000
  H   H14       1.0  0.5124257539126518  0.3518034217168946  0.8346575373990175  1.0000
  H   H15       1.0  0.516487355926941  0.6277417168693801  0.6602969861051304  1.0000
  H   H16       1.0  0.5144216278066055  0.6471128862252229  0.7535313707489093  1.0000
  H   H17       1.0  0.768821571899011  0.6080986451195474  0.5752593735853962  1.0000
  H   H18       1.0  0.21868940886523805  0.5932592882766912  0.5923040842523406  1.0000
  H   H19       1.0  0.12085198173588915  0.37315451519347687  0.4530681498374277  1.0000
  H   H20       1.0  0.8928910163768081  0.37723268621397915  0.44698643091638235  1.0000
  H   H21       1.0  0.6484017307501518  0.9569518132859895  0.13979194909992998  1.0000
  H   H22       1.0  0.43934809080797516  0.0681445000000309  0.004894172519286099  1.0000
  H   H23       1.0  0.5421991672624246  0.2731744425986307  0.15538562740156436  1.0000
  H   H24       1.0  0.5485028859350721  0.09595447384600665  0.1628740720530359  1.0000
  H   H25       1.0  0.35828078955995585  0.7559340934602689  0.03998148236179589  1.0000
  H   H26       1.0  0.34657592409461563  0.9335014029856123  0.03401226044768179  1.0000
  H   H27       1.0  0.7578219162140629  0.3793991252497547  0.015302469063691095  1.0000
  H   H28       1.0  0.20725620731297315  0.3968519556162207  0.9936491269262644  1.0000
  H   H29       1.0  0.11798212692863791  0.61772667001334  0.13308883805736824  1.0000
  H   H30       1.0  0.8899442387950103  0.6136637805053835  0.14128237508239036  1.0000
  H   H31       1.0  0.8577871155342367  0.22600013549013195  0.22500683784677722  1.0000
  H   H32       1.0  0.8364789744413558  0.31495679834942797  0.17966161101949746  1.0000
  H   H33       1.0  0.9459941020012795  0.33197562461690205  0.2287414816618565  1.0000
  H   H34       1.0  0.9547792344036168  0.32467024566466307  0.32376403477197596  1.0000
  H   H35       1.0  0.8525879840534359  0.2917468052858183  0.37278718803522537  1.0000
  H   H36       1.0  0.8697153783149858  0.2172949081190509  0.31686542954503233  1.0000
  H   H37       1.0  0.8784867701903067  0.7952978582079808  0.6534132248838274  1.0000
  H   H38       1.0  0.7526477685917714  0.7150057970935252  0.6439399346599401  1.0000
  H   H39       1.0  0.8594071104366563  0.6980172478911225  0.6930834670540448  1.0000
  H   H40       1.0  0.0822840869272738  0.687406392748862  0.7024486762056552  1.0000
  H   H41       1.0  0.21596902015100747  0.6947351822257344  0.6641536086615856  1.0000
  H   H42       1.0  0.10333084034872542  0.7852673132995989  0.6634415685845948  1.0000
  H   H43       1.0  0.8633439259296268  0.1918408676498515  0.936344635969675  1.0000
  H   H44       1.0  0.7380004296534963  0.26981489769182326  0.9480776127165098  1.0000
  H   H45       1.0  0.8412629016796487  0.28908662664491663  0.8972353483336944  1.0000
  H   H46       1.0  0.064840440532052  0.3008332356726982  0.885095438530044  1.0000
  H   H47       1.0  0.20038068156015504  0.2955141624096099  0.9215391849074733  1.0000
  H   H48       1.0  0.0872640512547491  0.20359695275950432  0.9240308269942827  1.0000
  C   C1        1.0  0.5174020273879308  0.4713523976284931  0.6006464943037598  1.0000
  C   C2        1.0  0.2665126020787554  0.47665915366897593  0.511563840892677  1.0000
  C   C3        1.0  0.4899247819390453  0.48985619220363935  0.40360687588592725  1.0000
  C   C4        1.0  0.7385919119705876  0.4876362227582404  0.49977755773926447  1.0000
  C   C5        1.0  0.5219031150347392  0.5264690988738678  0.9876355723376091  1.0000
  C   C6        1.0  0.2598722034467329  0.5139724839434123  0.07372012824217218  1.0000
  C   C7        1.0  0.47534068389354905  0.5110044311270983  0.18404684834402465  1.0000
  C   C8        1.0  0.7315132507242836  0.5027740648728525  0.09017804188072626  1.0000
  C   C9        1.0  0.58482244784188  0.1788752321215057  0.47078063497717426  1.0000
  C   C10       1.0  0.5901982819977221  0.0801271035569329  0.4722490775423225  1.0000
  C   C11       1.0  0.4624497071380347  0.78601589961346  0.5470563185371589  1.0000
  C   C12       1.0  0.4603080097762061  0.885085692441109  0.5473265758316472  1.0000
  C   C13       1.0  0.541075421299688  0.7719186968617461  0.46641760342596666  1.0000
  C   C14       1.0  0.5425506485889215  0.8701680244783602  0.4625983665026822  1.0000
  C   C15       1.0  0.4173739661373547  0.18852949112303458  0.5231961204263198  1.0000
  C   C16       1.0  0.4137989730826135  0.0902181908389466  0.526904538265967  1.0000
  C   C17       1.0  0.5018639434647126  0.0339315062546959  0.5010893727455182  1.0000
  C   C18       1.0  0.5016937690420917  0.9289687818245368  0.5037358310080008  1.0000
  C   C19       1.0  0.48224989471096796  0.5041313354170427  0.24051350053089482  1.0000
  C   C20       1.0  0.5745847030766884  0.4480557270999552  0.2622574575087667  1.0000
  C   C21       1.0  0.4007628630442426  0.5547833299999994  0.2713199617290343  1.0000
  C   C22       1.0  0.6657143325442831  0.40092030652473193  0.2322390299952062  1.0000
  C   C23       1.0  0.7586755723017903  0.3504258931386772  0.25333600546216667  1.0000
  C   C24       1.0  0.49177188259852045  0.493893639189004  0.3469630924481422  1.0000
  C   C25       1.0  0.4057505436437411  0.5496750560173922  0.32439443813653657  1.0000
  C   C26       1.0  0.5796137772463156  0.44257953968325137  0.3164212692090871  1.0000
  C   C27       1.0  0.6758523410232087  0.39000796816122824  0.3371903171661543  1.0000
  C   C28       1.0  0.763788089006596  0.3449273442282249  0.3072964995670516  1.0000
  C   C29       1.0  0.5167495929936479  0.4755750530443379  0.657537732818639  1.0000
  C   C30       1.0  0.5234648694707503  0.5227352561976203  0.93078634179556  1.0000
  C   C31       1.0  0.5162056482851299  0.3962774710252574  0.6879597124633604  1.0000
  C   C32       1.0  0.5169170480356656  0.4047011691841647  0.7405838884109099  1.0000
  C   C33       1.0  0.525756442369513  0.6022511465386627  0.9004869548433516  1.0000
  C   C34       1.0  0.5239687886855435  0.5941547058281458  0.847855064718253  1.0000
  C   C35       1.0  0.5194765450145482  0.4331014156211949  0.9047623905451088  1.0000
  C   C36       1.0  0.5166042707855923  0.4234472170981005  0.8522596054383836  1.0000
  C   C37       1.0  0.5163079733032703  0.565365511611148  0.6834577466004175  1.0000
  C   C38       1.0  0.5156157057946373  0.5753631931576493  0.7359856024192623  1.0000
  C   C39       1.0  0.5168426829040201  0.49487687301382977  0.7661002410055456  1.0000
  C   C40       1.0  0.5188375309936148  0.5040771854670112  0.822247836035906  1.0000
  C   C41       1.0  0.8743435548755941  0.48669052853527006  0.5055852215495164  1.0000
  C   C42       1.0  0.9338659906467727  0.5458995387081416  0.5434833494132647  1.0000
  C   C43       1.0  0.9407072860303815  0.42389098065009284  0.4746024922336573  1.0000
  C   C44       1.0  0.8677436870638005  0.6053899677008944  0.5786205151933428  1.0000
  C   C45       1.0  0.9242958478069313  0.658340621477464  0.6173021816570452  1.0000
  C   C46       1.0  0.13029603105207602  0.47961740238066847  0.5133804776832845  1.0000
  C   C47       1.0  0.06822961433012151  0.42096230019324576  0.4782713594844238  1.0000
  C   C48       1.0  0.06421756358139422  0.5417481304209558  0.5479953172628881  1.0000
  C   C49       1.0  0.12007752476596781  0.5964741781412569  0.5883004878246181  1.0000
  C   C50       1.0  0.053806346578689115  0.6530687275039923  0.6225062859168631  1.0000
  C   C51       1.0  0.5766757528824373  0.8179770980425262  0.11819756658102418  1.0000
  C   C52       1.0  0.5803469463252571  0.9170172454502675  0.11746354189115488  1.0000
  C   C53       1.0  0.46080851775126064  0.2081411010828873  0.04034695415221279  1.0000
  C   C54       1.0  0.46172823896557  0.10908766023973729  0.03968286343064158  1.0000
  C   C55       1.0  0.5213497130707766  0.22396416404572508  0.12331377934375347  1.0000
  C   C56       1.0  0.5249329625728265  0.1257076365907679  0.12685978912438858  1.0000
  C   C57       1.0  0.41942481423832595  0.8044326011471269  0.061300058417927496  1.0000
  C   C58       1.0  0.4148978957755035  0.9026971168549024  0.057959774182648985  1.0000
  C   C59       1.0  0.49670758614769284  0.9610811561349165  0.08653270930096818  1.0000
  C   C60       1.0  0.49474237415024197  0.0660942837652172  0.08434984306177987  1.0000
  C   C61       1.0  0.867222928099892  0.5034530895925825  0.08325223082857748  1.0000
  C   C62       1.0  0.9245513744589362  0.443458199462242  0.04512474356437219  1.0000
  C   C63       1.0  0.9360013917186478  0.5666850728741721  0.11340843506380337  1.0000
  C   C64       1.0  0.8566401922068182  0.38273290697024714  0.010970983484057197  1.0000
  C   C65       1.0  0.9111590655415966  0.3294573798365903  0.9719756785800867  1.0000
  C   C66       1.0  0.12340499522976962  0.510755098485994  0.07300410799582827  1.0000
  C   C67       1.0  0.0635133422909036  0.569611147639975  0.10852103139943377  1.0000
  C   C68       1.0  0.0549346523766161  0.44799785637986383  0.0392948060326717  1.0000
  C   C69       1.0  0.10867957458544453  0.39302934099846004  0.9986456191161748  1.0000
  C   C70       1.0  0.0405215667361318  0.3356360366176715  0.9652724545759666  1.0000
  C   C71       1.0  0.8542316393770122  0.30347765816510724  0.21981324306150185  1.0000
  C   C72       1.0  0.8651147565688221  0.29199711163616365  0.3315039609992069  1.0000
  C   C73       1.0  0.8497419759004856  0.7197678882567902  0.6537199083644081  1.0000
  C   C74       1.0  0.11745290678739201  0.7078002381334298  0.6652058603829261  1.0000
  C   C75       1.0  0.8344073567251727  0.2668624046103503  0.936683515584704  1.0000
  C   C76       1.0  0.10174824681446641  0.2812140444704596  0.9218955697389216  1.0000
  N   N1        1.0  0.5027311895127156  0.23273018335277126  0.4951676181719761  1.0000
  N   N2        1.0  0.5012835857500093  0.7298620715108796  0.5086695896406963  1.0000
  N   N3        1.0  0.49992492385455023  0.7622915459857466  0.09146532495041979  1.0000
  N   N4        1.0  0.4895964706529981  0.265120149226071  0.0800165221829161  1.0000
  O   O1        1.0  0.4917134217351204  0.3927749533809432  0.5771595403801654  1.0000
  O   O2        1.0  0.5432936399894572  0.5500590428721425  0.5803040103301312  1.0000
  O   O3        1.0  0.32427170835648417  0.5550793087599786  0.5206273961874358  1.0000
  O   O4        1.0  0.3153575176983027  0.3965567366006654  0.4994559434874759  1.0000
  O   O5        1.0  0.47314905780024213  0.5682671223245848  0.4291006332135011  1.0000
  O   O6        1.0  0.5039285543036344  0.4085178292474509  0.4222624008615981  1.0000
  O   O7        1.0  0.6848922632621567  0.4071238136613644  0.5029770266558271  1.0000
  O   O8        1.0  0.6876407967087985  0.5668780537106102  0.49213809794041197  1.0000
  O   O9        1.0  0.4991764784165725  0.605221645199187  0.011200793093060199  1.0000
  O   O10       1.0  0.5419466385330765  0.4472013132171496  0.0079633237236152  1.0000
  O   O11       1.0  0.31563820960092676  0.43542428129727284  0.06484090265092848  1.0000
  O   O12       1.0  0.3108072903062933  0.5943486517532577  0.084951018927363  1.0000
  O   O13       1.0  0.46079249764845553  0.43331692236306907  0.15758119898077888  1.0000
  O   O14       1.0  0.4854993747612468  0.5940889906282366  0.16693704464920958  1.0000
  O   O15       1.0  0.6797553856923884  0.5834125274892941  0.08882280162853816  1.0000
  O   O16       1.0  0.6781571134586956  0.42292082691760396  0.09682033331849028  1.0000
  F   F1        1.0  0.6678476981823281  0.2244787225072002  0.4428744663314958  1.0000
  F   F2        1.0  0.42302631131417473  0.7422854695650043  0.5885311885979972  1.0000
  F   F3        1.0  0.5170247251562685  0.30590404186011705  0.666805681073235  1.0000
  F   F4        1.0  0.5314104227979897  0.6924742992672465  0.9217782029902466  1.0000
  F   F5        1.0  0.6556943162348575  0.7739825267331638  0.1476135958063836  1.0000
  F   F6        1.0  0.429090854777229  0.251105339655517  0.9978634055876652  1.0000
