data_image0
_chemical_formula_structural       Cd2H16C28S4N8
_chemical_formula_sum              "Cd2 H16 C28 S4 N8"
_cell_length_a       8.916457447229833
_cell_length_b       8.916461987510594
_cell_length_c       10.75611196817114
_cell_angle_alpha    68.69105019859134
_cell_angle_beta     68.69082772919771
_cell_angle_gamma    70.82689956976695

_space_group_name_H-M_alt    "P 1"
_space_group_IT_number       1

loop_
  _space_group_symop_operation_xyz
  'x, y, z'

loop_
  _atom_site_type_symbol
  _atom_site_label
  _atom_site_symmetry_multiplicity
  _atom_site_fract_x
  _atom_site_fract_y
  _atom_site_fract_z
  _atom_site_occupancy
  Cd  Cd1       1.0  0.8883760415323819  0.11162609233753781  0.7500013071723899  1.0000
  Cd  Cd2       1.0  0.11162441365091531  0.8883750414932903  0.2500002540847746  1.0000
  H   H1        1.0  0.9538408406985324  0.3580969406272629  0.8848105960939778  1.0000
  H   H2        1.0  0.641907333163239  0.0461593021588982  0.615192232955671  1.0000
  H   H3        1.0  0.04616362640848592  0.6419079357835286  0.11518308669114673  1.0000
  H   H4        1.0  0.35809879365599073  0.9538381414813271  0.3848059513791782  1.0000
  H   H5        1.0  0.8170107535215294  0.6305569697432813  0.9428130093650964  1.0000
  H   H6        1.0  0.3694482366522749  0.18299332450712308  0.5571898909426523  1.0000
  H   H7        1.0  0.18299462016983623  0.36944912478269026  0.05718283240111793  1.0000
  H   H8        1.0  0.6305549175121713  0.8170065850977578  0.44280937341806503  1.0000
  H   H9        1.0  0.545426626573402  0.7853410504664425  0.8941184424801563  1.0000
  H   H10       1.0  0.21466337598561583  0.4545761830390516  0.6058838157284543  1.0000
  H   H11       1.0  0.45457476464495267  0.21466133091587383  0.10588061163520725  1.0000
  H   H12       1.0  0.7853400636327447  0.5454224966016242  0.3941147990536893  1.0000
  H   H13       1.0  0.3178463340960462  0.8037741579943257  0.8007878718424166  1.0000
  H   H14       1.0  0.19622862291804924  0.682154809814591  0.6992138609097226  1.0000
  H   H15       1.0  0.6821498708307416  0.196224510318828  0.19921475166874097  1.0000
  H   H16       1.0  0.8037700014261233  0.3178438701240792  0.30078618205899244  1.0000
  C   C1        1.0  0.8160606039452105  0.9446443883038924  0.10013423879080834  1.0000
  C   C2        1.0  0.05534827409029222  0.1839397649991099  0.39986801587492943  1.0000
  C   C3        1.0  0.18394004523840116  0.05535056634411009  0.8998690977429932  1.0000
  C   C4        1.0  0.9446437720336007  0.8160613870149902  0.6001332450350105  1.0000
  C   C5        1.0  0.8355450882975788  0.43043523203517237  0.8646698117178672  1.0000
  C   C6        1.0  0.5695640955834732  0.16445653254593398  0.6353324592277261  1.0000
  C   C7        1.0  0.16445752440974817  0.5695671669344263  0.1353260856771216  1.0000
  C   C8        1.0  0.43043637727024736  0.8355446189466703  0.3646663023557083  1.0000
  C   C9        1.0  0.7590727168274257  0.5817122160677853  0.8971297192924794  1.0000
  C   C10       1.0  0.4182910810828345  0.24092944303809818  0.6028733995471498  1.0000
  C   C11       1.0  0.24093230351699907  0.41829018275281976  0.10286546400921996  1.0000
  C   C12       1.0  0.5817111547169773  0.759069236677078  0.39712557228163103  1.0000
  C   C13       1.0  0.6095612195402964  0.667935996673428  0.8692181633692897  1.0000
  C   C14       1.0  0.3320654728387851  0.3904420531072502  0.6307808560015858  1.0000
  C   C15       1.0  0.39043926509371124  0.3320651665937007  0.13077873176498406  1.0000
  C   C16       1.0  0.667934367104216  0.6095566385314442  0.3692169634713239  1.0000
  C   C17       1.0  0.5372443550341757  0.603103726792142  0.8087993687445446  1.0000
  C   C18       1.0  0.3969018751325776  0.4627565023965232  0.691202870909109  1.0000
  C   C19       1.0  0.4627558382557737  0.3968986605519333  0.19119910919288693  1.0000
  C   C20       1.0  0.6030991450684053  0.5372421656186288  0.3087983244154772  1.0000
  C   C21       1.0  0.3822474935260942  0.6855209642009681  0.7780655243444345  1.0000
  C   C22       1.0  0.314483393080792  0.6177576944919849  0.7219370692650957  1.0000
  C   C23       1.0  0.6177532471111107  0.3144789396656548  0.22193538733414905  1.0000
  C   C24       1.0  0.6855170679926488  0.3822434452261021  0.2780635587674922  1.0000
  C   C25       1.0  0.6228895085850892  0.44842534909642495  0.7802571077506145  1.0000
  C   C26       1.0  0.5515783262897358  0.377109582892153  0.7197458834311519  1.0000
  C   C27       1.0  0.3771070732492135  0.5515770384711445  0.21974244132674406  1.0000
  C   C28       1.0  0.4484224084573328  0.6228903150872039  0.2802559614720084  1.0000
  S   S1        1.0  0.7010326289615706  0.9508191460096782  0.009929480790127168  1.0000
  S   S2        1.0  0.04917170753969199  0.2989683105142973  0.4900705253278305  1.0000
  S   S3        1.0  0.298965642035661  0.04917583822362559  0.9900699037140726  1.0000
  S   S4        1.0  0.9508203385842006  0.7010328414997957  0.5099307355821026  1.0000
  N   N1        1.0  0.8942521204211429  0.9428801137795801  0.16932047848219173  1.0000
  N   N2        1.0  0.05710919005545629  0.10574924264422948  0.33068701181207416  1.0000
  N   N3        1.0  0.10574751305409788  0.05710865587283107  0.830685923599475  1.0000
  N   N4        1.0  0.9428786501443938  0.8942543459727259  0.669320352293262  1.0000
  N   N5        1.0  0.7693122239354295  0.36596896203167256  0.8088831690327113  1.0000
  N   N6        1.0  0.634034711269024  0.2306888891887127  0.691122614703751  1.0000
  N   N7        1.0  0.23068741022697747  0.6340358970153301  0.19111474161272213  1.0000
  N   N8        1.0  0.3659660175878939  0.7693110029033862  0.3088801634239929  1.0000
