data_image0
_chemical_formula_structural       Cu2H20C20I2N12O4
_chemical_formula_sum              "Cu2 H20 C20 I2 N12 O4"
_cell_length_a       4.15923628857868
_cell_length_b       5.930248879649405
_cell_length_c       26.263081830832846
_cell_angle_alpha    90.00067166109334
_cell_angle_beta     89.99973194259104
_cell_angle_gamma    99.26289994677725

_space_group_name_H-M_alt    "P 1"
_space_group_IT_number       1

loop_
  _space_group_symop_operation_xyz
  'x, y, z'

loop_
  _atom_site_type_symbol
  _atom_site_label
  _atom_site_symmetry_multiplicity
  _atom_site_fract_x
  _atom_site_fract_y
  _atom_site_fract_z
  _atom_site_occupancy
  Cu  Cu1       1.0  0.47097115331186484  0.23350521573973274  0.7499993539855866  1.0000
  Cu  Cu2       1.0  0.5290223160852746  0.7665026280077285  0.2499998934834693  1.0000
  H   H1        1.0  0.7582800172130175  0.0939667183199049  0.6543573254949138  1.0000
  H   H2        1.0  0.7583120047497683  0.09395770784181681  0.8456353343816688  1.0000
  H   H3        1.0  0.2416965823316772  0.9060409434257367  0.3456426835012394  1.0000
  H   H4        1.0  0.24167747603750908  0.9060194114693588  0.1543601054321115  1.0000
  H   H5        1.0  0.2690759041231345  0.7504426340151442  0.6038399520229802  1.0000
  H   H6        1.0  0.2690963915644957  0.7504247296650706  0.8961681734091869  1.0000
  H   H7        1.0  0.730939688862399  0.24957908470129547  0.3961634838456334  1.0000
  H   H8        1.0  0.730909958907375  0.24955257194396546  0.10383602394315262  1.0000
  H   H9        1.0  0.2797433705748489  0.6343450096279996  0.6948931290737974  1.0000
  H   H10       1.0  0.2797672258567729  0.634345306764935  0.8051140094209757  1.0000
  H   H11       1.0  0.7202361930979463  0.36564222997343176  0.3051087837155251  1.0000
  H   H12       1.0  0.7202250986357369  0.36564547960447413  0.1948894264207297  1.0000
  H   H13       1.0  0.6612383899508458  0.3636564741264223  0.4943127837462882  1.0000
  H   H14       1.0  0.6612331784465509  0.3636326065065703  0.005690386586231  1.0000
  H   H15       1.0  0.33878486695576265  0.6363789631937138  0.5056837984073114  1.0000
  H   H16       1.0  0.3388011037088887  0.6363518145236428  0.9943130492443474  1.0000
  H   H17       1.0  0.8895790821678059  0.1463753046860035  0.47758564570668244  1.0000
  H   H18       1.0  0.8895581100628789  0.1463489045444604  0.0224109606495659  1.0000
  H   H19       1.0  0.11044453019943751  0.853661841020859  0.5224120787363873  1.0000
  H   H20       1.0  0.1104572478446002  0.8536370166538632  0.977587525270579  1.0000
  C   C1        1.0  0.6470484012232942  0.24075222099965293  0.6431908541728646  1.0000
  C   C2        1.0  0.6470935450579914  0.24076280112681306  0.8568078255717211  1.0000
  C   C3        1.0  0.3529170581152599  0.7592365708482163  0.3568083932812557  1.0000
  C   C4        1.0  0.3529035994489503  0.759228037143309  0.143192183405823  1.0000
  C   C5        1.0  0.6419955094642943  0.30807731619740514  0.5924173655338763  1.0000
  C   C6        1.0  0.6420224687426026  0.3080584916048252  0.9075787793016162  1.0000
  C   C7        1.0  0.3579856329487823  0.6919406216472125  0.4075822627089707  1.0000
  C   C8        1.0  0.3579870027551095  0.6919222525563029  0.09242046813951531  1.0000
  C   C9        1.0  0.3807926941753336  0.6027299812084621  0.6145224730995977  1.0000
  C   C10       1.0  0.3808213005767982  0.6027370636100569  0.8854830574724417  1.0000
  C   C11       1.0  0.619194533284265  0.39727097723350363  0.3854802012272316  1.0000
  C   C12       1.0  0.6191803083765135  0.3972521183635251  0.11451847455348492  1.0000
  C   C13       1.0  0.3858748014472865  0.5387000388883081  0.6655857252562498  1.0000
  C   C14       1.0  0.38588272953860775  0.5386883619320882  0.8344166350627233  1.0000
  C   C15       1.0  0.6141186679431384  0.46130780487099804  0.33441390297543455  1.0000
  C   C16       1.0  0.6141229884004388  0.4612974553582275  0.1655852777221085  1.0000
  C   C17       1.0  0.799608855541713  0.1742865173585741  0.5537770462187269  1.0000
  C   C18       1.0  0.7996021343621177  0.17427656554849597  0.9462207078760231  1.0000
  C   C19       1.0  0.20039227764893744  0.8257350452175841  0.4462225820252073  1.0000
  C   C20       1.0  0.20040698166824455  0.8257024702377507  0.05377777803825982  1.0000
  I   I1        1.0  0.9296800168788905  0.9335953315050888  0.7499931173545917  1.0000
  I   I2        1.0  0.07031827260653499  0.06641256401282901  0.24999851486142435  1.0000
  N   N1        1.0  0.5166560539619951  0.3544421583257247  0.6803183810238453  1.0000
  N   N2        1.0  0.5166869024245597  0.3544332156455497  0.8196805481666516  1.0000
  N   N3        1.0  0.4833174246307123  0.6455620607375607  0.3196823894946306  1.0000
  N   N4        1.0  0.4833119410978241  0.6455542319258285  0.18031946080743927  1.0000
  N   N5        1.0  0.5062297749694051  0.4881990905045798  0.5773987536606882  1.0000
  N   N6        1.0  0.5062603134653471  0.48817783559219663  0.9226050039421025  1.0000
  N   N7        1.0  0.49376100732482786  0.5118189514019775  0.4226023976316071  1.0000
  N   N8        1.0  0.4937636178608073  0.5118030646500031  0.07739614731058002  1.0000
  N   N9        1.0  0.784274963903158  0.23620823013061454  0.5052515761664936  1.0000
  N   N10       1.0  0.7842709174786505  0.2361877078310926  0.9947489657992039  1.0000
  N   N11       1.0  0.21574687108705604  0.7638203737729016  0.49474462521808965  1.0000
  N   N12       1.0  0.21575755665546828  0.7638034686166577  0.005255231563801  1.0000
  O   O1        1.0  0.9402199779501214  0.013914408204392702  0.5688478409487914  1.0000
  O   O2        1.0  0.940248871436516  0.013898784059719602  0.9311514754234835  1.0000
  O   O3        1.0  0.05976187549836717  0.9861069462123526  0.43114759890836757  1.0000
  O   O4        1.0  0.059723028382336577  0.986074736819589  0.06885348345459621  1.0000
