data_image0
_chemical_formula_structural       Zn6H40C60O24F8
_chemical_formula_sum              "Zn6 H40 C60 O24 F8"
_cell_length_a       19.47611372147653
_cell_length_b       19.475864793861643
_cell_length_c       19.475951675545797
_cell_angle_alpha    105.02160781262656
_cell_angle_beta     111.74098481379565
_cell_angle_gamma    111.74114408248096

_space_group_name_H-M_alt    "P 1"
_space_group_IT_number       1

loop_
  _space_group_symop_operation_xyz
  'x, y, z'

loop_
  _atom_site_type_symbol
  _atom_site_label
  _atom_site_symmetry_multiplicity
  _atom_site_fract_x
  _atom_site_fract_y
  _atom_site_fract_z
  _atom_site_occupancy
  Zn  Zn1       1.0  0.5594685098295289  0.5594705738539433  2.195306422199604e-06  1.0000
  Zn  Zn2       1.0  7.591960696067304e-07  0.5541578706888046  0.5541585771105773  1.0000
  Zn  Zn3       1.0  0.9999981391795815  0.4458343926352908  0.4458362271194288  1.0000
  Zn  Zn4       1.0  0.5594671770197408  1.8677227579506855e-07  0.5594698744509045  1.0000
  Zn  Zn5       1.0  0.4405292829212116  0.44053418963827073  4.64404688926666e-06  1.0000
  Zn  Zn6       1.0  0.4405307942898915  3.7101289151669314e-06  0.4405342102540146  1.0000
  H   H1        1.0  0.6968727350072754  0.44316889503366497  0.023360799752552494  1.0000
  H   H2        1.0  0.30375742108689985  0.7653193132770115  0.35029886580583286  1.0000
  H   H3        1.0  0.30312817585593876  0.3264890108675046  0.7462966401664488  1.0000
  H   H4        1.0  0.2391019514479424  0.2978469113398318  0.6395430872019786  1.0000
  H   H5        1.0  0.3425748364457704  0.30819852517437596  0.678659133439389  1.0000
  H   H6        1.0  0.3508019181620624  0.43251481934102276  0.6594195020866563  1.0000
  H   H7        1.0  0.4150187920210728  0.46155897810225355  0.7653211246889313  1.0000
  H   H8        1.0  0.5801949594698855  0.023360171064013033  0.3264879651353709  1.0000
  H   H9        1.0  0.6583116399619086  0.05874471192601041  0.29785213703381413  1.0000
  H   H10       1.0  0.6295391640413261  0.9656201083661105  0.30820130851769545  1.0000
  H   H11       1.0  0.7730934356005932  0.08170537224287222  0.43252089409140365  1.0000
  H   H12       1.0  0.760895634755606  0.4004390783831082  0.058745281687627854  1.0000
  H   H13       1.0  0.6962309534101294  0.046533693497273924  0.46155816994605897  1.0000
  H   H14       1.0  0.5801951948027055  0.5568311818679916  0.25370274411669413  1.0000
  H   H15       1.0  0.6583066363873302  0.5995603226728008  0.36045784359132693  1.0000
  H   H16       1.0  0.629539494613617  0.6639167205357451  0.3213378824265333  1.0000
  H   H17       1.0  0.7730963214681523  0.691385746891747  0.3405818159498749  1.0000
  H   H18       1.0  0.6962390202915075  0.6496980867972794  0.23468052931696798  1.0000
  H   H19       1.0  0.696865372246755  0.2536996641538352  0.6735065188583818  1.0000
  H   H20       1.0  0.7608953319691877  0.36045511202337366  0.702150784247486  1.0000
  H   H21       1.0  0.6574203958317785  0.321339426383446  0.6917970720569714  1.0000
  H   H22       1.0  0.649198475996947  0.340580626284172  0.5674829853225487  1.0000
  H   H23       1.0  0.6574204086971704  0.33608356783998505  0.9656218337647855  1.0000
  H   H24       1.0  0.584981155907201  0.2346785289165537  0.5384369410948436  1.0000
  H   H25       1.0  0.41980904983945777  0.6735096377392792  0.9766394296728291  1.0000
  H   H26       1.0  0.34169682351481623  0.7021507926287214  0.941254026519779  1.0000
  H   H27       1.0  0.3704648417287188  0.6918005625713305  0.034377842779321155  1.0000
  H   H28       1.0  0.2269092679154241  0.5674835744448643  0.91829348735979  1.0000
  H   H29       1.0  0.3037665609048831  0.5384407881893267  0.9534622870995405  1.0000
  H   H30       1.0  0.30312853911501514  0.9766376714290388  0.5568283578744229  1.0000
  H   H31       1.0  0.2391019266747991  0.9412510504274395  0.5995539100361427  1.0000
  H   H32       1.0  0.3425757580374551  0.034377965780350815  0.6639120299352825  1.0000
  H   H33       1.0  0.3508066349115212  0.9182931991106783  0.6913845817428808  1.0000
  H   H34       1.0  0.6491911847891743  0.30861496557444207  0.08170764924378203  1.0000
  H   H35       1.0  0.4150214960538536  0.9534648890792637  0.6496972419926407  1.0000
  H   H36       1.0  0.5849807596580234  0.35030396064284713  0.04653697961183665  1.0000
  H   H37       1.0  0.4198073481534197  0.7463047327580625  0.44316872827984344  1.0000
  H   H38       1.0  0.34169914091355497  0.6395494902758045  0.4004432487041357  1.0000
  H   H39       1.0  0.3704623430705424  0.6786655568165967  0.3360844730898832  1.0000
  H   H40       1.0  0.22690418084214048  0.6594164750655974  0.30861562243125445  1.0000
  C   C1        1.0  0.6174518789912041  0.5000035618497518  0.117450033336837  1.0000
  C   C2        1.0  0.5000155088575441  0.10946659502436515  0.6094753093062548  1.0000
  C   C3        1.0  0.6943635331871577  0.30673552721952996  0.6655781160885323  1.0000
  C   C4        1.0  0.2862835632700255  0.5733178003279208  0.921119561152473  1.0000
  C   C5        1.0  0.3588442877641853  0.6655785141540987  0.9712121372518112  1.0000
  C   C6        1.0  0.34780121484381993  0.9211205420105629  0.6348364602575103  1.0000
  C   C7        1.0  0.3056329437560523  0.9712114227336104  0.6123667343596609  1.0000
  C   C8        1.0  0.6521994376824906  0.3651637245089176  0.07888095991645364  1.0000
  C   C9        1.0  0.6943662124126676  0.3876295460262539  0.028787217445646673  1.0000
  C   C10       1.0  0.2862793615526869  0.7129618372225366  0.36516183805779423  1.0000
  C   C11       1.0  0.35884330400035946  0.6932684050063642  0.387629888547437  1.0000
  C   C12       1.0  0.3477991917884965  0.4266810748473945  0.7129628995371319  1.0000
  C   C13       1.0  0.499989261302126  0.3905341158955338  0.8905431024027946  1.0000
  C   C14       1.0  0.3056336718673195  0.33442152762513905  0.6932630812561198  1.0000
  C   C15       1.0  0.7137169594035414  0.07887878637134799  0.42668264978275505  1.0000
  C   C16       1.0  0.6411604504188234  0.028786537761163633  0.33442233402186616  1.0000
  C   C17       1.0  0.7137203923647346  0.6348372877324805  0.2870391375102699  1.0000
  C   C18       1.0  0.6411598550796215  0.6123711208138545  0.30673727502399123  1.0000
  C   C19       1.0  0.6522009399206823  0.28703710350234246  0.5733181282500794  1.0000
  C   C20       1.0  0.49998229023250224  0.8905388778135264  0.3905276527083501  1.0000
  C   C21       1.0  0.5000104582902553  0.6094676754455294  0.10946218180455253  1.0000
  C   C22       1.0  0.5000091180784308  0.6700062340803044  0.17000804380291604  1.0000
  C   C23       1.0  0.5000112394085576  0.17000969639659752  0.6700130513581328  1.0000
  C   C24       1.0  0.499994374649127  0.3299974619262045  0.8300001586081647  1.0000
  C   C25       1.0  0.3825478597707744  0.8825504329093831  0.4999988088842996  1.0000
  C   C26       1.0  0.49998744882093893  0.8299960446801153  0.3299872287216773  1.0000
  C   C27       1.0  0.49999376993972783  0.7216389565012519  0.2216382233691263  1.0000
  C   C28       1.0  0.4999901458899459  0.22163605502347394  0.7216358574640009  1.0000
  C   C29       1.0  0.4999992925199237  0.27835929347597943  0.7783590558785035  1.0000
  C   C30       1.0  0.5000008246873834  0.7783588590541938  0.27836029463707485  1.0000
  C   C31       1.0  0.3825466378583045  0.49999516183056864  0.882551441789161  1.0000
  C   C32       1.0  0.7005338631617094  0.43394522319488255  0.16638883867864954  1.0000
  C   C33       1.0  0.2675554366564939  0.7334084562133113  0.4339445219241895  1.0000
  C   C34       1.0  0.29946628939896414  0.4658552361727999  0.7334115609850399  1.0000
  C   C35       1.0  0.7324428632731781  0.1663864172638652  0.4658547683459559  1.0000
  C   C36       1.0  0.7324434570422087  0.5660552422817632  0.2665936174671515  1.0000
  C   C37       1.0  0.7005362772614134  0.26658864585202474  0.534147963550147  1.0000
  C   C38       1.0  0.26755717460508077  0.5341467391434093  0.8336121315685504  1.0000
  C   C39       1.0  0.6174501042056378  0.11744773862239537  0.5000012912980195  1.0000
  C   C40       1.0  0.29946536315189587  0.8336124789523822  0.5660548557359916  1.0000
  C   C41       1.0  0.7652617168266506  0.4366844967168861  0.23202333551712695  1.0000
  C   C42       1.0  0.2046612778023941  0.6714203692969034  0.43668486219353025  1.0000
  C   C43       1.0  0.23473986346294864  0.46676468692233203  0.6714248122395433  1.0000
  C   C44       1.0  0.795340803616071  0.23202122559365518  0.4667630408254978  1.0000
  C   C45       1.0  0.7953390872594713  0.5633143787276254  0.3285808195107479  1.0000
  C   C46       1.0  0.7652601767266772  0.32857343182887155  0.5332357591386269  1.0000
  C   C47       1.0  0.20466189492126577  0.5332394124578527  0.7679764380053129  1.0000
  C   C48       1.0  0.23473883321483419  0.7679759010432576  0.5633155029731823  1.0000
  C   C49       1.0  0.8143544298912815  0.500000189038957  0.31435272672038655  1.0000
  C   C50       1.0  0.18564869493503292  0.6856456308094182  0.5000015757575796  1.0000
  C   C51       1.0  0.1856471876047295  0.5000010136484009  0.6856474591851479  1.0000
  C   C52       1.0  0.8143531844366904  0.3143502328484684  0.4999988610398487  1.0000
  C   C53       1.0  0.11718948712085363  0.6171828953569474  0.49999772668768827  1.0000
  C   C54       1.0  0.11718641076815561  0.49999485108565966  0.6171848698693835  1.0000
  C   C55       1.0  0.8828095535204384  0.38280515624307276  0.4999929558060499  1.0000
  C   C56       1.0  0.8828134963698419  0.4999965550741478  0.3828080313761504  1.0000
  C   C57       1.0  0.6860688768747282  0.5000015734634501  0.1860689714426513  1.0000
  C   C58       1.0  0.3139315149598049  0.8139318031500196  0.4999995148035551  1.0000
  C   C59       1.0  0.31393274061578313  0.4999996284086378  0.8139327546105262  1.0000
  C   C60       1.0  0.6860665686431915  0.1860652435221652  0.5000003375639962  1.0000
  O   O1        1.0  0.6425241041835791  0.5447898646646935  0.08420331494735223  1.0000
  O   O2        1.0  0.46058193089260163  0.9022678832255052  0.5447863429734099  1.0000
  O   O3        1.0  0.35747461072251946  0.44167661677601433  0.9022636951288517  1.0000
  O   O4        1.0  0.53941688100101  0.08420056022008283  0.4416842932095263  1.0000
  O   O5        1.0  0.539419441692438  0.45521981808528983  0.09773555050097843  1.0000
  O   O6        1.0  0.6425216781889348  0.09773715749885516  0.558322314233635  1.0000
  O   O7        1.0  0.46057974361003307  0.5583145042967174  0.9157990147487708  1.0000
  O   O8        1.0  0.3574769542330997  0.9157966116475861  0.4552129296026236  1.0000
  O   O9        1.0  0.5595500245736885  0.637420376613754  0.09326754030160338  1.0000
  O   O10       1.0  0.5441610747061745  0.07787986631331725  0.6374291366022574  1.0000
  O   O11       1.0  0.44046836867713063  0.5337324918727829  0.07787309896238526  1.0000
  O   O12       1.0  0.4558685254272632  0.09327194589971552  0.5337399941699416  1.0000
  O   O13       1.0  0.45584593130742235  0.3625848110476396  0.9221328942945844  1.0000
  O   O14       1.0  0.5595232727186572  0.9221281021610396  0.466263399493009  1.0000
  O   O15       1.0  0.5441352859973352  0.4662729191855633  0.9067384067226739  1.0000
  O   O16       1.0  0.44044448095315414  0.9067346524697656  0.3625760108762961  1.0000
  O   O17       1.0  0.10668436722382782  0.5450432191297878  0.47031880551710975  1.0000
  O   O18       1.0  0.07472590329640391  0.4383598821552043  0.5450462257759625  1.0000
  O   O19       1.0  0.893313342815347  0.3636279774925982  0.4383579404842238  1.0000
  O   O20       1.0  0.9252716644844627  0.47031552727827364  0.36363258843145013  1.0000
  O   O21       1.0  0.9252709990382402  0.45495238463785626  0.5616387340637415  1.0000
  O   O22       1.0  0.10668464333801354  0.5616402682111357  0.6363718130192169  1.0000
  O   O23       1.0  0.07473180677038732  0.6363698812183785  0.5296861840435766  1.0000
  O   O24       1.0  0.8933165782016061  0.5296853903405815  0.4549559669027443  1.0000
  F   F1        1.0  0.7792220076597758  0.37264950535381286  0.21451173686277505  1.0000
  F   F2        1.0  0.15813167623455368  0.5934239631289201  0.3726494340218095  1.0000
  F   F3        1.0  0.22078171654234782  0.4353022362329071  0.5934292072553403  1.0000
  F   F4        1.0  0.8418694936730091  0.214511528820445  0.4353002082125527  1.0000
  F   F5        1.0  0.8418632653380771  0.6273471178902098  0.40657967655342736  1.0000
  F   F6        1.0  0.7792243204986846  0.4065732921924976  0.5646996958506775  1.0000
  F   F7        1.0  0.15813730593273348  0.5647108258261114  0.7854866551920451  1.0000
  F   F8        1.0  0.22077836533938486  0.7854849073528385  0.6273510545561648  1.0000
