data_image0
_chemical_formula_structural       Al4H41C64N2ClO20
_chemical_formula_sum              "Al4 H41 C64 N2 Cl1 O20"
_cell_length_a       6.658350154812504
_cell_length_b       22.416590978276293
_cell_length_c       23.844103794251776
_cell_angle_alpha    112.74306302844123
_cell_angle_beta     89.96043234024654
_cell_angle_gamma    89.94756400232772

_space_group_name_H-M_alt    "P 1"
_space_group_IT_number       1

loop_
  _space_group_symop_operation_xyz
  'x, y, z'

loop_
  _atom_site_type_symbol
  _atom_site_label
  _atom_site_symmetry_multiplicity
  _atom_site_fract_x
  _atom_site_fract_y
  _atom_site_fract_z
  _atom_site_occupancy
  Al  Al1       1.0  0.1194919412995219  0.4994271284480689  0.4993554915813263  1.0000
  Al  Al2       1.0  0.6190471577154354  0.5022737718994605  0.5023425896177756  1.0000
  Al  Al3       1.0  0.6905278213168557  0.0023800994562535004  0.0028641669064555  1.0000
  Al  Al4       1.0  0.1908216874116064  0.9996501726875237  0.0005295673157020923  1.0000
  H   H1        1.0  0.6270187121854676  0.07356123807715419  0.8670135088096487  1.0000
  H   H2        1.0  0.6282051827861393  0.13643458807062808  0.8000373604697728  1.0000
  H   H3        1.0  0.2393250156653224  0.13036584442468066  0.916293233296692  1.0000
  H   H4        1.0  0.17057696356763324  0.1649840193068144  0.7271123168795555  1.0000
  H   H5        1.0  0.15003464461327806  0.23152547788392744  0.6658660360483779  1.0000
  H   H6        1.0  0.639547164484739  0.33272989028850475  0.7711534348810574  1.0000
  H   H7        1.0  0.6615346644029714  0.26627103487832926  0.8327542555646942  1.0000
  H   H8        1.0  0.5625221781564278  0.33721773873882915  0.6801517573400062  1.0000
  H   H9        1.0  0.5532252967602034  0.40333085527461054  0.6167615318900772  1.0000
  H   H10       1.0  0.19508361585643294  0.3947087755094146  0.6023811321393922  1.0000
  H   H11       1.0  0.2084598875686225  0.3298893337533285  0.6668227397788513  1.0000
  H   H12       1.0  0.13871119490163147  0.3143370740114975  0.3546705203353824  1.0000
  H   H13       1.0  0.563370062253064  0.3826162757045353  0.3225874448369765  1.0000
  H   H14       1.0  0.5371891100505052  0.28943101026555945  0.22287591101414958  1.0000
  H   H15       1.0  0.24503695173311965  0.1162954337238062  0.17954151563260726  1.0000
  H   H16       1.0  0.6711222571359413  0.18633418011911118  0.1484365104785468  1.0000
  H   H17       1.0  0.6443725200570541  0.6846028998592288  0.6503491672327472  1.0000
  H   H18       1.0  0.0563790949568883  0.6197210313588498  0.6755433393525294  1.0000
  H   H19       1.0  0.7767081663359219  0.7870022077738524  0.7251786864963563  1.0000
  H   H20       1.0  0.7505278440238782  0.8799541607441268  0.8252051390948836  1.0000
  H   H21       1.0  0.1662061827379731  0.8173532638636587  0.8540759715778917  1.0000
  H   H22       1.0  0.1168752171308824  0.8967864967767268  0.10332702303919916  1.0000
  H   H23       1.0  0.10167909715312361  0.8305206777897067  0.16638909489179093  1.0000
  H   H24       1.0  0.7469330919370377  0.8390888648739009  0.18211549050863604  1.0000
  H   H25       1.0  0.7588095170025467  0.9041052575704142  0.1177823441773568  1.0000
  H   H26       1.0  0.6938791898740175  0.7389340614010464  0.18027544916714794  1.0000
  H   H27       1.0  0.679206552306425  0.6714457442285919  0.24037476045498346  1.0000
  H   H28       1.0  0.11947277474539672  0.7618291539920603  0.3198517477741304  1.0000
  H   H29       1.0  0.1342479690691221  0.8292777229203666  0.2597086941627751  1.0000
  H   H30       1.0  0.06705651611454748  0.6619186197789305  0.318613486293593  1.0000
  H   H31       1.0  0.0554656391441384  0.5985492551149322  0.3844592525191359  1.0000
  H   H32       1.0  0.6976548386400052  0.6052908702845842  0.3977865779990921  1.0000
  H   H33       1.0  0.7122919645925593  0.6705125145362486  0.33376727501815395  1.0000
  H   H34       1.0  0.8708634233321179  0.6818635213543729  0.7638285323369587  1.0000
  H   H35       1.0  0.9459093614670165  0.7541163449414369  0.8148961034169844  1.0000
  H   H36       1.0  0.2811946313180655  0.22612011168853025  0.8239329644488792  1.0000
  H   H37       1.0  0.40273191566365085  0.1961192217120953  0.8707831386187266  1.0000
  H   H38       1.0  0.3760984527390291  0.41653248164519147  0.4652580965142974  1.0000
  H   H39       1.0  0.8748578621410914  0.5859248485419712  0.5300348802326695  1.0000
  H   H40       1.0  0.4377583584902636  0.0756949331414276  0.9949384383292212  1.0000
  H   H41       1.0  0.9341949188083163  0.9163467709100459  0.9672000255116443  1.0000
  C   C1        1.0  0.3649043427420083  0.5923407044822183  0.5978307827958956  1.0000
  C   C2        1.0  0.3699321667315941  0.5624647241732247  0.4363381754359209  1.0000
  C   C3        1.0  0.8662739313269867  0.40905791626806837  0.4039060389482927  1.0000
  C   C4        1.0  0.8688265964069047  0.43935085695233767  0.5651727264835742  1.0000
  C   C5        1.0  0.7587766565340672  0.1008265618971365  0.8638058752112556  1.0000
  C   C6        1.0  0.7600547624049624  0.1364404306438232  0.8272559960534878  1.0000
  C   C7        1.0  0.928890906168867  0.17169035645575548  0.8225510313754683  1.0000
  C   C8        1.0  0.10536104177290889  0.1700515491189805  0.8554826651451677  1.0000
  C   C9        1.0  0.10512243744576469  0.1323101164760487  0.890829058200211  1.0000
  C   C10       1.0  0.9339242909731879  0.09890843312580698  0.8958450703663348  1.0000
  C   C11       1.0  0.05632858393822459  0.2027886857667269  0.7379123425024473  1.0000
  C   C12       1.0  0.0444672385883536  0.24032356008725483  0.7032173341903204  1.0000
  C   C13       1.0  0.8945365835495662  0.287814850790383  0.714112471431129  1.0000
  C   C14       1.0  0.7551179876280116  0.2954713540085834  0.7607272486399381  1.0000
  C   C15       1.0  0.7671973612341602  0.25794326890091657  0.795461034759164  1.0000
  C   C16       1.0  0.9184244421347998  0.21104874527252093  0.7850730806220199  1.0000
  C   C17       1.0  0.7022628896220198  0.3503256273691021  0.6639196299692857  1.0000
  C   C18       1.0  0.6956290619048886  0.3868863231994765  0.6282429516199102  1.0000
  C   C19       1.0  0.8734573118252128  0.4024444192900276  0.6054909411873624  1.0000
  C   C20       1.0  0.057908876727239496  0.3816833209878824  0.6198691577415545  1.0000
  C   C21       1.0  0.0638339538830976  0.3451336340596781  0.6554390645623727  1.0000
  C   C22       1.0  0.8862135249688874  0.32814925385801524  0.677725989616249  1.0000
  C   C23       1.0  0.8544196765754322  0.35357359914010533  0.34396472774719916  1.0000
  C   C24       1.0  0.9564691148647596  0.14704585524606978  0.1580459798164995  1.0000
  C   C25       1.0  0.14122835206227788  0.20350470327433354  0.25075827550661967  1.0000
  C   C26       1.0  0.12757468331976438  0.1528358771413352  0.1951638604212462  1.0000
  C   C27       1.0  0.8037369982312937  0.19231842479135958  0.17693628637845646  1.0000
  C   C28       1.0  0.8201270513569623  0.24666577212983748  0.2324371570551023  1.0000
  C   C29       1.0  0.992677059239419  0.2533580745760347  0.2707936746988793  1.0000
  C   C30       1.0  0.0072566108509662  0.30816573178683637  0.3258378298310873  1.0000
  C   C31       1.0  0.6823711052102864  0.34653314281305814  0.3068663379314884  1.0000
  C   C32       1.0  0.6680851590130032  0.29491305349607433  0.25198564042110416  1.0000
  C   C33       1.0  0.3525386918370899  0.6474876733946713  0.6580359402085775  1.0000
  C   C34       1.0  0.4543992497530099  0.8528126990926735  0.8448608028718212  1.0000
  C   C35       1.0  0.6444981353927091  0.7929459211132437  0.753944594420389  1.0000
  C   C36       1.0  0.630130246555602  0.8444977023328446  0.8089108701350511  1.0000
  C   C37       1.0  0.29819536541314307  0.8088531628316319  0.8248983818395245  1.0000
  C   C38       1.0  0.3118052231883297  0.7540852647776148  0.7697475633231291  1.0000
  C   C39       1.0  0.48977131742682184  0.745730020254669  0.7331606008470715  1.0000
  C   C40       1.0  0.5092315578008667  0.6913192597681856  0.6779526447770295  1.0000
  C   C41       1.0  0.176211833478888  0.6552417303773552  0.6929708423395836  1.0000
  C   C42       1.0  0.15483414314715557  0.7063697069752307  0.7490108988076046  1.0000
  C   C43       1.0  0.2534661223267278  0.8837840920362365  0.12109496738523241  1.0000
  C   C44       1.0  0.2463320414733801  0.847233931456273  0.15665026069240176  1.0000
  C   C45       1.0  0.4234314002719301  0.829545705955326  0.17862872258621115  1.0000
  C   C46       1.0  0.608201387580543  0.8507970581500784  0.1642703722333677  1.0000
  C   C47       1.0  0.6160420599813249  0.8874692497210716  0.12875403892681442  1.0000
  C   C48       1.0  0.43864631829478634  0.9038902380251274  0.10647541667352563  1.0000
  C   C49       1.0  0.5688079623308367  0.744976929450715  0.21158804976614226  1.0000
  C   C50       1.0  0.5605052495264856  0.706791285226238  0.24565853573915317  1.0000
  C   C51       1.0  0.3982354557104912  0.7112763699711734  0.28494792615661163  1.0000
  C   C52       1.0  0.2444491771600497  0.7557045651738649  0.2884893098677495  1.0000
  C   C53       1.0  0.2527656110940412  0.7938729091232514  0.2544015075953111  1.0000
  C   C54       1.0  0.41511781407586296  0.7894262280307912  0.2151753060846743  1.0000
  C   C55       1.0  0.2059122126288955  0.6505273915659585  0.336638188113362  1.0000
  C   C56       1.0  0.19823584809066117  0.6147624678281786  0.37299399865325  1.0000
  C   C57       1.0  0.37577304010233087  0.5986879944141776  0.39546101766410413  1.0000
  C   C58       1.0  0.5608047375163139  0.6181350891796453  0.38003043763123395  1.0000
  C   C59       1.0  0.5677833867467611  0.6540235670264068  0.34385817172470473  1.0000
  C   C60       1.0  0.3904395757277968  0.6714535164608789  0.32179576754559486  1.0000
  C   C61       1.0  0.4448776611522405  0.9410399439890893  0.06656286728137666  1.0000
  C   C62       1.0  0.44157309296486597  0.9078238823984532  0.9049759490630079  1.0000
  C   C63       1.0  0.9360496118201523  0.062258735891767  0.9364008527129216  1.0000
  C   C64       1.0  0.9475059166536752  0.0919353203085791  0.0977383596685399  1.0000
  N   N1        1.0  0.9894421444602769  0.7098552836836942  0.7851083923426287  1.0000
  N   N2        1.0  0.27056160173145116  0.2076618556755747  0.8564413658638159  1.0000
  Cl  Cl1       1.0  0.34253099654293345  0.20578939529038104  0.2976274469759232  1.0000
  O   O1        1.0  0.5389303805943442  0.5503007174315329  0.4546756337636921  1.0000
  O   O2        1.0  0.1983316557406312  0.5688788458465126  0.572869112965158  1.0000
  O   O3        1.0  0.03792727467771329  0.4513323502938603  0.5468337565002983  1.0000
  O   O4        1.0  0.198259461104513  0.5473734953752896  0.4506361681656799  1.0000
  O   O5        1.0  0.0394108984588257  0.42848526835020095  0.426196288509189  1.0000
  O   O6        1.0  0.538205670296641  0.5731447364524556  0.5753502040582461  1.0000
  O   O7        1.0  0.37070091740496025  0.4617805982515576  0.4921515609377635  1.0000
  O   O8        1.0  0.6990822575498397  0.43229842967937054  0.4288059700300906  1.0000
  O   O9        1.0  0.6973841255034614  0.455006806088022  0.5513371366574306  1.0000
  O   O10       1.0  0.8704868892683066  0.5393923286338449  0.5088990283129036  1.0000
  O   O11       1.0  0.26751617612454476  0.9294631977138436  0.9252988091152973  1.0000
  O   O12       1.0  0.6151227035790042  0.960478558751099  0.055976518160626744  1.0000
  O   O13       1.0  0.7768952104826851  0.07584291341958499  0.07225447080956117  1.0000
  O   O14       1.0  0.6084414117527713  0.9283246293466405  0.9316757523452495  1.0000
  O   O15       1.0  0.7657290419414835  0.04527757212593998  0.9497368420650859  1.0000
  O   O16       1.0  0.277961790796688  0.949836695871369  0.044859630216109274  1.0000
  O   O17       1.0  0.43908996306383585  0.0396918793840939  0.007853805403215097  1.0000
  O   O18       1.0  0.105834287622713  0.051397057479853486  0.9555184932758536  1.0000
  O   O19       1.0  0.11475135767592091  0.06581093506544282  0.0759624691912961  1.0000
  O   O20       1.0  0.9395332724181386  0.9619480116184177  0.9928568411303261  1.0000
