data_image0
_chemical_formula_structural       Hg2H20C14S4Cl4
_chemical_formula_sum              "Hg2 H20 C14 S4 Cl4"
_cell_length_a       4.902084066017863
_cell_length_b       8.707723059135583
_cell_length_c       12.056383065183269
_cell_angle_alpha    90.00052575382199
_cell_angle_beta     89.99968467509103
_cell_angle_gamma    90.00024389265862

_space_group_name_H-M_alt    "P 1"
_space_group_IT_number       1

loop_
  _space_group_symop_operation_xyz
  'x, y, z'

loop_
  _atom_site_type_symbol
  _atom_site_label
  _atom_site_symmetry_multiplicity
  _atom_site_fract_x
  _atom_site_fract_y
  _atom_site_fract_z
  _atom_site_occupancy
  Hg  Hg1       1.0  0.8057740168639855  0.7499949145482955  0.24999287859160546  1.0000
  Hg  Hg2       1.0  0.19424591335855726  0.25001286136213696  0.7499958732642111  1.0000
  H   H1        1.0  0.6815933167732523  0.4552644251429996  0.41429587174088317  1.0000
  H   H2        1.0  0.681697746568503  0.45522787125349135  0.0857022975845112  1.0000
  H   H3        1.0  0.6817419235898113  0.0447460869584049  0.4142903734466117  1.0000
  H   H4        1.0  0.6817769950533547  0.04473594655907219  0.08572748858517089  1.0000
  H   H5        1.0  0.31828381688391266  0.5447513897001953  0.5857202516792341  1.0000
  H   H6        1.0  0.31829770414083214  0.5447638269927777  0.9142914308601391  1.0000
  H   H7        1.0  0.3182616868081852  0.9552410177382383  0.5857141376446506  1.0000
  H   H8        1.0  0.3182918938199393  0.9552683842472547  0.914274534188138  1.0000
  H   H9        1.0  0.3406827875367143  0.38317535580157613  0.4156968977909372  1.0000
  H   H10       1.0  0.3407586789603983  0.38314567429775087  0.0842840701988266  1.0000
  H   H11       1.0  0.34080365981636623  0.11680491862900061  0.41572173359845266  1.0000
  H   H12       1.0  0.34084691233098857  0.11679131463404954  0.08428485244387929  1.0000
  H   H13       1.0  0.6592290252182949  0.6167933742155396  0.5842868774290649  1.0000
  H   H14       1.0  0.6592286116758502  0.6168081266041481  0.9157179524909154  1.0000
  H   H15       1.0  0.6591917909451156  0.8831948184528357  0.5842711654364905  1.0000
  H   H16       1.0  0.6592240165581132  0.8832118677039701  0.9157072170897322  1.0000
  H   H17       1.0  0.9998390272445123  0.14390432367235914  0.2500197175441627  1.0000
  H   H18       1.0  0.9997770036858215  0.3561561358025145  0.2500038273772702  1.0000
  H   H19       1.0  0.00021354208599430003  0.8561264205489391  0.7499964057472254  1.0000
  H   H20       1.0  0.00022456703295150002  0.6438780535323118  0.7500006838710005  1.0000
  C   C1        1.0  0.6166082851020959  0.2500137585540969  0.31316542966386146  1.0000
  C   C2        1.0  0.6166194198030512  0.24999113092103895  0.18685308600129244  1.0000
  C   C3        1.0  0.38340756510984875  0.7500032047439118  0.6868457170024768  1.0000
  C   C4        1.0  0.3834005101616924  0.7500005674508969  0.8131580605777696  1.0000
  C   C5        1.0  0.5230811962905336  0.3996880600270811  0.3641688755849087  1.0000
  C   C6        1.0  0.5231420450871909  0.39966707662939877  0.13582759057977256  1.0000
  C   C7        1.0  0.5231672006226233  0.10030440009662557  0.3641778434985952  1.0000
  C   C8        1.0  0.5231974503488318  0.10030064271563788  0.13582826421962577  1.0000
  C   C9        1.0  0.47685713583601336  0.6003013413795414  0.6358256823462369  1.0000
  C   C10       1.0  0.4768513654599218  0.6003119892734858  0.86418521485691  1.0000
  C   C11       1.0  0.4768404898030099  0.8996861497244095  0.635811737749094  1.0000
  C   C12       1.0  0.4768510390957844  0.8997117269090606  0.8641720997285064  1.0000
  C   C13       1.0  0.8813471746013734  0.25001350883458423  0.2500110630674826  1.0000
  C   C14       1.0  0.11865439595213452  0.7500057512933151  0.7500042308016646  1.0000
  S   S1        1.0  0.4302977545422025  0.5288955649094615  0.24998589615823616  1.0000
  S   S2        1.0  0.43033700424660287  0.9711007171870912  0.2500055989538907  1.0000
  S   S3        1.0  0.5696752568134543  0.47110187531048103  0.7500011968388234  1.0000
  S   S4        1.0  0.5696808860066654  0.028901316682357986  0.7499814940127862  1.0000
  Cl  Cl1       1.0  0.0173637807832847  0.7500058990476075  0.0641585076408262  1.0000
  Cl  Cl2       1.0  0.017371228927729004  0.7499933471351736  0.43583714253919226  1.0000
  Cl  Cl3       1.0  0.9826479895484753  0.24999154123736383  0.9358352208061687  1.0000
  Cl  Cl4       1.0  0.9826221818806432  0.2500109835953452  0.5641599036937066  1.0000
