data_image0
_chemical_formula_structural       Ag4H16C24N4O12
_chemical_formula_sum              "Ag4 H16 C24 N4 O12"
_cell_length_a       5.732389112069169
_cell_length_b       8.951080701067552
_cell_length_c       12.500014292360085
_cell_angle_alpha    104.9080384555282
_cell_angle_beta     89.99956860106207
_cell_angle_gamma    90.0005031246177

_space_group_name_H-M_alt    "P 1"
_space_group_IT_number       1

loop_
  _space_group_symop_operation_xyz
  'x, y, z'

loop_
  _atom_site_type_symbol
  _atom_site_label
  _atom_site_symmetry_multiplicity
  _atom_site_fract_x
  _atom_site_fract_y
  _atom_site_fract_z
  _atom_site_occupancy
  Ag  Ag1       1.0  0.4812577491308827  0.0404507263207989  0.6643791931645706  1.0000
  Ag  Ag2       1.0  0.9812582539624727  0.9595400112224373  0.8356184194634008  1.0000
  Ag  Ag3       1.0  0.5187384100500338  0.9595469666919532  0.33562038778840997  1.0000
  Ag  Ag4       1.0  0.018739649676007296  0.0404518906573657  0.16437851315569665  1.0000
  H   H1        1.0  0.8504535115961146  0.3981543510945685  0.48208248517617835  1.0000
  H   H2        1.0  0.35044601611264875  0.601838019975553  0.017916635404809336  1.0000
  H   H3        1.0  0.14954788101208288  0.601850299863422  0.5179215553328047  1.0000
  H   H4        1.0  0.6495675877773904  0.3981550487374435  0.9820821084269722  1.0000
  H   H5        1.0  0.5166428054774242  0.4926687926828708  0.6077491179897334  1.0000
  H   H6        1.0  0.016635859408907498  0.507324341775153  0.8922503379361897  1.0000
  H   H7        1.0  0.48336207605922243  0.507332390027301  0.3922542946887403  1.0000
  H   H8        1.0  0.9833742555332136  0.49266988836996023  0.10774941615198941  1.0000
  H   H9        1.0  0.4672963926631937  0.3946195821563451  0.7780316420601988  1.0000
  H   H10       1.0  0.9672905921939544  0.6053710937947729  0.7219668017868911  1.0000
  H   H11       1.0  0.5326962775454972  0.6053746479469524  0.22196811204687344  1.0000
  H   H12       1.0  0.032705566974748  0.3946312503349746  0.2780376211536576  1.0000
  H   H13       1.0  0.7548449981391768  0.21015697599255392  0.8196755444498434  1.0000
  H   H14       1.0  0.25484584786971715  0.789832681461995  0.6803233594827629  1.0000
  H   H15       1.0  0.24514767208050608  0.789833764434228  0.18032037792229258  1.0000
  H   H16       1.0  0.7451503113196836  0.21017080804297453  0.31967967077926557  1.0000
  C   C1        1.0  0.9547488612188458  0.18015620313310882  0.6690430836818562  1.0000
  C   C2        1.0  0.4547438745986056  0.8198355687512803  0.8309555966133358  1.0000
  C   C3        1.0  0.04524555346926459  0.8198391830597632  0.33095687969890963  1.0000
  C   C4        1.0  0.5452522845932463  0.18016559787273687  0.16904541314342936  1.0000
  C   C5        1.0  0.9793175874246174  0.24325371385646835  0.5739959919751597  1.0000
  C   C6        1.0  0.47931347359001814  0.7567450962619591  0.9260014878344547  1.0000
  C   C7        1.0  0.020685549655759396  0.7567451352584059  0.42600379824584417  1.0000
  C   C8        1.0  0.5206896634952115  0.24325607037878433  0.07399952191476439  1.0000
  C   C9        1.0  0.8217123479444763  0.3548574514657475  0.5546864575119271  1.0000
  C   C10       1.0  0.3217028466641522  0.6451348601236476  0.9453159240808018  1.0000
  C   C11       1.0  0.178294278108126  0.6451448605585813  0.44531315955499196  1.0000
  C   C12       1.0  0.6782968014537543  0.3548581978457294  0.0546812178119893  1.0000
  C   C13       1.0  0.6363338648595301  0.4071753519579032  0.6245611492655383  1.0000
  C   C14       1.0  0.13632317670777638  0.5928160227105298  0.8754344249976354  1.0000
  C   C15       1.0  0.36366578328508575  0.5928269707598659  0.37544006976303007  1.0000
  C   C16       1.0  0.8636869382708241  0.40718514394693983  0.12456658474402359  1.0000
  C   C17       1.0  0.6077406889276415  0.3511597434010696  0.7194686055118777  1.0000
  C   C18       1.0  0.10773251637019139  0.6488292248648335  0.7805330199362641  1.0000
  C   C19       1.0  0.3922572147400131  0.648839100346173  0.2805303837377408  1.0000
  C   C20       1.0  0.8922601538311878  0.3511650105935475  0.2194675351478637  1.0000
  C   C21       1.0  0.7626838625838842  0.24282023437206135  0.7411866549173565  1.0000
  C   C22       1.0  0.2626897988399434  0.7571775425625377  0.758812095008558  1.0000
  C   C23       1.0  0.23731055213099947  0.7571774532814289  0.2588121250604658  1.0000
  C   C24       1.0  0.7373185716944802  0.24283056595819374  0.24119097136551196  1.0000
  N   N1        1.0  0.16014644848441148  0.19593140486888672  0.49487343283690405  1.0000
  N   N2        1.0  0.6601369072362502  0.8040623874370142  0.005129722341777713  1.0000
  N   N3        1.0  0.8398514551880893  0.804069756404225  0.5051267759409298  1.0000
  N   N4        1.0  0.33986448537925895  0.19594225816589275  0.9948735171901573  1.0000
  O   O1        1.0  0.08497095688003499  0.07540322320178922  0.6925223345621914  1.0000
  O   O2        1.0  0.5849732387045208  0.9245948631916862  0.8074778104820479  1.0000
  O   O3        1.0  0.9150286912621937  0.9245944591091586  0.30747564443291237  1.0000
  O   O4        1.0  0.41502640945956404  0.07540976634178519  0.19252302612062513  1.0000
  O   O5        1.0  0.2832862359746215  0.07847485942976111  0.49800499433019485  1.0000
  O   O6        1.0  0.7832818664485116  0.9215275944099803  0.0019961551875838277  1.0000
  O   O7        1.0  0.7167116676930262  0.9215239843174816  0.5019939949194236  1.0000
  O   O8        1.0  0.21671603724345798  0.07847587367883341  0.9980036711643547  1.0000
  O   O9        1.0  0.19722987610137468  0.2685476254210571  0.4234048167170099  1.0000
  O   O10       1.0  0.6972215084118503  0.7314555398014875  0.0765919225852656  1.0000
  O   O11       1.0  0.8027697720396176  0.7314512183303707  0.5765941725307184  1.0000
  O   O12       1.0  0.30277813977655643  0.2685537140735549  0.9234097511197273  1.0000
