data_image0
_chemical_formula_structural       Co6H36C60N24
_chemical_formula_sum              "Co6 H36 C60 N24"
_cell_length_a       14.627099879745954
_cell_length_b       14.627025069490623
_cell_length_c       14.627084684478078
_cell_angle_alpha    109.47101560185844
_cell_angle_beta     109.47179617018254
_cell_angle_gamma    109.47115348616605

_space_group_name_H-M_alt    "P 1"
_space_group_IT_number       1

loop_
  _space_group_symop_operation_xyz
  'x, y, z'

loop_
  _atom_site_type_symbol
  _atom_site_label
  _atom_site_symmetry_multiplicity
  _atom_site_fract_x
  _atom_site_fract_y
  _atom_site_fract_z
  _atom_site_occupancy
  Co  Co1       1.0  0.750000983578765  0.5000008842243133  0.2500000425511144  1.0000
  Co  Co2       1.0  0.2500028129728379  0.5000014298482968  0.7500026942297424  1.0000
  Co  Co3       1.0  0.4999970647452088  0.2499990957838137  0.7499977162587257  1.0000
  Co  Co4       1.0  0.2500021621453711  0.7500009373437918  0.49999797646383115  1.0000
  Co  Co5       1.0  0.7499979510493516  0.24999685607365751  0.5000006583157272  1.0000
  Co  Co6       1.0  0.49999795549214093  0.7499969539485463  0.24999750015829383  1.0000
  H   H1        1.0  0.8812470707547461  0.6479752527150425  0.6479754132519844  1.0000
  H   H2        1.0  0.7667295270132826  0.7667240397341999  0.11874736501908947  1.0000
  H   H3        1.0  0.35202030728451217  0.2332751026183075  4.941722920584515e-06  1.0000
  H   H4        1.0  0.1187470442051791  0.7667225304543449  0.7667243514670118  1.0000
  H   H5        1.0  0.23327102617724213  0.9999982783952605  0.35201893028792575  1.0000
  H   H6        1.0  0.35202116408107287  1.8713404444552187e-06  0.2332729418195214  1.0000
  H   H7        1.0  3.289627059621243e-06  0.23327789313526642  0.3520259728904804  1.0000
  H   H8        1.0  0.2332692739132866  0.3520220656168647  0.9999981897358196  1.0000
  H   H9        1.0  0.9999979515961356  0.3520234134732335  0.2332708482235972  1.0000
  H   H10       1.0  0.6479767373240932  0.6479758592359488  0.8812496735749703  1.0000
  H   H11       1.0  0.7667281045361276  0.11874983136181072  0.7667263412783925  1.0000
  H   H12       1.0  0.6479808147128095  0.8812506754138738  0.6479813073931877  1.0000
  H   H13       1.0  0.6528478928347994  0.23704783997200016  0.12044766749267669  1.0000
  H   H14       1.0  0.584204769324245  0.4676017473094733  0.34715097441101506  1.0000
  H   H15       1.0  0.8795477234408793  0.5323962281830533  0.11659950746330576  1.0000
  H   H16       1.0  0.3471533583391563  0.4676026180362032  0.5842060550756116  1.0000
  H   H17       1.0  0.5324019254337101  0.11660397020430929  0.8795500259777995  1.0000
  H   H18       1.0  0.41580635418027617  0.8834042280061993  0.7629537142055794  1.0000
  H   H19       1.0  0.8795522267751963  0.11659762394313607  0.532395173861751  1.0000
  H   H20       1.0  0.7629497765737125  0.8833951893893753  0.41579407638546656  1.0000
  H   H21       1.0  0.4676043178270461  0.5842026380785371  0.34715293792857677  1.0000
  H   H22       1.0  0.8834024332968863  0.41579686893904017  0.7629512773792014  1.0000
  H   H23       1.0  0.347155686761738  0.5842026369646689  0.46760589486908083  1.0000
  H   H24       1.0  0.7629436163168248  0.41579338045498565  0.8833973975946134  1.0000
  H   H25       1.0  0.5324042458247006  0.8795549009095893  0.11660586973589891  1.0000
  H   H26       1.0  0.1166020345678549  0.8795545898306899  0.5323989060388996  1.0000
  H   H27       1.0  0.6528453226992638  0.120447579334254  0.2370483111216117  1.0000
  H   H28       1.0  0.23704754995917904  0.12044668290089793  0.652849800268278  1.0000
  H   H29       1.0  0.4676019632783123  0.34715495900645976  0.5842026947684075  1.0000
  H   H30       1.0  0.5842021250328029  0.34715565558953193  0.4676036717950963  1.0000
  H   H31       1.0  0.12044802577462847  0.6528457473008445  0.23704699533395507  1.0000
  H   H32       1.0  0.23704831786655242  0.6528440622791508  0.12044612161998453  1.0000
  H   H33       1.0  0.8834002425416119  0.7629527406545907  0.4158000527770511  1.0000
  H   H34       1.0  0.41580343974121103  0.7629553541871915  0.8834012598236853  1.0000
  H   H35       1.0  0.12044713993241625  0.2370476151320843  0.6528496298507703  1.0000
  H   H36       1.0  0.11660143101018852  0.5323967611453353  0.8795528309242043  1.0000
  C   C1        1.0  0.682319116097247  0.2666891401577801  0.20882681437748826  1.0000
  C   C2        1.0  0.5843733379521012  0.5265101122322663  0.3176803301078051  1.0000
  C   C3        1.0  0.7911663542078313  0.4734886847973955  0.05786121379095721  1.0000
  C   C4        1.0  0.31768090622271944  0.5265094519861294  0.5843739153005814  1.0000
  C   C5        1.0  0.47349865426332355  0.057868286317450654  0.7911740264430519  1.0000
  C   C6        1.0  0.4156357990335806  0.9421375841686483  0.7333101170298304  1.0000
  C   C7        1.0  0.7911721682758567  0.05785885293580871  0.47348884827448495  1.0000
  C   C8        1.0  0.7333072422857115  0.9421352904722655  0.41562602295599743  1.0000
  C   C9        1.0  0.5265115519241875  0.584371910232669  0.31768049270576876  1.0000
  C   C10       1.0  0.9421392887371453  0.41562913815591446  0.733311433856727  1.0000
  C   C11       1.0  0.31768195800084004  0.5843701808198817  0.5265122022470266  1.0000
  C   C12       1.0  0.7333027036970491  0.4156262788370529  0.942136907415069  1.0000
  C   C13       1.0  0.47349460039339425  0.7911729668287324  0.05786400102953577  1.0000
  C   C14       1.0  0.0578640496979972  0.7911751774558624  0.4734910587604587  1.0000
  C   C15       1.0  0.682315706828703  0.20882521653818756  0.26668792670051283  1.0000
  C   C16       1.0  0.2666878975263812  0.20882347007341906  0.6823223531279865  1.0000
  C   C17       1.0  0.5265111160028725  0.3176837618882829  0.5843728675826299  1.0000
  C   C18       1.0  0.5843717309957055  0.3176829818671152  0.5265129256032636  1.0000
  C   C19       1.0  0.20882760214190915  0.682317380693668  0.2666873467643285  1.0000
  C   C20       1.0  0.26669088190342904  0.6823167534834482  0.20882663820306385  1.0000
  C   C21       1.0  0.9421399035562459  0.7333120518658662  0.4156303272669317  1.0000
  C   C22       1.0  0.4156346281065309  0.7333134017510615  0.9421393285510077  1.0000
  C   C23       1.0  0.2088243065458926  0.2666893243220514  0.682324366443325  1.0000
  C   C24       1.0  0.05786491438448145  0.4734920686277562  0.7911749829648116  1.0000
  C   C25       1.0  0.7548805619134242  0.38534802792302986  0.3853491785263543  1.0000
  C   C26       1.0  0.6304695226479496  0.6304697489278512  0.24511757149489463  1.0000
  C   C27       1.0  0.6146441085998686  0.3695293883545857  0.9999984114470877  1.0000
  C   C28       1.0  0.24511438542470637  0.6304648207764387  0.6304639925179671  1.0000
  C   C29       1.0  0.36953334965604495  4.682543845017799e-07  0.6146472419484041  1.0000
  C   C30       1.0  0.6146464829109705  0.9999955950334399  0.3695326176100763  1.0000
  C   C31       1.0  1.8971059887391232e-06  0.36953735686373795  0.6146511247908748  1.0000
  C   C32       1.0  0.36953619387729475  0.6146554152234956  4.234582461334726e-07  1.0000
  C   C33       1.0  7.02897658381723e-07  0.6146523017711658  0.36953355829398754  1.0000
  C   C34       1.0  0.3853496330686779  0.38534863926624036  0.7548842814399704  1.0000
  C   C35       1.0  0.6304649225045578  0.24511661823987646  0.6304686993752566  1.0000
  C   C36       1.0  0.38534921126613164  0.7548799945378449  0.3853455754397929  1.0000
  C   C37       1.0  0.8037395075235877  0.48567147990634413  0.48567125921204013  1.0000
  C   C38       1.0  0.6819335550071629  0.681932363016337  0.19625941729529459  1.0000
  C   C39       1.0  0.5143273660977172  0.3180709878449124  4.221148941297493e-07  1.0000
  C   C40       1.0  0.19625503039829084  0.6819285038024177  0.6819283423047295  1.0000
  C   C41       1.0  0.3180661541778564  0.9999996677915136  0.5143270346708846  1.0000
  C   C42       1.0  0.5143246893192099  0.9999960151621538  0.31806768719130907  1.0000
  C   C43       1.0  2.0283486748715388e-06  0.31807260374755236  0.5143291971557247  1.0000
  C   C44       1.0  0.318068450338309  0.5143288293076366  0.9999970609059332  1.0000
  C   C45       1.0  0.9999993847140232  0.5143296090541727  0.3180681876340187  1.0000
  C   C46       1.0  0.48567012308807744  0.4856693732929288  0.803737185485069  1.0000
  C   C47       1.0  0.6819280993676954  0.19625712204528156  0.6819313428142378  1.0000
  C   C48       1.0  0.48567229927458305  0.8037406847892826  0.48567022219705064  1.0000
  C   C49       1.0  0.844223757127061  0.5718662437472661  0.5718658187735385  1.0000
  C   C50       1.0  0.7276407367883735  0.7276390396965411  0.1557719192108989  1.0000
  C   C51       1.0  0.42813457213098627  0.2723653796694024  3.062912817568083e-06  1.0000
  C   C52       1.0  0.1557683523447155  0.7276359846283215  0.7276361103187909  1.0000
  C   C53       1.0  0.2723593669771632  0.9999992300026719  0.42813027279880317  1.0000
  C   C54       1.0  0.42813379150195624  0.9999992877461494  0.2723616554505383  1.0000
  C   C55       1.0  2.322474443910377e-06  0.2723637450638847  0.428135687953528  1.0000
  C   C56       1.0  0.2723592540360612  0.428137654210026  0.9999974468141984  1.0000
  C   C57       1.0  0.9999978589831642  0.42813256303315966  0.2723564343437985  1.0000
  C   C58       1.0  0.5718658612970487  0.5718662707969387  0.8442262422520628  1.0000
  C   C59       1.0  0.7276396577886003  0.15577231130316005  0.7276411098765081  1.0000
  C   C60       1.0  0.5718644856808269  0.8442253712584603  0.5718647334205613  1.0000
  N   N1        1.0  0.7276966142572263  0.37768749968044113  0.28347181954164563  1.0000
  N   N2        1.0  0.6499947364240342  0.5557772834292224  0.2723028730813437  1.0000
  N   N3        1.0  0.7165227425194659  0.44422136694569797  0.0942163275690433  1.0000
  N   N4        1.0  0.27230170189962166  0.5557754825129209  0.6499922540138456  1.0000
  N   N5        1.0  0.444224916430876  0.09421794066872005  0.7165258788526144  1.0000
  N   N6        1.0  0.35001085928500697  0.9057826319865682  0.6223098885153816  1.0000
  N   N7        1.0  0.7165260874820304  0.09421477742607472  0.44422326544467683  1.0000
  N   N8        1.0  0.6223098489933961  0.9057797993515353  0.350007074844541  1.0000
  N   N9        1.0  0.5557785117317096  0.6499945355808877  0.2723041808783577  1.0000
  N   N10       1.0  0.9057852761582836  0.3500092828081381  0.622311246041619  1.0000
  N   N11       1.0  0.2723031832042509  0.64999089196062  0.5557754732680492  1.0000
  N   N12       1.0  0.6223041295345765  0.35000317037494005  0.9057805703359775  1.0000
  N   N13       1.0  0.4442252351378216  0.7165283837007977  0.09421789474738053  1.0000
  N   N14       1.0  0.09421806539016588  0.716529777007878  0.4442222674864879  1.0000
  N   N15       1.0  0.7276924448822086  0.2834710768044887  0.3776881997849059  1.0000
  N   N16       1.0  0.37768730876432227  0.2834711545002762  0.7276980075076764  1.0000
  N   N17       1.0  0.5557750868064699  0.2723047882194649  0.649994861164842  1.0000
  N   N18       1.0  0.6499921557383742  0.2723039830843988  0.5557784231230585  1.0000
  N   N19       1.0  0.2834744308507241  0.7276949893524006  0.3776877434970203  1.0000
  N   N20       1.0  0.37768991403448376  0.7276934357939311  0.2834715886263694  1.0000
  N   N21       1.0  0.9057840704146471  0.6223124534999587  0.35000959904657236  1.0000
  N   N22       1.0  0.3500105006193691  0.6223132282598698  0.9057834219243331  1.0000
  N   N23       1.0  0.28347260504801863  0.37768825299590963  0.7276999989841855  1.0000
  N   N24       1.0  0.09421828611323249  0.4442264586341196  0.7165291491906487  1.0000
