data_image0
_chemical_formula_structural       Zn2H42C50I2N6O14
_chemical_formula_sum              "Zn2 H42 C50 I2 N6 O14"
_cell_length_a       7.418309916166651
_cell_length_b       12.89642442262725
_cell_length_c       13.528
_cell_angle_alpha    82.90148685578411
_cell_angle_beta     88.97790995069253
_cell_angle_gamma    82.73241820904038

_space_group_name_H-M_alt    "P 1"
_space_group_IT_number       1

loop_
  _space_group_symop_operation_xyz
  'x, y, z'

loop_
  _atom_site_type_symbol
  _atom_site_label
  _atom_site_symmetry_multiplicity
  _atom_site_fract_x
  _atom_site_fract_y
  _atom_site_fract_z
  _atom_site_occupancy
  Zn  Zn1       1.0  0.9874846139806837  0.7755961139401037  0.8429001501065301  1.0000
  Zn  Zn2       1.0  0.0125138152430679  0.2244062447737321  0.15710239637552795  1.0000
  H   H1        1.0  0.6807180485528264  0.754799453462532  0.7683574849052093  1.0000
  H   H2        1.0  0.3192837581171517  0.2451997548388078  0.23164170364054826  1.0000
  H   H3        1.0  0.6926751205938687  0.675606746991825  0.8702148167310424  1.0000
  H   H4        1.0  0.30731825620073044  0.3243940365157628  0.12978500791152203  1.0000
  H   H5        1.0  0.7751137408997268  0.6974509196237264  0.352647431635674  1.0000
  H   H6        1.0  0.2248997028455122  0.30254435066199653  0.6473506285878798  1.0000
  H   H7        1.0  0.2089734188899045  0.7435044370675783  0.14044835198185268  1.0000
  H   H8        1.0  0.7910329294702265  0.256498709249378  0.8595473713846784  1.0000
  H   H9        1.0  0.12060914188843701  0.9388300117101522  0.37830653805951187  1.0000
  H   H10       1.0  0.8793992494276497  0.0611636833693225  0.6216961924002503  1.0000
  H   H11       1.0  0.9718824764322779  0.5182050503517317  0.1060657962648861  1.0000
  H   H12       1.0  0.02810364847107392  0.4817980959652246  0.8939301249216738  1.0000
  H   H13       1.0  0.16900429455261456  0.5764931947169458  0.13150558927352304  1.0000
  H   H14       1.0  0.830988258490706  0.423498925156288  0.8684915680204737  1.0000
  H   H15       1.0  0.5554841209664759  0.9526429952911215  0.24774257841324504  1.0000
  H   H16       1.0  0.4445252643472203  0.047358575819586704  0.7522569968539087  1.0000
  H   H17       1.0  0.41621170490378756  0.931100474655544  0.3540998738744677  1.0000
  H   H18       1.0  0.5837938059648808  0.0689003088520437  0.6459035281139264  1.0000
  H   H19       1.0  0.36256260632981013  0.727991805945962  0.9239032788832943  1.0000
  H   H20       1.0  0.6374511641678994  0.2720081899584983  0.07609274302078006  1.0000
  H   H21       1.0  0.5955696273744594  0.8168956589301501  0.9985212669808021  1.0000
  H   H22       1.0  0.40444211390747853  0.1831074873868062  0.0014707075958711006  1.0000
  H   H23       1.0  0.2259439780049135  0.10745190654400012  0.9430822752470434  1.0000
  H   H24       1.0  0.7740667555392307  0.8925496645667155  0.05692246128509736  1.0000
  H   H25       1.0  0.012198968209673904  0.0044775237574299  0.8721185677620014  1.0000
  H   H26       1.0  0.9878105873503533  0.9955232597501578  0.12789070832294405  1.0000
  H   H27       1.0  0.0313739846194849  0.5791576560839431  0.7575497860438458  1.0000
  H   H28       1.0  0.9686104653009411  0.42084076461427605  0.24244818665019346  1.0000
  H   H29       1.0  0.15315119165041588  0.5022726267652616  0.6093834721375017  1.0000
  H   H30       1.0  0.8468366219760457  0.4977289443454468  0.39061335730740854  1.0000
  H   H31       1.0  0.3657362066014613  0.7969889899822037  0.5155872136671532  1.0000
  H   H32       1.0  0.6342435039020984  0.20301888195348994  0.4844133880080647  1.0000
  H   H33       1.0  0.2400790144722223  0.8595522441020975  0.6703448807000354  1.0000
  H   H34       1.0  0.7599050949555493  0.1404477518023697  0.3296610410384844  1.0000
  H   H35       1.0  0.17738093959843573  0.46787090993133523  0.4685510689911183  1.0000
  H   H36       1.0  0.822591008274891  0.5321416876231027  0.531445355869927  1.0000
  H   H37       1.0  0.2765772965196406  0.4103120860585393  0.306766198936522  1.0000
  H   H38       1.0  0.7234118653372692  0.589689485052169  0.6932372701885112  1.0000
  H   H39       1.0  0.5763273590777231  0.6587701550195106  0.24037656823278303  1.0000
  H   H40       1.0  0.42366821717897823  0.3412266904724603  0.7596266556490076  1.0000
  H   H41       1.0  0.49597566552166233  0.7267119508701826  0.4013526827828215  1.0000
  H   H42       1.0  0.5040210749789722  0.27329198304990143  0.5986467378181856  1.0000
  C   C1        1.0  0.9370712657970232  0.8218780362897888  0.37210714609302187  1.0000
  C   C2        1.0  0.06293931124097439  0.17811802159906165  0.6278938062174219  1.0000
  C   C3        1.0  0.8857977857258776  0.7406265352540943  0.3248913096224014  1.0000
  C   C4        1.0  0.1142126210657963  0.2593703102378768  0.675107333945945  1.0000
  C   C5        1.0  0.9822872633175664  0.7123437070871006  0.2397320662683242  1.0000
  C   C6        1.0  0.017719425535226187  0.2876578640236147  0.7602660569596933  1.0000
  C   C7        1.0  0.12876823848036886  0.7642758942451948  0.2047867723822065  1.0000
  C   C8        1.0  0.871241317079651  0.2357248892623929  0.7952114155892004  1.0000
  C   C9        1.0  0.18224307585069252  0.8428841991982239  0.2569028988396411  1.0000
  C   C10       1.0  0.8177646207398936  0.1571189471187395  0.7430957681691622  1.0000
  C   C11       1.0  0.08481151906681819  0.8750325834956456  0.3400030191667796  1.0000
  C   C12       1.0  0.9151975394944074  0.12496426199632543  0.6599963767971389  1.0000
  C   C13       1.0  0.02224761332337268  0.5930052942023494  0.11571425175790033  1.0000
  C   C14       1.0  0.9777430670103229  0.4069954893052312  0.8842826424303921  1.0000
  C   C15       1.0  0.9903596100535806  0.6643581991811588  0.01786302389255209  1.0000
  C   C16       1.0  0.009647078799211806  0.3356433719295495  0.982135838543037  1.0000
  C   C17       1.0  0.4137322658373249  0.9548459212277152  0.27290792641090883  1.0000
  C   C18       1.0  0.5862715563082332  0.0451564374861206  0.727094567319142  1.0000
  C   C19       1.0  0.3224290614091032  0.06835528749054022  0.25198603882662235  1.0000
  C   C20       1.0  0.6775762792132343  0.931646283620168  0.7480202288726614  1.0000
  C   C21       1.0  0.34034264973152534  0.8123559145259591  0.929542729342671  1.0000
  C   C22       1.0  0.6596731362417714  0.1876472317909972  0.0704551193305534  1.0000
  C   C23       1.0  0.4687794255615645  0.8628389119367059  0.9716324950904676  1.0000
  C   C24       1.0  0.531228100782684  0.1371650219833782  0.028366820006517898  1.0000
  C   C25       1.0  0.4331840422694386  0.971532868606559  0.9780056693918836  1.0000
  C   C26       1.0  0.5668312329648658  0.028472640519773107  0.0219919059231728  1.0000
  C   C27       1.0  0.2659172401728327  0.023562722647504607  0.9406941463421886  1.0000
  C   C28       1.0  0.7341022637393453  0.9764356980507074  0.05930717950164419  1.0000
  C   C29       1.0  0.14383925018271526  0.9669159390962534  0.9006502627988197  1.0000
  C   C30       1.0  0.8561768762832431  0.03308563201445481  0.099353681773735  1.0000
  C   C31       1.0  0.1060726454388359  0.6246212587882455  0.701777365038076  1.0000
  C   C32       1.0  0.893918545633845  0.37537716190996673  0.2982220201310923  1.0000
  C   C33       1.0  0.17357035581015623  0.5828570279552991  0.6172118164495684  1.0000
  C   C34       1.0  0.8264199840308779  0.4171453307585368  0.3827856347075098  1.0000
  C   C35       1.0  0.2660080148760642  0.6440120476902678  0.5449562106144439  1.0000
  C   C36       1.0  0.7339775992882951  0.35599346143606436  0.45503943721394785  1.0000
  C   C37       1.0  0.29240646132316084  0.7448992821993983  0.5663270193406689  1.0000
  C   C38       1.0  0.7075796635801909  0.255103864117558  0.43367481550644976  1.0000
  C   C39       1.0  0.22086539494841864  0.7813369531077258  0.6530883029841235  1.0000
  C   C40       1.0  0.7791144995416631  0.218663830399862  0.34691682799144974  1.0000
  C   C41       1.0  0.3271833860998257  0.6041711436850434  0.4505482196144186  1.0000
  C   C42       1.0  0.6728027250633347  0.3958383034568983  0.5494454810138834  1.0000
  C   C43       1.0  0.2678050557738915  0.5132423630701837  0.42172423898544753  1.0000
  C   C44       1.0  0.7321689213152072  0.486767084071758  0.5782717979575833  1.0000
  C   C45       1.0  0.32246998587730513  0.4804363301645935  0.33046306485366717  1.0000
  C   C46       1.0  0.6775181682418179  0.5195636657398667  0.6695369036602937  1.0000
  C   C47       1.0  0.48884995366061906  0.6178108545788348  0.2935427306625158  1.0000
  C   C48       1.0  0.5111452821034277  0.3821875661193772  0.7064573541502168  1.0000
  C   C49       1.0  0.4429139277835361  0.656047411021369  0.38396049751955985  1.0000
  C   C50       1.0  0.5570759013185126  0.3439573105018354  0.6160359410717857  1.0000
  I   I1        1.0  0.7878665022657003  0.8596577829206495  0.5005440771422798  1.0000
  I   I2        1.0  0.21215234814152947  0.14033118654008092  0.4994591077177971  1.0000
  N   N1        1.0  0.17939630403969178  0.8628152838429983  0.8948532857513313  1.0000
  N   N2        1.0  0.8206193116872742  0.1371886500770785  0.10514742863278306  1.0000
  N   N3        1.0  0.4298935535747576  0.5317037802864064  0.2656154004028933  1.0000
  N   N4        1.0  0.5700969565126073  0.4682977908243089  0.7343887947416973  1.0000
  N   N5        1.0  0.1255078069489884  0.7231181178173856  0.7192940146981142  1.0000
  N   N6        1.0  0.8744808441689358  0.27688581610269847  0.28070918106875087  1.0000
  O   O1        1.0  0.08968532690843034  0.6376427012300425  0.9445616943699304  1.0000
  O   O2        1.0  0.9103252363893832  0.3623596574837862  0.05543703738226209  1.0000
  O   O3        1.0  0.8707683441204709  0.7438919378043707  0.010381757423701283  1.0000
  O   O4        1.0  0.12923447028729382  0.256108845703217  0.9896194533179923  1.0000
  O   O5        1.0  0.17933523076208502  0.0851556497191694  0.19919779903135995  1.0000
  O   O6        1.0  0.8206623609702035  0.9148443461852906  0.8008116868649892  1.0000
  O   O7        1.0  0.4002764334490294  0.1363451271317473  0.2895846715300151  1.0000
  O   O8        1.0  0.5997369965560184  0.863656443978961  0.7104148641731312  1.0000
  O   O9        1.0  0.9240149631237531  0.6306999796958764  0.19887867939333853  1.0000
  O   O10       1.0  0.0759883620230042  0.3692984410023429  0.8011220654989444  1.0000
  O   O11       1.0  0.3376888055481615  0.8812239316499415  0.22114586723215976  1.0000
  O   O12       1.0  0.662322595241122  0.11878078987327  0.7788518387662859  1.0000
  O   O13       1.0  0.7584194556788689  0.6935050279746946  0.8089379116041187  1.0000
  O   O14       1.0  0.24157712831562617  0.3064933927235174  0.19106216002060708  1.0000
