data_image0
_chemical_formula_structural       Zn2H56C52N6O14
_chemical_formula_sum              "Zn2 H56 C52 N6 O14"
_cell_length_a       14.603426219452622
_cell_length_b       16.028224030690815
_cell_length_c       19.290753427912314
_cell_angle_alpha    89.88669781178197
_cell_angle_beta     89.82293988482925
_cell_angle_gamma    89.57217001043884

_space_group_name_H-M_alt    "P 1"
_space_group_IT_number       1

loop_
  _space_group_symop_operation_xyz
  'x, y, z'

loop_
  _atom_site_type_symbol
  _atom_site_label
  _atom_site_symmetry_multiplicity
  _atom_site_fract_x
  _atom_site_fract_y
  _atom_site_fract_z
  _atom_site_occupancy
  Zn  Zn1       1.0  0.407205674264766  0.5019230147879912  0.4975692039941464  1.0000
  Zn  Zn2       1.0  0.5971026954622614  0.5014925698869847  0.49859521904902226  1.0000
  H   H1        1.0  0.36066708463744857  0.5279525968509733  0.2794141765950116  1.0000
  H   H2        1.0  0.6434791934824347  0.45450156478543857  0.27818432314926866  1.0000
  H   H3        1.0  0.4389092777149628  0.93036376180789  0.40094855181294514  1.0000
  H   H4        1.0  0.5601529001433009  0.9296045508942402  0.40051234964125365  1.0000
  H   H5        1.0  0.08264099019847748  0.4282060672147454  0.5939894927909605  1.0000
  H   H6        1.0  0.9255344876874787  0.429051951579922  0.5957960476226845  1.0000
  H   H7        1.0  0.9211626296135265  0.632087532731106  0.5021862046140056  1.0000
  H   H8        1.0  0.08117185362742418  0.6320851881810087  0.5015890288822149  1.0000
  H   H9        1.0  0.9219980830584403  0.5839774021510352  0.584516182276964  1.0000
  H   H10       1.0  0.08181500941990547  0.5836745119705359  0.5838053821863836  1.0000
  H   H11       1.0  0.9233814998174025  0.43008184109742614  0.40157430632400787  1.0000
  H   H12       1.0  0.08255092503461729  0.4328363706717085  0.39897979691238555  1.0000
  H   H13       1.0  0.9201780254666402  0.5399937859126993  0.39188391331885697  1.0000
  H   H14       1.0  0.08055690059062208  0.5431070312882585  0.39180887175191254  1.0000
  H   H15       1.0  0.3561543636029397  0.5169656896475774  0.1495359025954457  1.0000
  H   H16       1.0  0.6389970327422745  0.43993051011593565  0.14850564282969  1.0000
  H   H17       1.0  0.3577442952727096  0.456429596568242  0.7134267496515958  1.0000
  H   H18       1.0  0.6437954188613304  0.515182725019045  0.7214841325483334  1.0000
  H   H19       1.0  0.41649704310880503  0.9278809098500534  0.5950367535996435  1.0000
  H   H20       1.0  0.5845782423534871  0.926170568562583  0.5940267603550068  1.0000
  H   H21       1.0  0.41558345368185456  0.07407719837928543  0.5965195037731872  1.0000
  H   H22       1.0  0.5889005183452836  0.0723513456543188  0.5945935604176498  1.0000
  H   H23       1.0  0.6484302871741361  0.069550992425782  0.5142754082966192  1.0000
  H   H24       1.0  0.35354681684523115  0.07378545522134061  0.517606620579862  1.0000
  H   H25       1.0  0.43841612870955515  0.07638186810863354  0.4029652139688409  1.0000
  H   H26       1.0  0.5594014944813708  0.07562574229715581  0.40120855033565306  1.0000
  H   H27       1.0  0.7908037910483187  0.345077157208742  0.5695646171869695  1.0000
  H   H28       1.0  0.8824899907678585  0.28474412406355754  0.606258806527954  1.0000
  H   H29       1.0  0.8738942814435332  0.18674461260823702  0.5036311196700679  1.0000
  H   H30       1.0  0.7679626190366236  0.19222064376284465  0.5499760168052318  1.0000
  H   H31       1.0  0.78014810179706  0.246737597989558  0.47034902493398784  1.0000
  H   H32       1.0  0.04237895263159429  0.2627908713269918  0.5794658444349705  1.0000
  H   H33       1.0  0.15461372426875641  0.30055196182772903  0.5992213234733015  1.0000
  H   H34       1.0  0.2161570593367088  0.2273880143843457  0.49290541934491466  1.0000
  H   H35       1.0  0.16374008282767247  0.15583852010511387  0.5513951349723525  1.0000
  H   H36       1.0  0.10438445162042599  0.18844320125496242  0.47530730407560634  1.0000
  H   H37       1.0  0.23455341038398808  0.4890211529671405  0.7931066800063815  1.0000
  H   H38       1.0  0.28408103269640606  0.5515995184635971  0.8598673621519737  1.0000
  H   H39       1.0  0.21846383376232129  0.4594070796324347  0.9506988653419766  1.0000
  H   H40       1.0  0.1291465953945661  0.4966716786747229  0.8956504138720759  1.0000
  H   H41       1.0  0.1715440728278637  0.3925802573880618  0.8862295701973578  1.0000
  H   H42       1.0  0.7560419808226371  0.45142251722766275  0.7985844239454422  1.0000
  H   H43       1.0  0.7039746825836987  0.38670370780326396  0.8632185752827864  1.0000
  H   H44       1.0  0.7767093119282649  0.4695200219293342  0.9569684729782179  1.0000
  H   H45       1.0  0.8624743361290114  0.4313088146082437  0.8989832895194282  1.0000
  H   H46       1.0  0.826561383840108  0.5378670382057609  0.8944514886274034  1.0000
  H   H47       1.0  0.7282936052415607  0.8735510410457509  0.5942924298334518  1.0000
  H   H48       1.0  0.7619718613130145  0.9757725679036331  0.5680699438424526  1.0000
  H   H49       1.0  0.8375295252414076  0.9164950282262797  0.46179183620249376  1.0000
  H   H50       1.0  0.8830444116430981  0.8693420716858499  0.5381944132651026  1.0000
  H   H51       1.0  0.8020619703291771  0.8145196892518246  0.48635647539091303  1.0000
  H   H52       1.0  0.23847243261561596  0.9796850191774742  0.5718935857155998  1.0000
  H   H53       1.0  0.27363930814434667  0.876952088118991  0.5965577608865331  1.0000
  H   H54       1.0  0.1985630168083503  0.8195859025936516  0.4894338407248993  1.0000
  H   H55       1.0  0.11795519874975467  0.8744416866500303  0.5426803720004827  1.0000
  H   H56       1.0  0.1618279685969597  0.9220783908117131  0.4659612674289092  1.0000
  C   C1        1.0  0.5041589373584614  0.33937162811717786  0.4994600724286827  1.0000
  C   C2        1.0  0.494217725601068  0.4705179373241253  0.06546349555231498  1.0000
  C   C3        1.0  0.4169278912067895  0.45911502070936916  0.8161759952619149  1.0000
  C   C4        1.0  0.5790895782124463  0.49121832656416603  0.8206056557799215  1.0000
  C   C5        1.0  0.41879877423145473  0.46713458993723844  0.7443143398324991  1.0000
  C   C6        1.0  0.5810044364910282  0.49862091184811425  0.7486301690314006  1.0000
  C   C7        1.0  0.5007179304669833  0.48707708380313636  0.7106467494582347  1.0000
  C   C8        1.0  0.49691776959992506  0.471920777374173  0.8555599581365954  1.0000
  C   C9        1.0  0.4157146712482316  0.05009899248381802  0.5431780480666859  1.0000
  C   C10       1.0  0.5866985560296243  0.04787728895946942  0.541438252283335  1.0000
  C   C11       1.0  0.5861856654349255  0.9513683944948144  0.5405987384188505  1.0000
  C   C12       1.0  0.4146763964090495  0.9535091288347248  0.5417680891273307  1.0000
  C   C13       1.0  0.49984773595998894  0.7532817534631066  0.5019069727043685  1.0000
  C   C14       1.0  0.500987335490592  0.0830768224655785  0.5044147887255974  1.0000
  C   C15       1.0  0.49987943228440906  0.9195308991225277  0.5023316791470406  1.0000
  C   C16       1.0  0.5039608794250583  0.49874673620543336  0.36357968207615693  1.0000
  C   C17       1.0  0.49958326068234277  0.9543393584147923  0.42736795353442847  1.0000
  C   C18       1.0  0.49947855326409035  0.05068285311138252  0.42864856391452105  1.0000
  C   C19       1.0  0.49956855444233367  0.8290237766218244  0.5020489627355856  1.0000
  C   C20       1.0  0.5019214207105307  0.17348392548028363  0.5040346516860053  1.0000
  C   C21       1.0  0.5033870630842188  0.2492518429376178  0.502256545743762  1.0000
  C   C22       1.0  0.9489509341757196  0.4208151452409867  0.5417951204452791  1.0000
  C   C23       1.0  0.0574618068015909  0.4210605025264302  0.5403046664792939  1.0000
  C   C24       1.0  0.9488256766206078  0.5787854209015465  0.5314336309035852  1.0000
  C   C25       1.0  0.05456910390486769  0.5787394692597945  0.5309800245831724  1.0000
  C   C26       1.0  0.9141520495843662  0.4970307009359303  0.49844321329247504  1.0000
  C   C27       1.0  0.09028080361220249  0.4972406695115696  0.49728763300359446  1.0000
  C   C28       1.0  0.0547122347436328  0.4900981763291342  0.4220155667501614  1.0000
  C   C29       1.0  0.9490586056329631  0.4887449902030242  0.42286727158632686  1.0000
  C   C30       1.0  0.18943345531772587  0.4973497152235285  0.4971014525519379  1.0000
  C   C31       1.0  0.8151568021670312  0.4978324664207749  0.4987562725286451  1.0000
  C   C32       1.0  0.4998913050112461  0.6631714031500879  0.5006324027540072  1.0000
  C   C33       1.0  0.5021564955681654  0.495228308531786  0.6330440540053033  1.0000
  C   C34       1.0  0.42120512921751885  0.5095919699850954  0.24986325892718497  1.0000
  C   C35       1.0  0.5809909786253298  0.4674917450084381  0.24924766083583447  1.0000
  C   C36       1.0  0.41865698694436293  0.5031581421361087  0.17811419049036198  1.0000
  C   C37       1.0  0.5785158263275957  0.459728172948026  0.17748353250240706  1.0000
  C   C38       1.0  0.49728777038800587  0.47772110872049484  0.1412931997886062  1.0000
  C   C39       1.0  0.5023181576954912  0.4920836565887613  0.28598926372362127  1.0000
  C   C40       1.0  0.49397357101490513  0.4675216624659911  0.9315940415998512  1.0000
  C   C41       1.0  0.8488559526726787  0.30321853059425063  0.5571719679769201  1.0000
  C   C42       1.0  0.8161196501746841  0.2276729476296994  0.5177204482862692  1.0000
  C   C43       1.0  0.108942627673656  0.28057343625670234  0.5567971769580777  1.0000
  C   C44       1.0  0.1508319748053992  0.20886939631585485  0.516483904725895  1.0000
  C   C45       1.0  0.2615151013290458  0.48815681869614036  0.8465581708838241  1.0000
  C   C46       1.0  0.19090963804991642  0.4571489485712022  0.8978644626960559  1.0000
  C   C47       1.0  0.7300677548102356  0.449801223686997  0.85242044153172  1.0000
  C   C48       1.0  0.8033468102007502  0.4737740729464549  0.9038026305666731  1.0000
  C   C49       1.0  0.7435223803018545  0.9131155211570675  0.548599534007117  1.0000
  C   C50       1.0  0.821290016286035  0.8761317660249619  0.5061761134183413  1.0000
  C   C51       1.0  0.2572355260004713  0.9172351054142357  0.5514997192166575  1.0000
  C   C52       1.0  0.1791333042868501  0.8811731525813046  0.5098441158862314  1.0000
  N   N1        1.0  0.5597760246155232  0.4246014317044315  0.0331996876594616  1.0000
  N   N2        1.0  0.42334220297258435  0.5080302833900989  0.0321478431464399  1.0000
  N   N3        1.0  0.5590879479731822  0.42232562761321196  0.9647371400341526  1.0000
  N   N4        1.0  0.42374326177895216  0.5074632732855309  0.9639172227005517  1.0000
  N   N5        1.0  0.2685940119322794  0.4998062203429968  0.49736161689753533  1.0000
  N   N6        1.0  0.7359264848807284  0.5002388922671274  0.49922131117649815  1.0000
  O   O1        1.0  0.428490036290647  0.3750770592500247  0.4847374292040739  1.0000
  O   O2        1.0  0.5804101041773961  0.37446265641033005  0.5119519809831202  1.0000
  O   O3        1.0  0.42849329098237376  0.5170265608634352  0.3934046647165842  1.0000
  O   O4        1.0  0.5801844913418249  0.48519112578762275  0.3936216841332794  1.0000
  O   O5        1.0  0.4234474639366113  0.6277625950769449  0.5121747568851446  1.0000
  O   O6        1.0  0.576408179529082  0.627355004600709  0.4880215299077689  1.0000
  O   O7        1.0  0.4265645835808698  0.4832616521445915  0.6019660090164578  1.0000
  O   O8        1.0  0.578351168894997  0.5128757178102746  0.6046081698669639  1.0000
  O   O9        1.0  0.9146980648457087  0.3460928156013454  0.5139873402031724  1.0000
  O   O10       1.0  0.0962951342362786  0.349565631951002  0.5098295656630398  1.0000
  O   O11       1.0  0.33972116312214234  0.4326318231436873  0.8504776919046505  1.0000
  O   O12       1.0  0.6552088064212711  0.5086459058880806  0.8598475966952606  1.0000
  O   O13       1.0  0.6644257838196808  0.9180844610269933  0.5056091677145744  1.0000
  O   O14       1.0  0.3355652785827985  0.9224726411199103  0.5074421798341289  1.0000
