data_image0
_chemical_formula_structural       HoH9C5N2O8
_chemical_formula_sum              "Ho1 H9 C5 N2 O8"
_cell_length_a       6.541779498463852
_cell_length_b       6.679439131832326
_cell_length_c       6.679236875795522
_cell_angle_alpha    64.37768604114234
_cell_angle_beta     73.17500892336773
_cell_angle_gamma    73.17582866768753

_space_group_name_H-M_alt    "P 1"
_space_group_IT_number       1

loop_
  _space_group_symop_operation_xyz
  'x, y, z'

loop_
  _atom_site_type_symbol
  _atom_site_label
  _atom_site_symmetry_multiplicity
  _atom_site_fract_x
  _atom_site_fract_y
  _atom_site_fract_z
  _atom_site_occupancy
  Ho  Ho1       1.0  0.9999915940848539  0.9027580556780134  0.09723156182129598  1.0000
  H   H1        1.0  0.5993636087718741  0.10912514865779599  0.4532971764323436  1.0000
  H   H2        1.0  0.4006401804318359  0.5467026754739945  0.8908886498111386  1.0000
  H   H3        1.0  0.46943272086880933  0.40067717854785184  0.35538710869786194  1.0000
  H   H4        1.0  0.5305562179328477  0.6446588585199108  0.5993049018954225  1.0000
  H   H5        1.0  0.1755984156054282  0.3523142092158338  0.6298983646414771  1.0000
  H   H6        1.0  0.8244072524912556  0.37012301970472805  0.6476749991681814  1.0000
  H   H7        1.0  0.8752692878603626  0.3704879402249687  0.2570283003488641  1.0000
  H   H8        1.0  0.1247397242387152  0.7429900038520996  0.6294879079387388  1.0000
  H   H9        1.0  0.5000117824746794  0.9858569818992035  0.014151455264517807  1.0000
  C   C1        1.0  0.2960112963695991  0.19828289485420908  0.6276134723178475  1.0000
  C   C2        1.0  0.703957709073471  0.37236325072390014  0.8016881289658431  1.0000
  C   C3        1.0  0.0398867089986439  0.3724323741936005  0.1493834861838579  1.0000
  C   C4        1.0  0.9601177894964723  0.850633758047209  0.6275478578528395  1.0000
  C   C5        1.0  0.500016887577388  0.8315814282889062  0.16842358039043873  1.0000
  N   N1        1.0  0.4686601305409753  0.23666793546322396  0.4653441806662857  1.0000
  N   N2        1.0  0.5313611357092327  0.5346780747379326  0.7633311952582886  1.0000
  O   O1        1.0  0.2643753760980303  0.0058124896497489  0.77067033752801  1.0000
  O   O2        1.0  0.7355949634992668  0.22936823163701794  0.994199831968601  1.0000
  O   O3        1.0  0.6680172951602474  0.7533893016618546  0.25856895952380665  1.0000
  O   O4        1.0  0.3320051242861624  0.7414045082836507  0.24659302880128572  1.0000
  O   O5        1.0  0.12552966521831616  0.5405257091194358  0.10300530857234953  1.0000
  O   O6        1.0  0.8744697094980582  0.8969991807902812  0.45945604659463185  1.0000
  O   O7        1.0  0.12978597232582698  0.2138054949381214  0.08122806794545316  1.0000
  O   O8        1.0  0.870219323724868  0.9187632366804832  0.786195053118334  1.0000
