data_image0
_chemical_formula_structural       Zn8H8C80O34F32
_chemical_formula_sum              "Zn8 H8 C80 O34 F32"
_cell_length_a       23.883722812812252
_cell_length_b       23.885148353105446
_cell_length_c       23.883502964018273
_cell_angle_alpha    66.29051789351033
_cell_angle_beta     72.61104392641461
_cell_angle_gamma    107.39823302452437

_space_group_name_H-M_alt    "P 1"
_space_group_IT_number       1

loop_
  _space_group_symop_operation_xyz
  'x, y, z'

loop_
  _atom_site_type_symbol
  _atom_site_label
  _atom_site_symmetry_multiplicity
  _atom_site_fract_x
  _atom_site_fract_y
  _atom_site_fract_z
  _atom_site_occupancy
  Zn  Zn1       1.0  0.05698252297448669  0.9572654244373666  0.48576238539576644  1.0000
  Zn  Zn2       1.0  0.0569840380909028  0.09971858604086486  0.45726687753271034  1.0000
  Zn  Zn3       1.0  0.9430105122076359  0.9857589286037651  0.45725924183003047  1.0000
  Zn  Zn4       1.0  0.943026236943112  0.9572598922594646  0.5997221175639639  1.0000
  Zn  Zn5       1.0  0.9430209064684265  0.5427354302668871  0.014238088234378915  1.0000
  Zn  Zn6       1.0  0.05699079250153019  0.5142434415422485  0.04274294080310169  1.0000
  Zn  Zn7       1.0  0.9430174022001979  0.4002794080626727  0.042737265274148076  1.0000
  Zn  Zn8       1.0  0.05696928338878858  0.5427320199762491  0.900281212695788  1.0000
  H   H1        1.0  0.9194527435449938  0.8371478686750105  0.7433962162152316  1.0000
  H   H2        1.0  0.08055037936705398  0.662853222895663  0.7566036809517487  1.0000
  H   H3        1.0  0.9194495956504698  0.6628459136077253  0.9176993871053583  1.0000
  H   H4        1.0  0.08055425004840833  0.8371543339578197  0.5823014668273317  1.0000
  H   H5        1.0  0.9194490566944042  0.08230675318229419  0.3371365880975148  1.0000
  H   H6        1.0  0.08055380803418193  0.4176952851470971  0.16286383905848115  1.0000
  H   H7        1.0  0.9194535627726027  0.2566090149120939  0.16283581766493427  1.0000
  H   H8        1.0  0.08054954291855419  0.24339275156146556  0.33716255197894185  1.0000
  C   C1        1.0  0.18087430712395053  0.09044462206275478  0.4095600045064885  1.0000
  C   C2        1.0  0.9999970087109491  0.13985187977296218  0.36014654162831045  1.0000
  C   C3        1.0  0.9999826167888985  0.9095610641628225  0.4095726402159416  1.0000
  C   C4        1.0  0.8191277552928186  0.9095546743065553  0.5904488788668728  1.0000
  C   C5        1.0  5.973870017440847e-06  0.8601473290186306  0.6398537261035457  1.0000
  C   C6        1.0  0.9999902518277678  0.09043093277637121  0.5904429066765503  1.0000
  C   C7        1.0  4.863363010121275e-06  0.590427949564649  0.09044279162665005  1.0000
  C   C8        1.0  4.585176476749124e-06  0.36014784383872467  0.13985435310970476  1.0000
  C   C9        1.0  0.8191287550294889  0.40955818607645267  0.0904274952766073  1.0000
  C   C10       1.0  0.9999933190170084  0.40955024395447015  0.9095735797342505  1.0000
  C   C11       1.0  0.9999972364142097  0.6398517628608713  0.8601469422494366  1.0000
  C   C12       1.0  0.1808687500374261  0.5904304216153661  0.909551011785247  1.0000
  C   C13       1.0  4.97039482662431e-06  0.8041779213952865  0.6958234977753933  1.0000
  C   C14       1.0  6.200342639892481e-07  0.6958245532782426  0.8041771961159443  1.0000
  C   C15       1.0  0.9562635839714132  0.7768776917738048  0.7668594917630503  1.0000
  C   C16       1.0  0.04374236524788699  0.723126750839654  0.7331394758036114  1.0000
  C   C17       1.0  0.9562626155228036  0.7231219932410013  0.8206145723662889  1.0000
  C   C18       1.0  0.04374337737665015  0.7768814478540732  0.6793852001640917  1.0000
  C   C19       1.0  0.9999991214957691  0.19582235714543117  0.3041768437061306  1.0000
  C   C20       1.0  3.2971060335496074e-06  0.304179722972016  0.1958220223642685  1.0000
  C   C21       1.0  0.9562606775844105  0.17938648784664213  0.2768695606569907  1.0000
  C   C22       1.0  0.04374183633665044  0.32061311138566845  0.22313194459515986  1.0000
  C   C23       1.0  0.9562641652129004  0.23314209680676604  0.22311543351330712  1.0000
  C   C24       1.0  0.043741897814115284  0.2668600128088129  0.27688526016282117  1.0000
  C   C25       1.0  1.737147243888077e-06  0.6278744445603336  0.12789322952946247  1.0000
  C   C26       1.0  0.9572970567397477  0.6575366174399588  0.13548808296953066  1.0000
  C   C27       1.0  0.957405296283618  0.692287931400607  0.17029736326509942  1.0000
  C   C28       1.0  0.9999937590756289  0.6996744370928097  0.19970329169643727  1.0000
  C   C29       1.0  0.042587317613666416  0.6702827072457964  0.19232163280358358  1.0000
  C   C30       1.0  0.04270091356070801  0.6354732367697622  0.15756727293217665  1.0000
  C   C31       1.0  0.9999862393248192  0.734760024798504  0.23480219401211866  1.0000
  C   C32       1.0  0.9999779801201355  0.7651957460768409  0.265243956096015  1.0000
  C   C33       1.0  0.9999772965299559  0.8002923720234206  0.30033430862380334  1.0000
  C   C34       1.0  0.957395911775698  0.8296989061946287  0.3076997024023173  1.0000
  C   C35       1.0  0.9572837402661492  0.864512420896517  0.3424503466228615  1.0000
  C   C36       1.0  0.9999738896441812  0.8720979845267249  0.3721327968813457  1.0000
  C   C37       1.0  0.04265839113430311  0.8424108381471808  0.3645644341993092  1.0000
  C   C38       1.0  0.04255218887483652  0.8076599866895221  0.3297581255339851  1.0000
  C   C39       1.0  5.615137446676578e-06  0.37209827236932813  0.8721280094885131  1.0000
  C   C40       1.0  0.04271562321849846  0.4072007707013583  0.799763550058174  1.0000
  C   C41       1.0  0.042604557350770664  0.37228341911798407  0.7651201457821984  1.0000
  C   C42       1.0  4.421896576862457e-06  0.30029329347251377  0.800323533065317  1.0000
  C   C43       1.0  0.9574113272264881  0.2650862332778204  0.8723177270346556  1.0000
  C   C44       1.0  0.9573040180384851  0.2997304554846065  0.9072349094668015  1.0000
  C   C45       1.0  0.9999983673423075  0.26520404085145793  0.7652318501196832  1.0000
  C   C46       1.0  0.9999899784090828  0.23477251292736398  0.7347896506045263  1.0000
  C   C47       1.0  0.9999831494348188  0.19968558535099132  0.6996947573044354  1.0000
  C   C48       1.0  0.04255871966100238  0.23489597514333124  0.6276969653877202  1.0000
  C   C49       1.0  0.04266230497494664  0.2002532352444035  0.5927807296424277  1.0000
  C   C50       1.0  0.9999781449477113  0.12788408845320723  0.6278904563820761  1.0000
  C   C51       1.0  0.9572825941000931  0.09277519806459363  0.7002573071651171  1.0000
  C   C52       1.0  0.9573970555011826  0.12769333721429624  0.7349014704510711  1.0000
  C   C53       1.0  0.7442273499163151  0.37210738085916967  0.12788387712878807  1.0000
  C   C54       1.0  0.7069699480291761  0.4072148492571514  0.1354632298403474  1.0000
  C   C55       1.0  0.6374090935706535  0.37229814962072527  0.1702718622719176  1.0000
  C   C56       1.0  0.6006215409196615  0.3003048596789952  0.19968504513092009  1.0000
  C   C57       1.0  0.6374049667841818  0.26509559697901597  0.19231887282665386  1.0000
  C   C58       1.0  0.706968197042805  0.29973832412986906  0.15756518820327875  1.0000
  C   C59       1.0  0.5304398647643397  0.2652189953314376  0.23476613079753156  1.0000
  C   C60       1.0  0.46956532377991783  0.2347928305775184  0.2651915930118848  1.0000
  C   C61       1.0  0.3993815440151494  0.19970274609001845  0.3002808556051805  1.0000
  C   C62       1.0  0.3625975261609469  0.23490977965504797  0.30766568023402396  1.0000
  C   C63       1.0  0.2930359387465272  0.2002660908109134  0.3424192546544022  1.0000
  C   C64       1.0  0.25577242673268336  0.1278974025234874  0.3720908425682695  1.0000
  C   C65       1.0  0.2930336852388963  0.09279599385640576  0.3644815361246146  1.0000
  C   C66       1.0  0.362595459736994  0.1277125707862511  0.32967309483647267  1.0000
  C   C67       1.0  0.25577273917648563  0.6278744118694914  0.8720999206850667  1.0000
  C   C68       1.0  0.2930363166925788  0.6354488991361363  0.9072118659886074  1.0000
  C   C69       1.0  0.36259577941952176  0.670256798365976  0.8722929572983634  1.0000
  C   C70       1.0  0.3993760938748709  0.6996703072686968  0.8002996202915543  1.0000
  C   C71       1.0  0.36258858437361857  0.6923008450062083  0.7650892937115401  1.0000
  C   C72       1.0  0.2930271170373049  0.6575504002901766  0.7997296474083913  1.0000
  C   C73       1.0  0.4695606400828823  0.734758539541474  0.7652137969105298  1.0000
  C   C74       1.0  0.5304365841668356  0.7651944238820574  0.7347932484671988  1.0000
  C   C75       1.0  0.6006209344112251  0.8002923643540426  0.6997061247218215  1.0000
  C   C76       1.0  0.637408905848133  0.807677404491464  0.7349147060057323  1.0000
  C   C77       1.0  0.7069726739991611  0.8424327772635821  0.7002687647255997  1.0000
  C   C78       1.0  0.7442321114746093  0.8721028877588491  0.6278976401361053  1.0000
  C   C79       1.0  0.7069611697033692  0.8644980735778984  0.5927953960935927  1.0000
  C   C80       1.0  0.6374001515162676  0.8296891396957802  0.6277143474314146  1.0000
  O   O1        1.0  9.858550952997489e-07  2.1292038349996942e-07  0.50000037851283  1.0000
  O   O2        1.0  0.15209990532851947  0.025106262167547293  0.43519450958156375  1.0000
  O   O3        1.0  0.04001203815477788  0.15600196721783982  0.3840132060760268  1.0000
  O   O4        1.0  0.9602667863560655  0.9351712372321613  0.4127263201266944  1.0000
  O   O5        1.0  0.15210162169490357  0.12699963215951013  0.41272098513686484  1.0000
  O   O6        1.0  0.03971041920215872  0.9127301339478747  0.43518011438359844  1.0000
  O   O7        1.0  0.9599810698595946  0.07597981596590847  0.38400450620947174  1.0000
  O   O8        1.0  0.8478955991558265  0.9351851854836251  0.5251124615632821  1.0000
  O   O9        1.0  0.9599964833098085  0.8840091641206624  0.6560047266185481  1.0000
  O   O10       1.0  0.8479044566752169  0.912702799852404  0.6270117141645888  1.0000
  O   O11       1.0  0.040019287505316414  0.8840088182847834  0.5759787768867926  1.0000
  O   O12       1.0  0.03971025587996731  0.12698869222397488  0.5251122294252255  1.0000
  O   O13       1.0  0.9602843944376858  0.025098648639527966  0.6270026917399177  1.0000
  O   O14       1.0  8.846627040689748e-07  0.49999870011022546  2.0087588481584696e-06  1.0000
  O   O15       1.0  0.9602903163224428  0.5872748113842051  0.0648174440442658  1.0000
  O   O16       1.0  0.04002451131942318  0.4240228591077582  0.11599485067166883  1.0000
  O   O17       1.0  0.8478994031444459  0.3730027051126967  0.08726563986953563  1.0000
  O   O18       1.0  0.03971823945009597  0.5648111373319223  0.08729333429020172  1.0000
  O   O19       1.0  0.847903134102893  0.4748917650698843  0.06481039554142137  1.0000
  O   O20       1.0  0.959988591941702  0.34399886054517737  0.11599172500337579  1.0000
  O   O21       1.0  0.9602851576160136  0.37298863948886657  0.9749089268869113  1.0000
  O   O22       1.0  0.040005566001951764  0.6159903306852497  0.8439957112495763  1.0000
  O   O23       1.0  0.03968915788746599  0.4748870750288958  0.8730095454013027  1.0000
  O   O24       1.0  0.959981688212089  0.6159890814291626  0.9240217823117762  1.0000
  O   O25       1.0  0.15210222328583725  0.5648220859787186  0.9748827957558465  1.0000
  O   O26       1.0  0.15209266025437537  0.5872682965585057  0.8729939941602968  1.0000
  O   O27       1.0  0.9133349683461914  0.7997685482887815  0.786890170283343  1.0000
  O   O28       1.0  0.08666951276733688  0.7002328549628132  0.7131108692290483  1.0000
  O   O29       1.0  0.9133341690649748  0.7002232016480862  0.8864379192229491  1.0000
  O   O30       1.0  0.08667202108128454  0.799780959072734  0.6135615070558559  1.0000
  O   O31       1.0  0.9133345075755629  0.11356664000508232  0.29975903858636604  1.0000
  O   O32       1.0  0.08666684536709819  0.3864333604808364  0.20024265555164086  1.0000
  O   O33       1.0  0.9133384839774835  0.2131177784584537  0.20020886257957932  1.0000
  O   O34       1.0  0.08666534451237602  0.28688314735558856  0.299789625088586  1.0000
  F   F1        1.0  0.9143700893475781  0.6537306696019698  0.1097255883310382  1.0000
  F   F2        1.0  0.08562703306240145  0.6097165443802126  0.1537714622200782  1.0000
  F   F3        1.0  0.08433022450091703  0.6759576314086926  0.21952730477359247  1.0000
  F   F4        1.0  0.9156592104388113  0.719482400003791  0.17597090846155797  1.0000
  F   F5        1.0  0.9156627984858191  0.8240353918522839  0.2804806753745838  1.0000
  F   F6        1.0  0.0842788411390246  0.7804444329717981  0.32410678427199013  1.0000
  F   F7        1.0  0.08556235320688906  0.8461884346776143  0.39036105912751423  1.0000
  F   F8        1.0  0.914370043451946  0.8902831628876623  0.34623012207494974  1.0000
  F   F9        1.0  0.08565267822132235  0.4758776198038745  0.7606469056090148  1.0000
  F   F10       1.0  0.9143825090153114  0.2606095525867713  0.9759177417799165  1.0000
  F   F11       1.0  0.9156718683423934  0.1961504459962101  0.9083782877000672  1.0000
  F   F12       1.0  0.08434750097131892  0.4083428080232068  0.696184744584194  1.0000
  F   F13       1.0  0.08428240681407577  0.30383684797342164  0.591631998505072  1.0000
  F   F14       1.0  0.915668328121818  0.09162781974430353  0.803843417367453  1.0000
  F   F15       1.0  0.9143627563900766  0.024091572057748742  0.7393811101043541  1.0000
  F   F16       1.0  0.08556692500446418  0.23937863346275623  0.5240919687373805  1.0000
  F   F17       1.0  0.7365328294353617  0.4759029924748646  0.10968328691906484  1.0000
  F   F18       1.0  0.7365265060170358  0.26061253158003667  0.15378310778978493  1.0000
  F   F19       1.0  0.6045291069463232  0.19615377385396454  0.21953181808531505  1.0000
  F   F20       1.0  0.6045347445443526  0.40836454228006847  0.1759305356101137  1.0000
  F   F21       1.0  0.3954726405552264  0.30384768428427117  0.28046457047172174  1.0000
  F   F22       1.0  0.3954703359544567  0.09165514603475332  0.3239880769155691  1.0000
  F   F23       1.0  0.2634733248299099  0.02411833944317718  0.39022304252556245  1.0000
  F   F24       1.0  0.2634751315980282  0.2393862038956769  0.3462152369462572  1.0000
  F   F25       1.0  0.26348151936754516  0.6096698798101627  0.9758980135689015  1.0000
  F   F26       1.0  0.26345873037767126  0.6537656049268888  0.76060335649634  1.0000
  F   F27       1.0  0.3954578665518228  0.7195114842128018  0.6961458653558099  1.0000
  F   F28       1.0  0.3954779320248463  0.6759144897458567  0.9083622055324413  1.0000
  F   F29       1.0  0.6045415749543539  0.7804796803960129  0.803852397629122  1.0000
  F   F30       1.0  0.6045188501837515  0.8240067474513137  0.5916509253446168  1.0000
  F   F31       1.0  0.7365151529842322  0.8902486430884974  0.5241149766336125  1.0000
  F   F32       1.0  0.7365398135973182  0.8462304030693986  0.7393924073508631  1.0000
