data_image0
_chemical_formula_structural       Cu2H20C22S4N4Cl4
_chemical_formula_sum              "Cu2 H20 C22 S4 N4 Cl4"
_cell_length_a       10.95383193377785
_cell_length_b       10.953973054350099
_cell_length_c       12.16424241594038
_cell_angle_alpha    64.16412755088786
_cell_angle_beta     64.16871853226591
_cell_angle_gamma    61.20950855712762

_space_group_name_H-M_alt    "P 1"
_space_group_IT_number       1

loop_
  _space_group_symop_operation_xyz
  'x, y, z'

loop_
  _atom_site_type_symbol
  _atom_site_label
  _atom_site_symmetry_multiplicity
  _atom_site_fract_x
  _atom_site_fract_y
  _atom_site_fract_z
  _atom_site_occupancy
  Cu  Cu1       1.0  0.4999956834699262  6.342375868939889e-07  0.49999924389127415  1.0000
  Cu  Cu2       1.0  1.0771389326445978e-06  0.5000010288738396  6.910728132205874e-07  1.0000
  H   H1        1.0  0.4140546306214219  0.4883235479082799  0.7555881437235284  1.0000
  H   H2        1.0  0.5116711781109231  0.585918669227155  0.7443851428657383  1.0000
  H   H3        1.0  0.5859526953680003  0.511671706744906  0.24441186417989502  1.0000
  H   H4        1.0  0.48833195965192283  0.41408315644356003  0.25561143002926917  1.0000
  H   H5        1.0  0.7099524799286882  0.15224908552768568  0.3636819341590965  1.0000
  H   H6        1.0  0.8477374105088628  0.2900305934314887  0.1363336019980537  1.0000
  H   H7        1.0  0.2900438027566423  0.8477455257992049  0.6363187101178978  1.0000
  H   H8        1.0  0.15226885755604494  0.7099679070489844  0.8636646947050366  1.0000
  H   H9        1.0  0.7742669001880031  0.31741802988689477  0.4003917360440354  1.0000
  H   H10       1.0  0.6825638402395312  0.22572742830823245  0.09960188063870844  1.0000
  H   H11       1.0  0.2257356303162154  0.6825699183402565  0.5996115439522711  1.0000
  H   H12       1.0  0.3174427506346618  0.7742699605515498  0.9003950920384654  1.0000
  H   H13       1.0  0.43867385430480244  0.28516599442056645  0.7639970639777331  1.0000
  H   H14       1.0  0.7148242039488794  0.561310422316275  0.7359957181011367  1.0000
  H   H15       1.0  0.5613175689648884  0.7148373857267244  0.23600116954893485  1.0000
  H   H16       1.0  0.2851708053960492  0.4386983366059385  0.2640103849198425  1.0000
  H   H17       1.0  0.3975016058969274  0.11684307815860964  0.7141638132401695  1.0000
  H   H18       1.0  0.8831515208595132  0.6024796576356054  0.7858428148656671  1.0000
  H   H19       1.0  0.6024784052299811  0.883170407799383  0.2858324838419507  1.0000
  H   H20       1.0  0.11684723627769959  0.39752675264117704  0.21416025306668018  1.0000
  C   C1        1.0  0.5211781661640984  0.47880977006199993  0.7499912439622989  1.0000
  C   C2        1.0  0.47882709767512194  0.5211888018980845  0.25000907617909013  1.0000
  C   C3        1.0  0.655955871814875  0.1822004265503523  0.452343199171267  1.0000
  C   C4        1.0  0.817782873736576  0.344038135675973  0.04766372706229303  1.0000
  C   C5        1.0  0.3440390684923498  0.8177985803822737  0.5476594936219287  1.0000
  C   C6        1.0  0.18222034329557593  0.6559605410855768  0.9523382042650751  1.0000
  C   C7        1.0  0.6910988686904174  0.27393985970497436  0.4737057855676455  1.0000
  C   C8        1.0  0.7260351952124963  0.3089035909895586  0.026296567638731155  1.0000
  C   C9        1.0  0.30890227085265565  0.7260492080262112  0.5262967824085293  1.0000
  C   C10       1.0  0.27397039910545107  0.6911003325184667  0.9737022662713172  1.0000
  C   C11       1.0  0.6127070538924073  0.31642442994480297  0.5866524473615014  1.0000
  C   C12       1.0  0.683561968892448  0.3872875381556185  0.9133452547559813  1.0000
  C   C13       1.0  0.3872903097300123  0.6835701862179989  0.4133510448584233  1.0000
  C   C14       1.0  0.31644192699819473  0.6127154039716913  0.08665549010786587  1.0000
  C   C15       1.0  0.5057737985361824  0.2576458700246675  0.674991174814302  1.0000
  C   C16       1.0  0.742344304490274  0.4942131738577233  0.8250047243114196  1.0000
  C   C17       1.0  0.49422067576626455  0.7423573338415467  0.32500342408808797  1.0000
  C   C18       1.0  0.2576537431021818  0.5057953960641656  0.17499693218842077  1.0000
  C   C19       1.0  0.4792422930493744  0.16456809621457322  0.6466695519858092  1.0000
  C   C20       1.0  0.8354154188179949  0.5207435380266291  0.8533392939396408  1.0000
  C   C21       1.0  0.5207480876389353  0.8354353172545715  0.35332826928854644  1.0000
  C   C22       1.0  0.16457922169250588  0.47925983118987847  0.14666585962206827  1.0000
  S   S1        1.0  0.6531197122629352  0.4421782928964719  0.6029333065340694  1.0000
  S   S2        1.0  0.5578001287733941  0.3468760587279008  0.8970534190822548  1.0000
  S   S3        1.0  0.3468887125646134  0.5578105288624968  0.39707133531144484  1.0000
  S   S4        1.0  0.44220309848608946  0.653125855977585  0.10294883709083544  1.0000
  N   N1        1.0  0.5511693667286791  0.1278700458180424  0.536841577490975  1.0000
  N   N2        1.0  0.8721219664473027  0.44881728327069953  0.9631706534671807  1.0000
  N   N3        1.0  0.4488206809229992  0.8721312413278426  0.46315724296357547  1.0000
  N   N4        1.0  0.12788398903564507  0.5511855667744001  0.036829292107555034  1.0000
  Cl  Cl1       1.0  0.4843602770719286  0.16058512771699907  0.3054606019986466  1.0000
  Cl  Cl2       1.0  0.8394202193711068  0.5156181315906281  0.19455232561804786  1.0000
  Cl  Cl3       1.0  0.5156366461161921  0.8394137108178941  0.6945364201242157  1.0000
  Cl  Cl4       1.0  0.16058333325556617  0.48437944626948604  0.8054490935802647  1.0000
