data_image0
_chemical_formula_structural       Ag2H20C12N4O4F6
_chemical_formula_sum              "Ag2 H20 C12 N4 O4 F6"
_cell_length_a       7.734459676482675
_cell_length_b       8.557483387795507
_cell_length_c       8.709427823951987
_cell_angle_alpha    106.37266853942155
_cell_angle_beta     113.24695413251719
_cell_angle_gamma    104.52616851958669

_space_group_name_H-M_alt    "P 1"
_space_group_IT_number       1

loop_
  _space_group_symop_operation_xyz
  'x, y, z'

loop_
  _atom_site_type_symbol
  _atom_site_label
  _atom_site_symmetry_multiplicity
  _atom_site_fract_x
  _atom_site_fract_y
  _atom_site_fract_z
  _atom_site_occupancy
  Ag  Ag1       1.0  0.4750251156892489  0.8471478379996639  0.1488972544059309  1.0000
  Ag  Ag2       1.0  0.524975694689111  0.1528544021073514  0.8511008780798833  1.0000
  H   H1        1.0  0.7204681260087469  0.7761804973350332  0.03622782414357322  1.0000
  H   H2        1.0  0.27953615889275346  0.2238230833022711  0.9637753274950926  1.0000
  H   H3        1.0  0.24136889297184178  0.006506181555742797  0.24235379709608657  1.0000
  H   H4        1.0  0.758638669845844  0.9935014067738449  0.7576481607623364  1.0000
  H   H5        1.0  0.5296500994903609  0.4761434070616912  0.7802028706900687  1.0000
  H   H6        1.0  0.47035369677053035  0.523856167698625  0.21979899436335879  1.0000
  H   H7        1.0  0.3783469063307833  0.6053775629795904  0.7610011761647685  1.0000
  H   H8        1.0  0.6216595268203449  0.3946246831580921  0.23899775255226532  1.0000
  H   H9        1.0  0.8194532450666826  0.7036354234324661  0.2904823757417461  1.0000
  H   H10       1.0  0.18054947070088193  0.2963708246592347  0.7095186816276496  1.0000
  H   H11       1.0  0.7902053450941651  0.5340897612388956  0.09512485290195373  1.0000
  H   H12       1.0  0.2097995631446423  0.46591515475327566  0.9048777385079917  1.0000
  H   H13       1.0  0.4812006748172877  0.23312924484880426  0.5457376958883273  1.0000
  H   H14       1.0  0.5188056324814665  0.7668756722910284  0.4542642310350971  1.0000
  H   H15       1.0  0.5914240232485142  0.23139107185479443  0.3994770992350851  1.0000
  H   H16       1.0  0.4085835484134961  0.7686165169548075  0.6005260100157701  1.0000
  H   H17       1.0  0.1657870495955152  0.7452690775351342  0.2943904312306955  1.0000
  H   H18       1.0  0.8342177062579523  0.25473850801912323  0.7056117042083302  1.0000
  H   H19       1.0  0.2253060522122752  0.9423648300985901  0.48163148080526247  1.0000
  H   H20       1.0  0.7747021516313592  0.05764409454589979  0.5183722196093115  1.0000
  C   C1        1.0  0.4530784261744287  0.5415710081483168  0.8435468787423803  1.0000
  C   C2        1.0  0.5469222583515573  0.4584339029608343  0.15645425194981744  1.0000
  C   C3        1.0  0.7069530296379082  0.5979735724717441  0.1507638629063236  1.0000
  C   C4        1.0  0.293049820826347  0.40203000509783476  0.8492353476491133  1.0000
  C   C5        1.0  0.5358550533711721  0.15561114296400547  0.46534350228367327  1.0000
  C   C6        1.0  0.4641479229454575  0.8443897636034305  0.5346527100653802  1.0000
  C   C7        1.0  0.28953269307634605  0.873975591610673  0.4047368921523003  1.0000
  C   C8        1.0  0.7104762864899354  0.12603199882660474  0.595266704004473  1.0000
  C   C9        1.0  0.9082238986051224  0.1342016637699857  0.19236255541143535  1.0000
  C   C10       1.0  0.09176241484448149  0.8657965580234613  0.8076386325694785  1.0000
  C   C11       1.0  0.0735011692772716  0.3203152052446113  0.24902286941870955  1.0000
  C   C12       1.0  0.9264913322648525  0.6796723419310877  0.7509751817149137  1.0000
  N   N1        1.0  0.6064071262763517  0.6796399589910532  0.0331591248022533  1.0000
  N   N2        1.0  0.393593684102008  0.32036228111596177  0.9668390076835537  1.0000
  N   N3        1.0  0.36384081587102196  0.9825090548509932  0.3197144308633072  1.0000
  N   N4        1.0  0.6361661147650323  0.01749719764370639  0.6802869358313971  1.0000
  O   O1        1.0  0.7384010168633565  0.13701368571341282  0.17125469189051754  1.0000
  O   O2        1.0  0.2615798547636459  0.8629791842049244  0.8287304923069102  1.0000
  O   O3        1.0  0.9624226890524454  0.006532057890701998  0.17173166260582928  1.0000
  O   O4        1.0  0.0375565071377366  0.9934568165234693  0.828280532911336  1.0000
  F   F1        1.0  0.0313423545860871  0.361512216123664  0.10004709615893151  1.0000
  F   F2        1.0  0.9686565366071275  0.6384740023954689  0.8999504955556717  1.0000
  F   F3        1.0  0.26921940239147796  0.32887507997519794  0.31549380295270174  1.0000
  F   F4        1.0  0.7307617955875542  0.6711004391358555  0.6844992828686784  1.0000
  F   F5        1.0  0.07950092474260374  0.4556624371190168  0.38218403628987124  1.0000
  F   F6        1.0  0.9204990518955537  0.5443291211919142  0.6178108276039466  1.0000
