data_image0
_chemical_formula_structural       Zn4H48C82N16O16
_chemical_formula_sum              "Zn4 H48 C82 N16 O16"
_cell_length_a       20.030626926772484
_cell_length_b       19.630336523760782
_cell_length_c       19.57337817804826
_cell_angle_alpha    112.2775108815943
_cell_angle_beta     104.04270166236466
_cell_angle_gamma    112.03106550264427

_space_group_name_H-M_alt    "P 1"
_space_group_IT_number       1

loop_
  _space_group_symop_operation_xyz
  'x, y, z'

loop_
  _atom_site_type_symbol
  _atom_site_label
  _atom_site_symmetry_multiplicity
  _atom_site_fract_x
  _atom_site_fract_y
  _atom_site_fract_z
  _atom_site_occupancy
  Zn  Zn1       1.0  0.9947753901176739  0.6109689718005596  0.10330972582212168  1.0000
  Zn  Zn2       1.0  0.9977130503732851  0.37830611275759907  0.8777277273027834  1.0000
  Zn  Zn3       1.0  0.09593285445733095  0.5937959095780911  0.9886107113910967  1.0000
  Zn  Zn4       1.0  0.9035988728900151  0.39957585032761483  0.9965097145540227  1.0000
  H   H1        1.0  0.3992266592334489  0.4522887939825821  0.7525076487503669  1.0000
  H   H2        1.0  0.6043775783266198  0.5451571766870771  0.01803921117142679  1.0000
  H   H3        1.0  0.45223844123832174  0.9808662205275027  0.5668361341726253  1.0000
  H   H4        1.0  0.5212452752182273  0.767358713893735  0.43357679905323465  1.0000
  H   H5        1.0  0.4397853988863075  0.9169025751094041  0.4046082182186197  1.0000
  H   H6        1.0  0.5337221109067228  0.8313111288560008  0.5957668798626513  1.0000
  H   H7        1.0  0.37853970825012345  0.8097660800537199  0.5341615820336685  1.0000
  H   H8        1.0  0.5950762566091328  0.938493844823725  0.4664936374470301  1.0000
  H   H9        1.0  0.9189676049983716  0.42406562033352196  0.4319379369535241  1.0000
  H   H10       1.0  0.7610618890211923  0.5449708571773114  0.5266482251414571  1.0000
  H   H11       1.0  0.9800806544284485  0.5708417492090518  0.5876260006911737  1.0000
  H   H12       1.0  0.6999994346747869  0.39806901060747896  0.3717568582259291  1.0000
  H   H13       1.0  0.15447216113037848  0.05157048016496899  0.005736613805566993  1.0000
  H   H14       1.0  0.16907856037757094  0.22727796555843577  0.2726950317779995  1.0000
  H   H15       1.0  0.029098436118601995  0.07835597849159368  0.02786258900455609  1.0000
  H   H16       1.0  0.29353791046006705  0.2008416441323816  0.24939751202220606  1.0000
  H   H17       1.0  0.842334285445709  0.18187357501243884  0.7107085717298389  1.0000
  H   H18       1.0  0.12071148018780775  0.6393442737933414  0.26416218856851253  1.0000
  H   H19       1.0  0.9868927881557283  0.6262623643439582  0.8658514326548217  1.0000
  H   H20       1.0  0.8334419929409193  0.35438013338023905  0.12164576990170402  1.0000
  H   H21       1.0  0.7460460197312528  0.3571142059617785  0.8567755496805276  1.0000
  H   H22       1.0  0.2695026833669801  0.641832003360257  0.9805256698556378  1.0000
  H   H23       1.0  0.8643611665571099  0.34748165135736997  0.7196155235137525  1.0000
  H   H24       1.0  0.9436915627124023  0.6314638284445168  0.26137838415745307  1.0000
  H   H25       1.0  0.8610003493866785  0.6352956412016866  0.00041154414171265324  1.0000
  H   H26       1.0  0.14834589834153167  0.36400899215175986  0.8366032460766774  1.0000
  H   H27       1.0  0.7330166165651875  0.2108774139092731  0.8771875948203629  1.0000
  H   H28       1.0  0.24436698752157324  0.6068496239082464  0.11144486991067733  1.0000
  H   H29       1.0  0.18277149083446176  0.7996935105588745  0.025671219543411856  1.0000
  H   H30       1.0  0.024946020117880587  0.4065590757456619  0.1523571294077968  1.0000
  H   H31       1.0  0.965107800184711  0.7592249248463929  0.2179708624279043  1.0000
  H   H32       1.0  0.0655914836711133  0.228693366390992  0.8286079087509393  1.0000
  H   H33       1.0  0.5468672134401729  0.7658847262213088  0.03604592335262431  1.0000
  H   H34       1.0  0.45731148025024027  0.23154036013260534  0.7386191841465433  1.0000
  H   H35       1.0  0.7966315823859418  0.2648409174593311  0.3528619680155103  1.0000
  H   H36       1.0  0.6993369702687602  0.25420729480200077  0.32589196025989503  1.0000
  H   H37       1.0  0.7220098174397334  0.194607612740107  0.3683928269471436  1.0000
  H   H38       1.0  0.9813525780160219  0.7168184362196826  0.63168752916787  1.0000
  H   H39       1.0  0.8838154632872914  0.7055188858230538  0.6045611742069923  1.0000
  H   H40       1.0  0.9573904701152643  0.7742252510606918  0.5868964956326935  1.0000
  H   H41       1.0  0.3645579062743565  0.356314753797065  0.15613828159357007  1.0000
  H   H42       1.0  0.044143074934105124  0.9872092271785391  0.23559882839449384  1.0000
  H   H43       1.0  0.5201083128718906  0.676509776396479  0.8513603897653113  1.0000
  H   H44       1.0  0.4691817603111729  0.5838336948153326  0.7487252828645623  1.0000
  H   H45       1.0  0.5648994458054092  0.6743410418891999  0.7818851084603226  1.0000
  H   H46       1.0  0.5314000742813931  0.41632618722177744  0.027140295086084648  1.0000
  H   H47       1.0  0.4852025940943321  0.32368641974729667  0.9253930611508068  1.0000
  H   H48       1.0  0.4350570941611167  0.32425086641726597  0.9901974854790723  1.0000
  C   C1        1.0  0.07826739323619593  0.7956187129210266  0.13158882960018303  1.0000
  C   C2        1.0  0.07300595720399627  0.3382998862996516  0.0010339155289428872  1.0000
  C   C3        1.0  0.7551881483321807  0.16230983963797738  0.7657198749811442  1.0000
  C   C4        1.0  0.21416524549735522  0.6379502602662583  0.21914000003140183  1.0000
  C   C5        1.0  0.906817633985412  0.48690228099562927  0.7618803661697842  1.0000
  C   C6        1.0  0.8769964051545429  0.4903270782026112  0.21785845523616118  1.0000
  C   C7        1.0  0.7710160403551426  0.4932338395116247  0.9110928871283901  1.0000
  C   C8        1.0  0.2403063256279623  0.5054214904727273  0.9072378768188898  1.0000
  C   C9        1.0  0.44583136214644276  0.4737431429322215  0.8114090845564377  1.0000
  C   C10       1.0  0.5578084690242093  0.5237004706462828  0.9591114279887306  1.0000
  C   C11       1.0  0.5353296810739961  0.5503667347449975  0.8576815683541382  1.0000
  C   C12       1.0  0.4684655738853465  0.44715907605572613  0.9128640543508979  1.0000
  C   C13       1.0  0.696609744653145  0.48816603503108524  0.8834607826504097  1.0000
  C   C14       1.0  0.3111832683080921  0.5095697353727788  0.9048702741817111  1.0000
  C   C15       1.0  0.47447846257313137  0.4152400911622109  0.8263638164899021  1.0000
  C   C16       1.0  0.5293468389847006  0.5822870966424246  0.944290115178191  1.0000
  C   C17       1.0  0.5659980017711418  0.4928591728898153  0.8760304432437563  1.0000
  C   C18       1.0  0.43789499241961477  0.504706671755997  0.8943320179618367  1.0000
  C   C19       1.0  0.6343248635150401  0.4888775272093114  0.8726200640692879  1.0000
  C   C20       1.0  0.37098968308391284  0.5090000136748998  0.9017043665778317  1.0000
  C   C21       1.0  0.4616045766115845  0.8990020003618684  0.4479973533977172  1.0000
  C   C22       1.0  0.5120908418864474  0.8495248262043591  0.5526006406052488  1.0000
  C   C23       1.0  0.8281316554283363  0.2028841076104014  0.76219929100359  1.0000
  C   C24       1.0  0.1390432532533694  0.6261513948617647  0.2150797527775126  1.0000
  C   C25       1.0  0.4668138701738086  0.9327318175244202  0.5364772358536882  1.0000
  C   C26       1.0  0.5063937620297239  0.8152802313627207  0.4637411121610884  1.0000
  C   C27       1.0  0.6833726278932702  0.0857006590515042  0.7013232007250354  1.0000
  C   C28       1.0  0.2868161872085864  0.6831552873595683  0.29136437233562873  1.0000
  C   C29       1.0  0.546068943228029  0.9090317641361808  0.4804442305821581  1.0000
  C   C30       1.0  0.4273085772297023  0.8390617584008454  0.5198676988402653  1.0000
  C   C31       1.0  0.5534093539077743  0.9451909791886023  0.5710275747060861  1.0000
  C   C32       1.0  0.41993536633606954  0.8030773183039771  0.42927390373522906  1.0000
  C   C33       1.0  0.6228048752293631  0.019747059456222033  0.6422512562342321  1.0000
  C   C34       1.0  0.3493789226402768  0.7336298186969544  0.355616219029308  1.0000
  C   C35       1.0  0.9181724738848801  0.5327528184411108  0.5389682760207394  1.0000
  C   C36       1.0  0.7622053319441733  0.4363026437692312  0.41988582668721364  1.0000
  C   C37       1.0  0.8840455061335177  0.4506603141396965  0.4538328424911456  1.0000
  C   C38       1.0  0.7962945003688305  0.5182230016603527  0.505794512709315  1.0000
  C   C39       1.0  0.8564248858082593  0.4857103825159255  0.2804181586666559  1.0000
  C   C40       1.0  0.8725058424068521  0.4870152437886759  0.6899968849654029  1.0000
  C   C41       1.0  0.8727126784073391  0.5658333164351034  0.495116798055342  1.0000
  C   C42       1.0  0.8074976992988212  0.4030180440835096  0.4639208277202228  1.0000
  C   C43       1.0  0.8385379119377846  0.4832867457126469  0.4083148129008549  1.0000
  C   C44       1.0  0.8421142958777921  0.4856185571955293  0.5510990438948937  1.0000
  C   C45       1.0  0.9645289870442539  0.5582017561490816  0.8416940267504387  1.0000
  C   C46       1.0  0.863960604872041  0.4230382074677337  0.14490601618864923  1.0000
  C   C47       1.0  0.8428426462505952  0.48371830257217857  0.3373412815672126  1.0000
  C   C48       1.0  0.8513319640171702  0.48639136950959727  0.6256426619269817  1.0000
  C   C49       1.0  0.08776890703915541  0.10443418379096411  0.0768901872726246  1.0000
  C   C50       1.0  0.23412842087054742  0.17336225222505422  0.20063496681011372  1.0000
  C   C51       1.0  0.1566489957848063  0.0903875306986279  0.06453264873275089  1.0000
  C   C52       1.0  0.1657141660173238  0.1882249116612584  0.21325801317003365  1.0000
  C   C53       1.0  0.15364211899881747  0.9300016939763014  0.12594930676921479  1.0000
  C   C54       1.0  0.110625297769964  0.309237805680965  0.11445461778205873  1.0000
  C   C55       1.0  0.10124110155687302  0.09041501717333492  0.1507286070556191  1.0000
  C   C56       1.0  0.21978236229428208  0.1881546401702394  0.1257530007157328  1.0000
  C   C57       1.0  0.1715956781371517  0.07387619286123483  0.1382317311241508  1.0000
  C   C58       1.0  0.1504704535964052  0.2047446698928823  0.1395141101696495  1.0000
  C   C59       1.0  0.17121501075154552  0.0005427056649622842  0.1350055449171137  1.0000
  C   C60       1.0  0.13385362293771408  0.2665689558199348  0.13293681654088368  1.0000
  C   C61       1.0  0.7865975100058336  0.4262257300559115  0.8984328651707898  1.0000
  C   C62       1.0  0.22732561646189003  0.5726877038075174  0.9456961801447861  1.0000
  C   C63       1.0  0.9019418488848104  0.41552138997955973  0.766966214645237  1.0000
  C   C64       1.0  0.9200420443680885  0.5647053107357751  0.21596253310323027  1.0000
  C   C65       1.0  0.8457522956068858  0.5686987133930261  0.9719684783438326  1.0000
  C   C66       1.0  0.16482093208436774  0.4304623722398659  0.8720425322090223  1.0000
  C   C67       1.0  0.7720732875053214  0.21742193119053613  0.847133177450104  1.0000
  C   C68       1.0  0.20240723376297604  0.6096152788254727  0.1370520376535751  1.0000
  C   C69       1.0  0.14617636150244806  0.7885976296329744  0.05750589352489042  1.0000
  C   C70       1.0  0.03702800280376547  0.38840757898925926  0.09912477173963197  1.0000
  C   C71       1.0  0.12933267865622608  0.8459699025409153  0.1085782167792928  1.0000
  C   C72       1.0  0.07882727584150466  0.3464153984118142  0.07791207870840107  1.0000
  C   C73       1.0  0.03795869175038997  0.8147477632960687  0.1824927721655456  1.0000
  C   C74       1.0  0.092681982297684  0.2863522249462991  0.9428003800943757  1.0000
  C   C75       1.0  0.56184201825684  0.6715307000196591  0.010282947340790802  1.0000
  C   C76       1.0  0.44114222426553346  0.32506207194817444  0.7620454035973339  1.0000
  C   C77       1.0  0.746858221196277  0.25571345304314974  0.370192558589011  1.0000
  C   C78       1.0  0.9332297109862253  0.713999500941881  0.5867740387983389  1.0000
  C   C79       1.0  0.2853265151942281  0.24062382192941098  0.11264129088547747  1.0000
  C   C80       1.0  0.04189042609687731  0.026396839774236007  0.1602762040652266  1.0000
  C   C81       1.0  0.52844500027377  0.6356620389211117  0.8015019531899342  1.0000
  C   C82       1.0  0.4737122079852298  0.36363036094789436  0.9725320358229226  1.0000
  N   N1        1.0  0.06703406240237794  0.7155805061875071  0.09578223742732206  1.0000
  N   N2        1.0  0.03194167999526326  0.3743918309316213  0.9809696464490328  1.0000
  N   N3        1.0  0.8830756955639815  0.2755595152597579  0.8349448162667558  1.0000
  N   N4        1.0  0.08842001016297728  0.5958162793179796  0.13744623742020678  1.0000
  N   N5        1.0  0.992291324067679  0.5306166242679847  0.8888970474392578  1.0000
  N   N6        1.0  0.896499704020563  0.45522964130008586  0.1035973999492938  1.0000
  N   N7        1.0  0.8639636781045608  0.4599140048158145  0.9494469085998671  1.0000
  N   N8        1.0  0.15051915830555632  0.5397772944162967  0.9339801802915347  1.0000
  N   N9        1.0  0.9540549084903203  0.443167621133689  0.84299760493748  1.0000
  N   N10       1.0  0.9312243086250334  0.5431503051312278  0.14771315770676807  1.0000
  N   N11       1.0  0.9000866110996454  0.5473111229241069  0.9942911324231786  1.0000
  N   N12       1.0  0.11155855420332729  0.45126887122739845  0.8885363855135182  1.0000
  N   N13       1.0  0.8484832955680089  0.28477886750734166  0.8879696576765356  1.0000
  N   N14       1.0  0.12707781897032794  0.5856237246350845  0.08938517260283163  1.0000
  N   N15       1.0  0.10839061811069678  0.7115372692295594  0.05092763085737319  1.0000
  N   N16       1.0  0.009175644016266861  0.4037314719713621  0.03963563208221637  1.0000
  O   O1        1.0  0.0398578747542685  0.8819332659665805  0.21945471643009273  1.0000
  O   O2        1.0  0.9928162158844883  0.7431716691730016  0.185619664163191  1.0000
  O   O3        1.0  0.13619357071128504  0.2588144444494703  0.9575789595513059  1.0000
  O   O4        1.0  0.05071190571992181  0.2656263482347824  0.8631383241994611  1.0000
  O   O5        1.0  0.6204125318612269  0.7112310155702346  0.07726772450076425  1.0000
  O   O6        1.0  0.5196443874257994  0.7071166180952347  0.9885863408899312  1.0000
  O   O7        1.0  0.38073569333379004  0.28341224402616655  0.6961948645061824  1.0000
  O   O8        1.0  0.4845340260051998  0.291015555138813  0.7847993015729885  1.0000
  O   O9        1.0  0.7749288317635958  0.32200998585160073  0.4531178508322285  1.0000
  O   O10       1.0  0.9047573388812038  0.6462209988055818  0.5044644636460802  1.0000
  O   O11       1.0  0.30515338354889104  0.2119450799613389  0.059118802425835774  1.0000
  O   O12       1.0  0.323107368068051  0.32632647959838573  0.16953412991710334  1.0000
  O   O13       1.0  0.9776308626934521  0.9630466371320238  0.10350773153830761  1.0000
  O   O14       1.0  0.0724429928900463  0.04211161081954631  0.2381140613866819  1.0000
  O   O15       1.0  0.5723582687703794  0.6003705940913092  0.8299328163517854  1.0000
  O   O16       1.0  0.43035328166810427  0.3975224195652559  0.9403880645308291  1.0000
