data_image0
_chemical_formula_structural       Co2H8C12N4O20
_chemical_formula_sum              "Co2 H8 C12 N4 O20"
_cell_length_a       6.946928560493488
_cell_length_b       8.811311065774145
_cell_length_c       9.615134918118404
_cell_angle_alpha    116.83103692306209
_cell_angle_beta     90.02678068923721
_cell_angle_gamma    113.18747833170217

_space_group_name_H-M_alt    "P 1"
_space_group_IT_number       1

loop_
  _space_group_symop_operation_xyz
  'x, y, z'

loop_
  _atom_site_type_symbol
  _atom_site_label
  _atom_site_symmetry_multiplicity
  _atom_site_fract_x
  _atom_site_fract_y
  _atom_site_fract_z
  _atom_site_occupancy
  Co  Co1       1.0  0.003683581695511922  0.9999255869639114  0.750021408877984  1.0000
  Co  Co2       1.0  0.996311955650384  8.563229264519635e-05  0.24996798838721182  1.0000
  H   H1        1.0  0.2490460667685852  0.012286943857659998  0.967817820694556  1.0000
  H   H2        1.0  0.2366021852616029  0.9878294326654711  0.5322987430841265  1.0000
  H   H3        1.0  0.750942306958386  0.987712826862776  0.03216176933236882  1.0000
  H   H4        1.0  0.7634067823457328  0.012153923491304399  0.46770233173651116  1.0000
  H   H5        1.0  0.3015340035484896  0.22549283600410067  0.017041653508904613  1.0000
  H   H6        1.0  0.07597352861136399  0.7746455425985205  0.48295646003978715  1.0000
  H   H7        1.0  0.6984645473003326  0.7744956161007439  0.9829344254180153  1.0000
  H   H8        1.0  0.9240323452981299  0.22535466779095975  0.517044112903541  1.0000
  C   C1        1.0  0.6151913730634746  0.6934057972876035  0.5289017531279611  1.0000
  C   C2        1.0  0.9217213419087001  0.30658354309657915  0.9711327027319782  1.0000
  C   C3        1.0  0.3848086864330043  0.30659430342035426  0.4710935739358674  1.0000
  C   C4        1.0  0.07827960774637428  0.6934125708333667  0.028873502620882473  1.0000
  C   C5        1.0  0.6751376057969266  0.6280699286267007  0.6358125099912468  1.0000
  C   C6        1.0  0.04692056717489382  0.3718428046887184  0.8641719208236436  1.0000
  C   C7        1.0  0.3248653661263603  0.3719244799397288  0.3641794877136134  1.0000
  C   C8        1.0  0.9530788754916912  0.6281618137947194  0.13583770528509834  1.0000
  C   C9        1.0  0.5485412139208562  0.44245582258314203  0.6097661155644046  1.0000
  C   C10       1.0  0.1060094199310981  0.5574742131514441  0.8901742481387059  1.0000
  C   C11       1.0  0.4514609931194897  0.5575428161351328  0.39022654346281627  1.0000
  C   C12       1.0  0.8939893143219847  0.4425289880635718  0.10983480774378761  1.0000
  N   N1        1.0  0.591650812095068  0.394281404722321  0.7263014732154076  1.0000
  N   N2        1.0  0.1971453822033525  0.6055519213215351  0.7736415826046752  1.0000
  N   N3        1.0  0.40835344093898135  0.6057270889716905  0.2736920299279859  1.0000
  N   N4        1.0  0.8028527919262841  0.39445302927106257  0.22638377918738675  1.0000
  O   O1        1.0  0.7274622816077706  0.8668796359782291  0.571655796430825  1.0000
  O   O2        1.0  0.8606271193512425  0.13311855262303854  0.9284013392086335  1.0000
  O   O3        1.0  0.27255196751411853  0.1331315802137212  0.428333602789543  1.0000
  O   O4        1.0  0.13935795194484507  0.8668803544228254  0.07160390668077805  1.0000
  O   O5        1.0  0.8467617704997678  0.745819682668909  0.7415891134269116  1.0000
  O   O6        1.0  0.10057620246058725  0.2539641794559914  0.7583891401711538  1.0000
  O   O7        1.0  0.1532455880948689  0.25417773696203483  0.25841241747588123  1.0000
  O   O8        1.0  0.8994095777230554  0.7460419029030377  0.24162315277101235  1.0000
  O   O9        1.0  0.6316610690133118  0.5158226196444745  0.870944156723226  1.0000
  O   O10       1.0  0.11576408263037055  0.48390076852025043  0.6289913139211974  1.0000
  O   O11       1.0  0.36835261927407  0.4841817088579532  0.12905183316694743  1.0000
  O   O12       1.0  0.8842461561211861  0.5161139247734498  0.3710296477619223  1.0000
  O   O13       1.0  0.5848650830919765  0.23613550215868884  0.6822306159356444  1.0000
  O   O14       1.0  0.3483337514724524  0.763702078926194  0.8177179503516496  1.0000
  O   O15       1.0  0.4151249921794076  0.763867656220967  0.3177763409332997  1.0000
  O   O16       1.0  0.6516592924581416  0.23628686086928502  0.18228120719646765  1.0000
  O   O17       1.0  0.25410705747653844  0.09704312758326242  0.9258334897787392  1.0000
  O   O18       1.0  0.15697615771401988  0.9030450663024682  0.5742257487591117  1.0000
  O   O19       1.0  0.7459045399734309  0.90295989451095  0.07416717501268985  1.0000
  O   O20       1.0  0.843028322382871  0.09695523282233151  0.4257790202561437  1.0000
