data_image0
_chemical_formula_structural       Cu4H20C36N12O8
_chemical_formula_sum              "Cu4 H20 C36 N12 O8"
_cell_length_a       7.522649000918156
_cell_length_b       7.822283962998233
_cell_length_c       13.87103280037254
_cell_angle_alpha    89.99953386545069
_cell_angle_beta     90.00077254752215
_cell_angle_gamma    93.80746910814185

_space_group_name_H-M_alt    "P 1"
_space_group_IT_number       1

loop_
  _space_group_symop_operation_xyz
  'x, y, z'

loop_
  _atom_site_type_symbol
  _atom_site_label
  _atom_site_symmetry_multiplicity
  _atom_site_fract_x
  _atom_site_fract_y
  _atom_site_fract_z
  _atom_site_occupancy
  Cu  Cu1       1.0  0.05878841293618108  0.7008251181073318  0.4181216745673666  1.0000
  Cu  Cu2       1.0  0.4412137964185163  0.29917178285268153  0.918120034933942  1.0000
  Cu  Cu3       1.0  0.9412000916499395  0.29918205751236837  0.5818859728915483  1.0000
  Cu  Cu4       1.0  0.5587917694880744  0.7008147872995708  0.0818818452249417  1.0000
  H   H1        1.0  0.4147689681426314  0.06362121454311163  0.6592169308454173  1.0000
  H   H2        1.0  0.0852143366441993  0.9363660730416542  0.1592096956528266  1.0000
  H   H3        1.0  0.5852306482017013  0.9363923064517012  0.3407813445911358  1.0000
  H   H4        1.0  0.9147852597820432  0.06362950347705272  0.8407929053883834  1.0000
  H   H5        1.0  0.4473862461202387  0.325804289915297  0.5614291781923981  1.0000
  H   H6        1.0  0.05258977314564108  0.6741880539566338  0.061422249280028  1.0000
  H   H7        1.0  0.5526257146236874  0.6742142875532907  0.4385777484008955  1.0000
  H   H8        1.0  0.9473902572243061  0.32579481667950466  0.938591886547492  1.0000
  H   H9        1.0  0.13819615932711568  0.0586629988594609  0.3372744739400275  1.0000
  H   H10       1.0  0.36178891113864603  0.941343939070869  0.837275598494436  1.0000
  H   H11       1.0  0.861790843653317  0.9413595664546863  0.6627223595730172  1.0000
  H   H12       1.0  0.6382069680700297  0.058637559348888105  0.1627313281280038  1.0000
  H   H13       1.0  0.302043817835056  0.33290046656836136  0.3973197051261863  1.0000
  H   H14       1.0  0.19793324216931296  0.6671045173395811  0.897311548260042  1.0000
  H   H15       1.0  0.6979553169414316  0.6671066483389368  0.602689384226892  1.0000
  H   H16       1.0  0.8020565712704268  0.3328847062160491  0.10270042480858169  1.0000
  H   H17       1.0  0.35505764646109134  0.7362727152825459  0.7454667578685842  1.0000
  H   H18       1.0  0.144934006064922  0.2637096479088683  0.2454625247119893  1.0000
  H   H19       1.0  0.6449456471646826  0.2637189949112794  0.254527192073823  1.0000
  H   H20       1.0  0.8550649359594971  0.7362949046287924  0.7545400763049201  1.0000
  C   C1        1.0  0.3547025709236706  0.06527588655273318  0.5877267087876348  1.0000
  C   C2        1.0  0.1452955090410626  0.9347185803376166  0.0877242627568577  1.0000
  C   C3        1.0  0.6453112765386348  0.9347324261655104  0.41227012486184117  1.0000
  C   C4        1.0  0.8547059941965571  0.0652846758153345  0.9122790591997614  1.0000
  C   C5        1.0  0.261118210166849  0.9204985745660961  0.5498150575581491  1.0000
  C   C6        1.0  0.2388863884699504  0.079488617923829  0.0498167580103157  1.0000
  C   C7        1.0  0.7388970623973917  0.079511011772972  0.45018105516678725  1.0000
  C   C8        1.0  0.7611156728475947  0.9205043809970165  0.9501880058270588  1.0000
  C   C9        1.0  0.3712404432763846  0.21406397967489707  0.5324378086804842  1.0000
  C   C10       1.0  0.12874611435438507  0.7859363412330325  0.0324330768012473  1.0000
  C   C11       1.0  0.6287686672303466  0.7859520505694705  0.467567676054486  1.0000
  C   C12       1.0  0.8712481670516324  0.2140592656026499  0.9675752916345458  1.0000
  C   C13       1.0  0.20274936448282693  0.0672482841238491  0.4076162516460329  1.0000
  C   C14       1.0  0.2972435897772812  0.9327526405692554  0.9076169284383083  1.0000
  C   C15       1.0  0.7972471126336347  0.9327588460203844  0.5923827447210072  1.0000
  C   C16       1.0  0.7027649227550299  0.0672377579854953  0.0923907191372493  1.0000
  C   C17       1.0  0.2937311933552778  0.21656307803935707  0.440977844651087  1.0000
  C   C18       1.0  0.2062561767966358  0.7834413248977513  0.9409691852908536  1.0000
  C   C19       1.0  0.7062599687492864  0.7834440824174963  0.5590276400373853  1.0000
  C   C20       1.0  0.7937418981891112  0.21655169679569042  0.0590341366776457  1.0000
  C   C21       1.0  0.228814652488694  0.7573602982932641  0.5994547499605289  1.0000
  C   C22       1.0  0.27118435292054943  0.24262505074725033  0.09945734412966088  1.0000
  C   C23       1.0  0.7711869470041889  0.2426442391077046  0.4005413627248302  1.0000
  C   C24       1.0  0.7288156089584774  0.7573577061043365  0.9005510243589043  1.0000
  C   C25       1.0  0.1754159986447661  0.5215411624345095  0.6870881050311155  1.0000
  C   C26       1.0  0.3245858985569186  0.47845465793961495  0.18708346936244163  1.0000
  C   C27       1.0  0.8245840794575942  0.47846082011504626  0.3129130541426406  1.0000
  C   C28       1.0  0.675425560359585  0.5215395691440249  0.8129090387511084  1.0000
  C   C29       1.0  0.2685397059665533  0.6837883528046406  0.6889653572748031  1.0000
  C   C30       1.0  0.23145643785664297  0.3162010691882884  0.1889629669343265  1.0000
  C   C31       1.0  0.7314564821342344  0.3162149337263074  0.31103363910048637  1.0000
  C   C32       1.0  0.7685484536800542  0.6837765325329671  0.8110389132437986  1.0000
  C   C33       1.0  0.13730266000416694  0.3747103987461814  0.7537863069187055  1.0000
  C   C34       1.0  0.36268558397183887  0.6252770113422983  0.2537978277541058  1.0000
  C   C35       1.0  0.862686478724207  0.6252698565571321  0.2461961081682631  1.0000
  C   C36       1.0  0.6373071958784634  0.3747339851616688  0.7462040522969176  1.0000
  N   N1        1.0  0.18649852698504787  0.9236105022423118  0.4602432104191436  1.0000
  N   N2        1.0  0.31350057303929907  0.0763846309577403  0.9602481736915465  1.0000
  N   N3        1.0  0.8135100053903982  0.0763978408277737  0.5397536232101103  1.0000
  N   N4        1.0  0.6864970203286234  0.9236019846743349  0.0397616366323632  1.0000
  N   N5        1.0  0.12211747481195089  0.6410918200085263  0.5494547462390713  1.0000
  N   N6        1.0  0.3778854214464928  0.358908204003214  0.0494655144895688  1.0000
  N   N7        1.0  0.8778971432755113  0.35892674238873223  0.4505348781199032  1.0000
  N   N8        1.0  0.6221073385273499  0.6410848480028477  0.9505442958003627  1.0000
  N   N9        1.0  0.09150821449199499  0.5041275402970983  0.600852722033629  1.0000
  N   N10       1.0  0.40849900850828647  0.49587825316442036  0.1008565682208484  1.0000
  N   N11       1.0  0.9085027063293083  0.49589488845990104  0.39913978600932865  1.0000
  N   N12       1.0  0.591507713411005  0.5041236914671289  0.8991409863439443  1.0000
  O   O1        1.0  0.04328353214968669  0.2460838283973175  0.7165640888205687  1.0000
  O   O2        1.0  0.45670754903186855  0.7539001653828594  0.2165713717970874  1.0000
  O   O3        1.0  0.9567025636477167  0.7538913172816352  0.2834154425598712  1.0000
  O   O4        1.0  0.5433014649530676  0.2461145837529557  0.7834182525499074  1.0000
  O   O5        1.0  0.18963648235330058  0.3846535320567313  0.8398781239099405  1.0000
  O   O6        1.0  0.3103607600574136  0.6153199795588619  0.3398878544206738  1.0000
  O   O7        1.0  0.8103596656031369  0.6153138656832481  0.1601028493811469  1.0000
  O   O8        1.0  0.6896271862572263  0.3846974533931871  0.6601017698399118  1.0000
