data_image0
_chemical_formula_structural       Fe2Ni2H30C30N22O4
_chemical_formula_sum              "Fe2 Ni2 H30 C30 N22 O4"
_cell_length_a       9.632130733200977
_cell_length_b       10.545617537656442
_cell_length_c       10.545599308426485
_cell_angle_alpha    67.85926941564229
_cell_angle_beta     86.5771818381793
_cell_angle_gamma    86.57741470852078

_space_group_name_H-M_alt    "P 1"
_space_group_IT_number       1

loop_
  _space_group_symop_operation_xyz
  'x, y, z'

loop_
  _atom_site_type_symbol
  _atom_site_label
  _atom_site_symmetry_multiplicity
  _atom_site_fract_x
  _atom_site_fract_y
  _atom_site_fract_z
  _atom_site_occupancy
  Fe  Fe1       1.0  0.24999987061165296  0.745445216114099  0.25455304208996665  1.0000
  Fe  Fe2       1.0  0.7500035756448541  0.25455168833070724  0.7454497100423791  1.0000
  Ni  Ni1       1.0  0.4999996036785744  0.5000059404568302  2.3706969190246015e-07  1.0000
  Ni  Ni2       1.0  1.3065030373001447e-06  1.1213525396976916e-06  0.4999930393318691  1.0000
  H   H1        1.0  0.25000071703202303  0.253402235884991  0.7465956354801475  1.0000
  H   H2        1.0  0.7499974861195042  0.7465966338636747  0.2534018565601882  1.0000
  H   H3        1.0  0.3983529107865423  0.23293347212293716  0.9399586207915572  1.0000
  H   H4        1.0  0.1016473418173334  0.06004037478050608  0.7670631138781513  1.0000
  H   H5        1.0  0.6016452468729057  0.7670664418610046  0.060039409887942  1.0000
  H   H6        1.0  0.89835092452207  0.9399564859026764  0.2329370647465012  1.0000
  H   H7        1.0  0.4348623488848418  0.21453043985420808  0.15841689126035866  1.0000
  H   H8        1.0  0.06513652352153092  0.8415800554160668  0.7854688642309495  1.0000
  H   H9        1.0  0.5651367964863284  0.785470535057847  0.8415825691461118  1.0000
  H   H10       1.0  0.9348606957159332  0.1584168282768204  0.21453230523722758  1.0000
  H   H11       1.0  0.5933649018619959  0.1256112118775334  0.14683276616246124  1.0000
  H   H12       1.0  0.9066332125839337  0.8531665218846736  0.874387483561868  1.0000
  H   H13       1.0  0.406633221698371  0.8743869709586747  0.8531811246206328  1.0000
  H   H14       1.0  0.09336534820137389  0.1468221834289523  0.12561779560609657  1.0000
  H   H15       1.0  0.5084204731833708  0.09455538654113839  0.30945386666056857  1.0000
  H   H16       1.0  0.9915729601286924  0.6905441924043741  0.9054467635124721  1.0000
  H   H17       1.0  0.4915627830442871  0.9054519408616528  0.6905514556800935  1.0000
  H   H18       1.0  0.0084338201486318  0.3094475210912648  0.09455502772180317  1.0000
  H   H19       1.0  0.554778725650138  0.8877393691796767  0.4078677442482571  1.0000
  H   H20       1.0  0.9452185729128785  0.5921310016162378  0.11226442889225301  1.0000
  H   H21       1.0  0.4452127993592683  0.1122689970421789  0.5921386586743577  1.0000
  H   H22       1.0  0.054791446603452726  0.4078585345284721  0.887732371567466  1.0000
  H   H23       1.0  0.6316929632259729  0.7069719545386519  0.5748353073493248  1.0000
  H   H24       1.0  0.8683038752534882  0.4251600481344581  0.29303560423920766  1.0000
  H   H25       1.0  0.36830490758289613  0.2930342645594946  0.425167837096481  1.0000
  H   H26       1.0  0.13169767646325434  0.5748317605584319  0.7069702002470136  1.0000
  H   H27       1.0  0.5668976163238357  0.5442807627472631  0.6173900528768425  1.0000
  H   H28       1.0  0.9331030866598625  0.3826120937641448  0.45572523581439106  1.0000
  H   H29       1.0  0.43310442204554533  0.45572542386587117  0.38261195109186724  1.0000
  H   H30       1.0  0.06689603091503221  0.6173889605529794  0.5442779884547232  1.0000
  C   C1        1.0  0.42312362614913474  0.5903975708335593  0.10626923713395085  1.0000
  C   C2        1.0  0.07687377957982729  0.8937343432235847  0.4095993054426757  1.0000
  C   C3        1.0  0.576874314150416  0.4096084497519142  0.8937244976552347  1.0000
  C   C4        1.0  0.9231283352293075  0.10627162502561299  0.5903923479037514  1.0000
  C   C5        1.0  0.6769834536658124  0.5078908748392194  0.05348368545954676  1.0000
  C   C6        1.0  0.8230190175776285  0.9465249979519895  0.49210403734439706  1.0000
  C   C7        1.0  0.3230143223612458  0.4921183578571586  0.94651542910978  1.0000
  C   C8        1.0  0.17699377171257422  0.0534746733011815  0.5078838853884518  1.0000
  C   C9        1.0  0.250000148973335  0.160742999735902  0.8392544703490752  1.0000
  C   C10       1.0  0.7499991259249867  0.8392548623215885  0.16074431510556056  1.0000
  C   C11       1.0  0.33223306592753227  0.15031309175681426  0.9474477029750258  1.0000
  C   C12       1.0  0.167768207760453  0.052549378999259475  0.849684265242281  1.0000
  C   C13       1.0  0.6677672105806494  0.8496857915262481  0.05255063027525606  1.0000
  C   C14       1.0  0.8322310987318033  0.9474474785254825  0.15031586350451678  1.0000
  C   C15       1.0  0.3294477973162842  0.030075492741723088  0.06539307641860147  1.0000
  C   C16       1.0  0.17055078390447423  0.9346036391345647  0.969921495448062  1.0000
  C   C17       1.0  0.6705514775820377  0.9699223693157605  0.9346057090360346  1.0000
  C   C18       1.0  0.8294485541817311  0.0653922138574359  0.030079976590897693  1.0000
  C   C19       1.0  0.41121910406249634  0.005146062703964598  0.18607307812542462  1.0000
  C   C20       1.0  0.08878095205962921  0.8139257192205702  0.9948494644796707  1.0000
  C   C21       1.0  0.5887800729026154  0.9948539076753418  0.8139277255732008  1.0000
  C   C22       1.0  0.9112204031444191  0.18607213652004614  0.005149221219248521  1.0000
  C   C23       1.0  0.4913240843548651  0.1149874924391838  0.20157473774135318  1.0000
  C   C24       1.0  0.008671976937549203  0.7984235889953978  0.8850094965986056  1.0000
  C   C25       1.0  0.5086667119971366  0.8850135871454228  0.7984288855506417  1.0000
  C   C26       1.0  0.9913305795404523  0.20157014619947228  0.11498980756277889  1.0000
  C   C27       1.0  0.4639756811594821  0.6968144483738072  0.470635260498511  1.0000
  C   C28       1.0  0.03602284907758249  0.5293658007716501  0.30318705366504867  1.0000
  C   C29       1.0  0.5360264728389196  0.30318866508729775  0.5293679504496892  1.0000
  C   C30       1.0  0.9639774906184684  0.47063107344592225  0.6968139661695499  1.0000
  N   N1        1.0  0.3672120863492054  0.6508742830032118  0.16952045719092715  1.0000
  N   N2        1.0  0.1327832523923718  0.8304771061335996  0.3491279427768175  1.0000
  N   N3        1.0  0.6327942352097153  0.3491287979728881  0.8304816132801772  1.0000
  N   N4        1.0  0.8672150733372349  0.1695186706117653  0.6508698152773461  1.0000
  N   N5        1.0  0.7906876459077381  0.5136500134581182  0.0849502878835651  1.0000
  N   N6        1.0  0.7093108955568042  0.9150565060077368  0.4863485961878805  1.0000
  N   N7        1.0  0.20932545108024667  0.48634329312704955  0.9150296981859962  1.0000
  N   N8        1.0  0.2906801530384016  0.08496419252477949  0.5136548607480761  1.0000
  N   N9        1.0  0.24999828659537124  0.9258712072673275  0.07412620979057034  1.0000
  N   N10       1.0  0.7500000043889016  0.0741246687343775  0.9258762530919067  1.0000
  N   N11       1.0  0.40479615542094666  0.8796082382880852  0.2742654218622675  1.0000
  N   N12       1.0  0.0952006460903334  0.7257323711568658  0.12038837682358407  1.0000
  N   N13       1.0  0.5952051087989503  0.12039170592308318  0.7257343411149787  1.0000
  N   N14       1.0  0.9047976657411428  0.27426344529103364  0.8796112631619049  1.0000
  N   N15       1.0  0.476559810629027  0.8341024758775075  0.3887370593917581  1.0000
  N   N16       1.0  0.023438610536175006  0.6112609838811804  0.16589805671218016  1.0000
  N   N17       1.0  0.523441362606725  0.1658995568042201  0.6112637808638153  1.0000
  N   N18       1.0  0.9765596033620838  0.3887369408885418  0.8341036015172985  1.0000
  N   N19       1.0  0.5518881939625259  0.6479117028654429  0.5743062732073763  1.0000
  N   N20       1.0  0.9481102843460859  0.4256929259920526  0.35209187286423554  1.0000
  N   N21       1.0  0.44810866828741774  0.3520935148583959  0.4256982644084528  1.0000
  N   N22       1.0  0.0518932459455002  0.5743019098334655  0.6479107429554459  1.0000
  O   O1        1.0  0.3744415059842082  0.6272058491143894  0.44778879558614887  1.0000
  O   O2        1.0  0.1255555814937139  0.5522154572704138  0.3727941783009781  1.0000
  O   O3        1.0  0.6255597304394129  0.37279417450184843  0.5522147312537482  1.0000
  O   O4        1.0  0.8744458299491384  0.4477804092559835  0.6272081349479205  1.0000
