data_image0
_chemical_formula_structural       K4H24C36Cl16O12
_chemical_formula_sum              "K4 H24 C36 Cl16 O12"
_cell_length_a       7.480064957501085
_cell_length_b       10.443598796547011
_cell_length_c       16.864716767002612
_cell_angle_alpha    89.99997901181315
_cell_angle_beta     89.99995031365931
_cell_angle_gamma    103.6677512835586

_space_group_name_H-M_alt    "P 1"
_space_group_IT_number       1

loop_
  _space_group_symop_operation_xyz
  'x, y, z'

loop_
  _atom_site_type_symbol
  _atom_site_label
  _atom_site_symmetry_multiplicity
  _atom_site_fract_x
  _atom_site_fract_y
  _atom_site_fract_z
  _atom_site_occupancy
  K   K1        1.0  0.5657980031739029  0.19108374947326467  0.7652845944593665  1.0000
  K   K2        1.0  0.934208989102963  0.8089178145362512  0.2652814037781184  1.0000
  K   K3        1.0  0.43420944910604936  0.8089149506955453  0.2347200567292944  1.0000
  K   K4        1.0  0.0657983196322647  0.1910887566570665  0.7347167249165878  1.0000
  H   H1        1.0  0.7907115517122281  0.6536843414607109  0.6836756647233031  1.0000
  H   H2        1.0  0.7092846090335526  0.3463162745550862  0.1836756149989469  1.0000
  H   H3        1.0  0.20928110107272602  0.34631822677762614  0.3163283935137357  1.0000
  H   H4        1.0  0.29071449316948883  0.6536814034177924  0.8163278502834856  1.0000
  H   H5        1.0  0.7678055256148183  0.5825582650656926  0.58907817876905  1.0000
  H   H6        1.0  0.7321895238101135  0.41744244504702277  0.08907869916875198  1.0000
  H   H7        1.0  0.2321878325022055  0.4174423384838449  0.4109241006062802  1.0000
  H   H8        1.0  0.2678129614928793  0.5825532804994182  0.9109223942975645  1.0000
  H   H9        1.0  0.6251394027180269  0.5012162855767031  0.6690540596010948  1.0000
  H   H10       1.0  0.8748591541911778  0.4987833727824268  0.1690545114045321  1.0000
  H   H11       1.0  0.3748539553989971  0.4987843179728273  0.3309482197742354  1.0000
  H   H12       1.0  0.12514262578045535  0.5012143174531334  0.8309477679695617  1.0000
  H   H13       1.0  0.14725963670507977  0.6398483753011704  0.6496769913437817  1.0000
  H   H14       1.0  0.3527397415255393  0.3601494790354779  0.1496804441978838  1.0000
  H   H15       1.0  0.8527354488500619  0.3601492842798778  0.350324102123686  1.0000
  H   H16       1.0  0.6472606995646543  0.6398482050699954  0.8503200563146791  1.0000
  H   H17       1.0  0.08288166005456084  0.525859028025515  0.5732399171742273  1.0000
  H   H18       1.0  0.41711254651999496  0.4741388827745396  0.07324213744024628  1.0000
  H   H19       1.0  0.9171067310826614  0.47413860090040333  0.4267611762944625  1.0000
  H   H20       1.0  0.5828895502313216  0.5258597928726659  0.9267577701179872  1.0000
  H   H21       1.0  0.1916752588939161  0.4788722550549097  0.6601295914110066  1.0000
  H   H22       1.0  0.3083203943180521  0.521126555224278  0.16013302770893026  1.0000
  H   H23       1.0  0.8083154932343602  0.521124400722982  0.3398709091034248  1.0000
  H   H24       1.0  0.6916820192100914  0.4788731058333157  0.8398668798491471  1.0000
  C   C1        1.0  0.7817782361691812  0.9678703260046293  0.085783589156712  1.0000
  C   C2        1.0  0.7182195707236119  0.03212646434984379  0.5857849777209694  1.0000
  C   C3        1.0  0.2182268551282647  0.03212934731596561  0.9142145395391025  1.0000
  C   C4        1.0  0.28176913719256896  0.9678721499874002  0.41421433688578446  1.0000
  C   C5        1.0  0.6836828164067158  0.9085508488089576  0.014901307943112797  1.0000
  C   C6        1.0  0.8163207615345058  0.09145096209168459  0.5149032416043438  1.0000
  C   C7        1.0  0.3163107570448602  0.09143794821150658  0.9850962278019821  1.0000
  C   C8        1.0  0.1836907370707408  0.9085644839239607  0.4850990377661688  1.0000
  C   C9        1.0  0.7071398672812563  0.969873852444543  0.942294281018107  1.0000
  C   C10       1.0  0.7928603215338725  0.03012847877139541  0.4422966369679527  1.0000
  C   C11       1.0  0.29285078340689097  0.030110011394839407  0.0576996970044732  1.0000
  C   C12       1.0  0.2071534662904284  0.9698899296086408  0.5577014917243659  1.0000
  C   C13       1.0  0.8310256006608726  0.0995914708225953  0.9306801584464636  1.0000
  C   C14       1.0  0.6689816272930501  0.9004118887665697  0.4306782318051176  1.0000
  C   C15       1.0  0.16897822352642314  0.9004042608551899  0.06932034206568011  1.0000
  C   C16       1.0  0.3310276538772712  0.09959665937760318  0.5693216757507996  1.0000
  C   C17       1.0  0.9193697616650953  0.16235594031545023  0.0022482970772444  1.0000
  C   C18       1.0  0.5806339184948116  0.8376419484827482  0.5022466071384386  1.0000
  C   C19       1.0  0.08063406252504987  0.8376397913635928  0.9977498316192027  1.0000
  C   C20       1.0  0.4193677179306832  0.16236361277669434  0.49775033564955606  1.0000
  C   C21       1.0  0.896882479539137  0.10008536398392923  0.0750233215845526  1.0000
  C   C22       1.0  0.6031170806796595  0.8999084938041408  0.5750210178177753  1.0000
  C   C23       1.0  0.10311331134879251  0.8999103309086254  0.9249754000672893  1.0000
  C   C24       1.0  0.39687966054302143  0.10009015732146762  0.4249741461100385  1.0000
  C   C25       1.0  0.9072963531914268  0.48683582647070284  0.6748969775773404  1.0000
  C   C26       1.0  0.5926998286701844  0.5131647988453736  0.17489871528920276  1.0000
  C   C27       1.0  0.09269534926518473  0.5131637855374154  0.325105301798402  1.0000
  C   C28       1.0  0.40730258485581333  0.4868348622112819  0.8251029711306543  1.0000
  C   C29       1.0  0.76242036406785  0.558237636614777  0.6525094283464057  1.0000
  C   C30       1.0  0.7375775273103571  0.44176400396318627  0.15251053478569784  1.0000
  C   C31       1.0  0.23757433293275904  0.44176297306578494  0.347492851028683  1.0000
  C   C32       1.0  0.262422208447049  0.558235644830788  0.8474923375424906  1.0000
  C   C33       1.0  0.09417121386285028  0.5339958889170049  0.6381399072797364  1.0000
  C   C34       1.0  0.4058258311317645  0.4660029507921239  0.13814272627319468  1.0000
  C   C35       1.0  0.9058211939236998  0.46600175840136165  0.3618623720960699  1.0000
  C   C36       1.0  0.5941782380560738  0.5339977018065768  0.8618577742384019  1.0000
  Cl  Cl1       1.0  0.5281750444546914  0.7604041703980614  0.028416550191806795  1.0000
  Cl  Cl2       1.0  0.9718266003177334  0.23959171372246152  0.5284148392553902  1.0000
  Cl  Cl3       1.0  0.47183381849296774  0.23959060039469907  0.971581578503823  1.0000
  Cl  Cl4       1.0  0.0281697523489868  0.7604098875020284  0.47158269648789286  1.0000
  Cl  Cl5       1.0  0.5847376955218238  0.9022939202791563  0.8603385905301195  1.0000
  Cl  Cl6       1.0  0.9152553624777368  0.09770649629642492  0.36033792330869824  1.0000
  Cl  Cl7       1.0  0.41526313412076377  0.097700813725865  0.13966250293659496  1.0000
  Cl  Cl8       1.0  0.08474430150339163  0.9022970880080691  0.6396649490191066  1.0000
  Cl  Cl9       1.0  0.0380358696300291  0.3236297755370289  0.9922994592117219  1.0000
  Cl  Cl10      1.0  0.4619633179463634  0.6763696866055398  0.49229984310180436  1.0000
  Cl  Cl11      1.0  0.9619626708034944  0.6763619961079997  0.007697483578240799  1.0000
  Cl  Cl12      1.0  0.5380348636028884  0.32364176259086724  0.5076994715019224  1.0000
  Cl  Cl13      1.0  0.989605344153752  0.17936445527085004  0.16006237670511328  1.0000
  Cl  Cl14      1.0  0.5104006341347967  0.820633278581063  0.6600619017559168  1.0000
  Cl  Cl15      1.0  0.010393124504915393  0.8206312518853381  0.8399333801766103  1.0000
  Cl  Cl16      1.0  0.48960265795182073  0.17937327422011154  0.3399344480777486  1.0000
  O   O1        1.0  0.758412525991467  0.9113843659324559  0.15235275745722274  1.0000
  O   O2        1.0  0.7415890656393741  0.08861630779500022  0.6523523471401589  1.0000
  O   O3        1.0  0.2415782979130938  0.08860835433491591  0.8476477430575995  1.0000
  O   O4        1.0  0.2584174659860707  0.9113961635970185  0.3476487463237135  1.0000
  O   O5        1.0  0.8501643979767053  0.1563365355886219  0.8641341160936233  1.0000
  O   O6        1.0  0.6498373895195683  0.8436619490600774  0.3641369516144407  1.0000
  O   O7        1.0  0.14983509279228002  0.8436581922897732  0.13585867601839396  1.0000
  O   O8        1.0  0.35017164665092093  0.1563416781634999  0.6358623629880995  1.0000
  O   O9        1.0  0.8749616541600103  0.39461861535790643  0.7228663724318806  1.0000
  O   O10       1.0  0.6250400846177655  0.6053829690679962  0.22286807958104757  1.0000
  O   O11       1.0  0.1250369877129245  0.6053859482253261  0.2771376858038579  1.0000
  O   O12       1.0  0.37496201213069463  0.3946157065779514  0.7771341997928898  1.0000
