data_image0
_chemical_formula_structural       Zn2H40C64N6O8
_chemical_formula_sum              "Zn2 H40 C64 N6 O8"
_cell_length_a       10.78244080723816
_cell_length_b       15.88286576680523
_cell_length_c       16.9942228983512
_cell_angle_alpha    88.09308205327673
_cell_angle_beta     90.11101071147287
_cell_angle_gamma    90.05241625425955

_space_group_name_H-M_alt    "P 1"
_space_group_IT_number       1

loop_
  _space_group_symop_operation_xyz
  'x, y, z'

loop_
  _atom_site_type_symbol
  _atom_site_label
  _atom_site_symmetry_multiplicity
  _atom_site_fract_x
  _atom_site_fract_y
  _atom_site_fract_z
  _atom_site_occupancy
  Zn  Zn1       1.0  0.49935258435196067  0.5882575153896425  0.5035723086398818  1.0000
  Zn  Zn2       1.0  0.5008687044302605  0.4118246447803032  0.49643504795390214  1.0000
  H   H1        1.0  0.9025489929586287  0.22082301730615228  0.594738117906047  1.0000
  H   H2        1.0  0.09773920098635357  0.7791958772083375  0.4051767669356607  1.0000
  H   H3        1.0  0.6284486956831329  0.8906263437730145  0.42955599132550043  1.0000
  H   H4        1.0  0.37183308639704654  0.10942395125142919  0.5704672267606766  1.0000
  H   H5        1.0  0.6623353482441486  0.13159901367918542  0.3966659986053004  1.0000
  H   H6        1.0  0.3378218156693222  0.8684820168303561  0.6032819453990328  1.0000
  H   H7        1.0  0.6524094405604045  0.2903360087829014  0.41015339146517965  1.0000
  H   H8        1.0  0.3477700722058756  0.7097382776620194  0.5898177482560527  1.0000
  H   H9        1.0  0.7987887901019518  0.6665254802508117  0.5390634173953828  1.0000
  H   H10       1.0  0.20152795029674309  0.3335542640945377  0.4609058060239661  1.0000
  H   H11       1.0  0.19685634484790873  0.6418027789318613  0.3971802978404995  1.0000
  H   H12       1.0  0.8034143803028826  0.35820173267320843  0.6027668681840622  1.0000
  H   H13       1.0  0.5382021937476223  0.6034591846026487  0.7365179821869462  1.0000
  H   H14       1.0  0.4614480861540216  0.3963625952637172  0.26380913999881267  1.0000
  H   H15       1.0  0.5767911458288991  0.6487295324178816  0.1010222486325816  1.0000
  H   H16       1.0  0.41967315988376436  0.3514753986341716  0.898911316169027  1.0000
  H   H17       1.0  0.613777640270058  0.6458423089269443  0.24748313317962814  1.0000
  H   H18       1.0  0.3842340331598352  0.3544032928969827  0.7523141286615316  1.0000
  H   H19       1.0  0.6266861684470866  0.7316273149749648  0.42353511634517094  1.0000
  H   H20       1.0  0.3736243309237181  0.2684434003506482  0.5765215152320806  1.0000
  H   H21       1.0  0.8367998153950681  0.7805058224330992  0.6145151775575926  1.0000
  H   H22       1.0  0.7595989797732655  0.9219007672228655  0.6474893386933829  1.0000
  H   H23       1.0  0.7798565482734644  0.0424274310276829  0.5502186098236237  1.0000
  H   H24       1.0  0.8730491228448756  0.0186892121618314  0.4188599916215026  1.0000
  H   H25       1.0  0.9462679114173793  0.8769170018919468  0.3849955493267387  1.0000
  H   H26       1.0  0.05390076676724221  0.1230686351362849  0.6148951761708973  1.0000
  H   H27       1.0  0.12704997578220656  0.981293608230146  0.5810149242298266  1.0000
  H   H28       1.0  0.22042421605512166  0.9575920554589246  0.4496933094653599  1.0000
  H   H29       1.0  0.24080600276366934  0.0781514981087028  0.3524738267566719  1.0000
  H   H30       1.0  0.1636256137349292  0.21953767528319185  0.385445951847899  1.0000
  H   H31       1.0  0.4801354835460856  0.7142772307232191  0.8333719026230711  1.0000
  H   H32       1.0  0.6010521010198316  0.8360409858909179  0.880355570119093  1.0000
  H   H33       1.0  0.7927879715653956  0.8118304467528218  0.9603012068606206  1.0000
  H   H34       1.0  0.8626176263157034  0.6647611694697488  0.9918918424907446  1.0000
  H   H35       1.0  0.7415324411544829  0.5437108343377944  0.9446738914045271  1.0000
  H   H36       1.0  0.2561570336751444  0.4553444941689477  0.05618060026641561  1.0000
  H   H37       1.0  0.1357619324608734  0.3339977081822738  0.009098141518471402  1.0000
  H   H38       1.0  0.20681034436078244  0.1871037272951739  0.0403392823590423  1.0000
  H   H39       1.0  0.39897000580209857  0.16348621103072963  0.12004921136540499  1.0000
  H   H40       1.0  0.5192158742135007  0.285578046326556  0.16691039200614452  1.0000
  C   C1        1.0  0.5568493954110706  0.5136037589085588  0.3513502536065616  1.0000
  C   C2        1.0  0.4428987758889064  0.48648429485242417  0.6486184972516256  1.0000
  C   C3        1.0  0.5439547173448247  0.5190267942156197  0.26361107176469295  1.0000
  C   C4        1.0  0.4550918449525553  0.4809842029360566  0.7363784381073017  1.0000
  C   C5        1.0  0.4899356903872842  0.4503669971649913  0.22691152212753  1.0000
  C   C6        1.0  0.5091075045017703  0.5495020562639399  0.7732942780218863  1.0000
  C   C7        1.0  0.4657864508558304  0.45089323044734186  0.14612510241526883  1.0000
  C   C8        1.0  0.5324736295041106  0.5489070407988594  0.8541682199136036  1.0000
  C   C9        1.0  0.5019151941777551  0.5236790818669161  0.1010985388500103  1.0000
  C   C10       1.0  0.4953957960209436  0.47631247826357276  0.8991059009391763  1.0000
  C   C11       1.0  0.5526308478276504  0.5937770894993692  0.1380402069193281  1.0000
  C   C12       1.0  0.44451285443537353  0.40638264432620724  0.8620069790085836  1.0000
  C   C13       1.0  0.5742526996502093  0.591687471160618  0.21872541699818976  1.0000
  C   C14       1.0  0.4237847533719544  0.40847759140103795  0.7812024048895694  1.0000
  C   C15       1.0  0.4363821178307673  0.23480083365635815  0.5383389608268487  1.0000
  C   C16       1.0  0.5638661780398309  0.7652650792780662  0.46167839622421514  1.0000
  C   C17       1.0  0.4365896003503166  0.14767213721226818  0.5356562697543411  1.0000
  C   C18       1.0  0.5636465845379846  0.8523974434751479  0.464346242211306  1.0000
  C   C19       1.0  0.5191815249221604  0.1098349455821577  0.4839534578719196  1.0000
  C   C20       1.0  0.48103139543177065  0.8902394894240756  0.5160265136392468  1.0000
  C   C21       1.0  0.5985367260813064  0.16041195270412342  0.4374558822907559  1.0000
  C   C22       1.0  0.40163253940427524  0.839665389224571  0.5625027884385929  1.0000
  C   C23       1.0  0.7350317380838618  0.5042430860420452  0.5371670836544382  1.0000
  C   C24       1.0  0.26522028414543536  0.49580374669611865  0.4628127033485825  1.0000
  C   C25       1.0  0.5933215432991972  0.2472732074433992  0.4445386414767043  1.0000
  C   C26       1.0  0.4068709603999281  0.7527998595293184  0.5554325456039635  1.0000
  C   C27       1.0  0.8864338930434456  0.661685916463085  0.5083870579745737  1.0000
  C   C28       1.0  0.11386637663188277  0.3383470856202209  0.4915691090832297  1.0000
  C   C29       1.0  0.9451727847964689  0.7335851896146791  0.4797312553620899  1.0000
  C   C30       1.0  0.055107003835530584  0.26644949001963886  0.5201954236094793  1.0000
  C   C31       1.0  0.0551698011854853  0.7242083983251033  0.4343739416829777  1.0000
  C   C32       1.0  0.945126705857504  0.2758193741279555  0.565547103360629  1.0000
  C   C33       1.0  0.1110801167454767  0.6471619534405876  0.4299101064189585  1.0000
  C   C34       1.0  0.8892044424789631  0.3528628340860251  0.5700510549770641  1.0000
  C   C35       1.0  0.060525090335360694  0.5729893899109442  0.4681195820913828  1.0000
  C   C36       1.0  0.9397371452784001  0.4270600508954132  0.5318712958924934  1.0000
  C   C37       1.0  0.9372762778032282  0.5793292566838703  0.5009332083121762  1.0000
  C   C38       1.0  0.06300457028828528  0.42069997949013777  0.4990377974731359  1.0000
  C   C39       1.0  0.12585363235071156  0.4953512413843342  0.4723109723107513  1.0000
  C   C40       1.0  0.8743845400886983  0.5046848449395754  0.5276703688642215  1.0000
  C   C41       1.0  0.8967175500892707  0.8180448911133239  0.4972918128130104  1.0000
  C   C42       1.0  0.8429272843725357  0.8324757921153391  0.5710710839928481  1.0000
  C   C43       1.0  0.8002862759764966  0.9122626637040625  0.5897420757817003  1.0000
  C   C44       1.0  0.8109184493328809  0.9796638450541552  0.5352035876605683  1.0000
  C   C45       1.0  0.8633083754819779  0.9662991349420765  0.4615613742134741  1.0000
  C   C46       1.0  0.9056897466334205  0.8864611776017952  0.44279090335479765  1.0000
  C   C47       1.0  0.10358908888910891  0.1819980615243466  0.5026345807619209  1.0000
  C   C48       1.0  0.09453169632273979  0.11354353422683519  0.557101515028421  1.0000
  C   C49       1.0  0.13690383302895268  0.0337005352376849  0.5383365163004754  1.0000
  C   C50       1.0  0.1893688764833712  0.0203462511500874  0.4647163168820541  1.0000
  C   C51       1.0  0.20008638803000167  0.08775984557431829  0.41021272115279583  1.0000
  C   C52       1.0  0.1574499516721772  0.16755806465254608  0.4288821345289905  1.0000
  C   C53       1.0  0.6019500545143117  0.6207930911695739  0.8862688016260096  1.0000
  C   C54       1.0  0.564476140935774  0.7037213476304842  0.8679186253279668  1.0000
  C   C55       1.0  0.6324188866263255  0.772032273102795  0.8945784288200684  1.0000
  C   C56       1.0  0.7396007978247069  0.7585125066542701  0.9394958478968222  1.0000
  C   C57       1.0  0.7786316017943021  0.6760693725593044  0.9572549634482996  1.0000
  C   C58       1.0  0.710625507536612  0.6079049135441321  0.9308164894230586  1.0000
  C   C59       1.0  0.3966392506013178  0.3787463899527879  0.11420747478423009  1.0000
  C   C60       1.0  0.28763353836100686  0.3912441555786471  0.06990892459195662  1.0000
  C   C61       1.0  0.21998938022614561  0.3229010421904235  0.043553405175330795  1.0000
  C   C62       1.0  0.25967772447222603  0.24055990992587792  0.061143163086349296  1.0000
  C   C63       1.0  0.3671160563906851  0.22740178147166998  0.10589835588383073  1.0000
  C   C64       1.0  0.4347235518488759  0.2959260503443275  0.1324657430789458  1.0000
  N   N1        1.0  0.4889028302244966  0.5331933394014782  0.018584164631633402  1.0000
  N   N2        1.0  0.5080818225770044  0.46677068435937485  0.9816087938241438  1.0000
  N   N3        1.0  0.5128946505196978  0.28337712527096676  0.49354388359020623  1.0000
  N   N4        1.0  0.4873415915450821  0.716684292913314  0.5064642142298154  1.0000
  N   N5        1.0  0.5238098009597465  0.022021970261476998  0.47230386854839423  1.0000
  N   N6        1.0  0.4764384066766709  0.9780488483376643  0.5276868343627115  1.0000
  O   O1        1.0  0.5599040152382811  0.5824138596961603  0.3882068544337685  1.0000
  O   O2        1.0  0.43967768536890617  0.41772430412127187  0.6116812137372847  1.0000
  O   O3        1.0  0.5589396382333548  0.4398134086196561  0.3827743189271403  1.0000
  O   O4        1.0  0.441468894840824  0.5602939888464106  0.6172492647602681  1.0000
  O   O5        1.0  0.6768855268256145  0.5730142832970416  0.5467657835216356  1.0000
  O   O6        1.0  0.3234028004808493  0.42708064615203517  0.4529839912096493  1.0000
  O   O7        1.0  0.6806650537197  0.43381002519564754  0.5284537540879839  1.0000
  O   O8        1.0  0.3194986335299248  0.5662112956078856  0.47176876112406774  1.0000
