data_image0
_chemical_formula_structural       K2H16Au2C20N4Cl8
_chemical_formula_sum              "K2 H16 Au2 C20 N4 Cl8"
_cell_length_a       7.9451661302008
_cell_length_b       10.577370780842815
_cell_length_c       10.577380634214014
_cell_angle_alpha    74.08240581071827
_cell_angle_beta     67.92028235446628
_cell_angle_gamma    67.92034185324998

_space_group_name_H-M_alt    "P 1"
_space_group_IT_number       1

loop_
  _space_group_symop_operation_xyz
  'x, y, z'

loop_
  _atom_site_type_symbol
  _atom_site_label
  _atom_site_symmetry_multiplicity
  _atom_site_fract_x
  _atom_site_fract_y
  _atom_site_fract_z
  _atom_site_occupancy
  K   K1        1.0  0.2499978568785578  0.7499965037166448  0.7500002910667404  1.0000
  K   K2        1.0  0.7499956857493328  0.2500027107098362  0.250002067939512  1.0000
  H   H1        1.0  0.26610963294093176  0.04321878228506653  0.19340220129297592  1.0000
  H   H2        1.0  0.5026451854818883  0.8066426085278666  0.9568146898209021  1.0000
  H   H3        1.0  0.7661110371763225  0.693403079097621  0.5432206285621676  1.0000
  H   H4        1.0  0.9973529861541831  0.543185252913162  0.6933590645748849  1.0000
  H   H5        1.0  0.7338890728033858  0.9567797365138945  0.8065970731080229  1.0000
  H   H6        1.0  0.4973536093218626  0.19335856726617356  0.04318455255668851  1.0000
  H   H7        1.0  0.23389061183325313  0.30659657821878744  0.4567786317558316  1.0000
  H   H8        1.0  0.0026453728563707894  0.4568132020473287  0.3066433029830975  1.0000
  H   H9        1.0  0.2537861163852354  0.8568078474512576  0.3952187478469043  1.0000
  H   H10       1.0  0.5056485027609696  0.6047932927181493  0.14325791337159194  1.0000
  H   H11       1.0  0.75378782170948  0.8952179425882533  0.3568084862167993  1.0000
  H   H12       1.0  0.9943476399118225  0.3567435667229619  0.895207324254699  1.0000
  H   H13       1.0  0.7462112101929892  0.14319147255799444  0.6047815478538325  1.0000
  H   H14       1.0  0.49434748918087457  0.3952081569989333  0.8567433876171863  1.0000
  H   H15       1.0  0.24621284621167658  0.10478133522234154  0.6431907787955282  1.0000
  H   H16       1.0  0.0056512507655595845  0.6432576930140287  0.10479397866278359  1.0000
  Au  Au1       1.0  0.999998879278152  1.4000530726031978e-06  0.9999987553008867  1.0000
  Au  Au2       1.0  0.5000003818973934  0.49999968087677643  0.5000006627761024  1.0000
  C   C1        1.0  0.2499991648605615  0.19191746462990275  0.3080827066828817  1.0000
  C   C2        1.0  0.7500018678673329  0.6918730859636784  0.8081251312774569  1.0000
  C   C3        1.0  0.7499991428060749  0.8080822348851628  0.6919175843235196  1.0000
  C   C4        1.0  0.25000111577861606  0.30812444164490677  0.1918731237525009  1.0000
  C   C5        1.0  0.25872962476414335  0.06212408716135092  0.29192112470362014  1.0000
  C   C6        1.0  0.6126646962782587  0.7080814900337061  0.9379181648809761  1.0000
  C   C7        1.0  0.7587297814166547  0.7919200524117116  0.5621265763425781  1.0000
  C   C8        1.0  0.8873370713068595  0.5620803512180645  0.7919186972166371  1.0000
  C   C9        1.0  0.741271537108318  0.9378740938760901  0.7080791842431894  1.0000
  C   C10       1.0  0.38733597164289774  0.2919177877768889  0.0620811001313584  1.0000
  C   C11       1.0  0.24126857077970232  0.20808097560089325  0.4378736986521261  1.0000
  C   C12       1.0  0.11266556560532588  0.43791711255205007  0.20808265097031156  1.0000
  C   C13       1.0  0.25406867281108686  0.9568197175728558  0.40506165458159427  1.0000
  C   C14       1.0  0.6158006319789845  0.5949328499722527  0.043193733100821405  1.0000
  C   C15       1.0  0.7540699909269999  0.9050615009786969  0.4568220374712625  1.0000
  C   C16       1.0  0.8842019467082094  0.45680802780793794  0.9050684748201618  1.0000
  C   C17       1.0  0.7459305714142488  0.04317903295049068  0.5949386477421754  1.0000
  C   C18       1.0  0.3842020939926342  0.40506727079293386  0.9568075830627196  1.0000
  C   C19       1.0  0.2459326391709879  0.09493853584353225  0.543177218152394  1.0000
  C   C20       1.0  0.11579827860554547  0.543191102221229  0.09493182280927212  1.0000
  N   N1        1.0  0.24999980151697054  0.9708637850188567  0.5291361495233248  1.0000
  N   N2        1.0  0.750000340545682  0.47085029428370717  0.029148471199704307  1.0000
  N   N3        1.0  0.7499999743751999  0.02913777028099679  0.4708630881599375  1.0000
  N   N4        1.0  0.250001751071281  0.5291495108141364  0.9708497565011812  1.0000
  Cl  Cl1       1.0  0.13835527123007543  0.8410290819471272  0.15903405997926973  1.0000
  Cl  Cl2       1.0  0.6383559014752433  0.6590352929768956  0.34102881272892205  1.0000
  Cl  Cl3       1.0  0.361643874416927  0.34096626232295796  0.6589704249543403  1.0000
  Cl  Cl4       1.0  0.8616449986133997  0.1589713765795724  0.8409662216384673  1.0000
  Cl  Cl5       1.0  0.7445075925281015  0.9144581549084807  0.0855740101056242  1.0000
  Cl  Cl6       1.0  0.2445076910944833  0.5855733704597555  0.4144577202199216  1.0000
  Cl  Cl7       1.0  0.7554907056315938  0.4144289860503818  0.5855425387630787  1.0000
  Cl  Cl8       1.0  0.2554916962269542  0.08554192411239828  0.9144262762064485  1.0000
