data_image0
_chemical_formula_structural       Zn6H36C40N8O16
_chemical_formula_sum              "Zn6 H36 C40 N8 O16"
_cell_length_a       9.011441099
_cell_length_b       11.202397913768014
_cell_length_c       16.6912
_cell_angle_alpha    108.20522229437188
_cell_angle_beta     90.0
_cell_angle_gamma    113.71634928795605

_space_group_name_H-M_alt    "P 1"
_space_group_IT_number       1

loop_
  _space_group_symop_operation_xyz
  'x, y, z'

loop_
  _atom_site_type_symbol
  _atom_site_label
  _atom_site_symmetry_multiplicity
  _atom_site_fract_x
  _atom_site_fract_y
  _atom_site_fract_z
  _atom_site_occupancy
  Zn  Zn1       1.0  0.8487289515738254  0.3231993025288773  0.7710455535217235  1.0000
  Zn  Zn2       1.0  0.5254829607157916  0.676632900038328  0.7289402312510305  1.0000
  Zn  Zn3       1.0  0.15126894663708154  0.6767999002267402  0.2289542793092494  1.0000
  Zn  Zn4       1.0  0.4745149374951154  0.32336630271728944  0.2710607998161407  1.0000
  Zn  Zn5       1.0  0.7519951026544902  0.9999120722225355  0.7499833603461427  1.0000
  Zn  Zn6       1.0  0.24800161342042057  8.92050695853e-05  0.2500175065991003  1.0000
  H   H1        1.0  0.45696305199867726  0.571430042215681  0.37156051463342277  1.0000
  H   H2        1.0  0.8855610082450409  0.4286189494159913  0.12839344100439126  1.0000
  H   H3        1.0  0.5430386215103482  0.42857227234469514  0.6284387724556098  1.0000
  H   H4        1.0  0.11443526163302656  0.571379216071378  0.8716049760923001  1.0000
  H   H5        1.0  0.07954558589432274  0.47435418113972355  0.029600506131700385  1.0000
  H   H6        1.0  0.6054589506472254  0.5256263507873769  0.4703930152613509  1.0000
  H   H7        1.0  0.9204544592818493  0.5256470961523974  0.9704003608135352  1.0000
  H   H8        1.0  0.3945423491005328  0.4743707774317442  0.529609378163947  1.0000
  H   H9        1.0  0.10639206508778187  0.0785772190873573  0.9425415818974869  1.0000
  H   H10       1.0  0.02791919476992885  0.9214987415188389  0.5574935175709115  1.0000
  H   H11       1.0  0.8936078352172387  0.9214282072777706  0.057460155040096966  1.0000
  H   H12       1.0  0.9720798131414057  0.0785004612367857  0.4425063152600615  1.0000
  H   H13       1.0  0.2736721576200623  0.1365159117842794  0.0799779491094981  1.0000
  H   H14       1.0  0.13719223259325017  0.8636959309627984  0.4200329202153697  1.0000
  H   H15       1.0  0.7263218928571574  0.8634822537030898  0.9200216662233915  1.0000
  H   H16       1.0  0.8628041097203931  0.1363001599880675  0.5799668592394482  1.0000
  H   H17       1.0  0.5495395021670219  0.8057323438278559  0.2964986614618965  1.0000
  H   H18       1.0  0.744351850081493  0.1943985919956432  0.20355275834977962  1.0000
  H   H19       1.0  0.4504633534780069  0.1942678961960169  0.7034995915128661  1.0000
  H   H20       1.0  0.2556505593666856  0.8055985362234778  0.7964436438945341  1.0000
  H   H21       1.0  0.6629433659909693  0.7055021500005694  0.2915737520203763  1.0000
  H   H22       1.0  0.9579311249116312  0.2948217177176247  0.2084168714764871  1.0000
  H   H23       1.0  0.3370594896540524  0.29449809002330335  0.7084251000724819  1.0000
  H   H24       1.0  0.042070102400550924  0.7051774850379998  0.7915799657639937  1.0000
  H   H25       1.0  0.6473215780873571  0.812303438198036  0.3925575413538951  1.0000
  H   H26       1.0  0.8354337889534023  0.1878689883555111  0.10746842864957529  1.0000
  H   H27       1.0  0.35268179619009027  0.187697839094092  0.6074409291189511  1.0000
  H   H28       1.0  0.1645691391272023  0.8121291771318653  0.8925287902109176  1.0000
  H   H29       1.0  0.6547240668801493  0.1087171226570902  0.6581866969465295  1.0000
  H   H30       1.0  0.5458802817758652  0.8910652910340744  0.84173292993502  1.0000
  H   H31       1.0  0.34527545966360407  0.8912831173667826  0.3418121551463358  1.0000
  H   H32       1.0  0.4541181350674676  0.1089349489897984  0.15826771951213203  1.0000
  H   H33       1.0  0.23605089628139095  0.6185998159305655  0.39579232995716046  1.0000
  H   H34       1.0  0.6174840551053646  0.381168076005082  0.10409489516439409  1.0000
  H   H35       1.0  0.7639534428253255  0.3814056104345624  0.6042082087442253  1.0000
  H   H36       1.0  0.382511696140277  0.6188290522140392  0.8959051017885072  1.0000
  C   C1        1.0  0.4262917828133864  0.6257362214975473  0.3340452112210386  1.0000
  C   C2        1.0  0.8006788710507208  0.3743055092563665  0.1659473628427577  1.0000
  C   C3        1.0  0.5737092996276374  0.3742671303310772  0.6659542933660776  1.0000
  C   C4        1.0  0.19932176519345995  0.6256947307675061  0.8340526874862987  1.0000
  C   C5        1.0  0.3427352358141816  0.5218579552314395  0.24697235679734322  1.0000
  C   C6        1.0  0.8209804657389197  0.4782418625445287  0.253003639490494  1.0000
  C   C7        1.0  0.6572659190624178  0.47814332206068133  0.7530285101478924  1.0000
  C   C8        1.0  0.17901646764272522  0.5217531911380888  0.7469977198205342  1.0000
  C   C9        1.0  0.21116409571941117  0.4321881894677304  0.1179515240769078  1.0000
  C   C10       1.0  0.7792137457363707  0.5679240755272517  0.3820468530851926  1.0000
  C   C11       1.0  0.7888354308243493  0.5678120505561424  0.8820479271340532  1.0000
  C   C12       1.0  0.22078984584781128  0.43207097815536594  0.6179557044620267  1.0000
  C   C13       1.0  0.2701784705674015  0.3392603641275898  0.1320238910683003  1.0000
  C   C14       1.0  0.931157703660503  0.6608404909166339  0.36797149449676436  1.0000
  C   C15       1.0  0.7298204649083572  0.6607409131645383  0.8679775749950381  1.0000
  C   C16       1.0  0.06884359608725527  0.33915663730248713  0.6320302998104311  1.0000
  C   C17       1.0  0.12177956128475387  0.401561807088278  0.040390392648461705  1.0000
  C   C18       1.0  0.7205158544641603  0.5984425820086017  0.45962430738919113  1.0000
  C   C19       1.0  0.8782204838914254  0.59843947020385  0.9596098751786785  1.0000
  C   C20       1.0  0.27948492665117897  0.4015535089422713  0.5403760711837222  1.0000
  C   C21       1.0  0.1403427129200594  0.1784848224885778  0.9926957723640658  1.0000
  C   C22       1.0  0.9620581693581798  0.8215828399716115  0.5073465738911197  1.0000
  C   C23       1.0  0.8596589605889592  0.8215174920717985  0.007304712961158107  1.0000
  C   C24       1.0  0.03794142962115639  0.1784153255157648  0.4926554379141593  1.0000
  C   C25       1.0  0.9830189671492134  0.2324580386618749  0.8952443752259569  1.0000
  C   C26       1.0  0.7506845955210436  0.7673492694673101  0.6047757313872353  1.0000
  C   C27       1.0  0.016982115291803223  0.7675453131667567  0.1047545302430564  1.0000
  C   C28       1.0  0.2493161131587129  0.2326488960200592  0.3952250821818524  1.0000
  C   C29       1.0  0.08563360425542747  0.2729011277689324  0.9777043274326971  1.0000
  C   C30       1.0  0.812993438467295  0.72707421781692  0.5223426262168616  1.0000
  C   C31       1.0  0.9143674781855963  0.727102224059692  0.022295177154418925  1.0000
  C   C32       1.0  0.18700682401561858  0.2729208358656976  0.4776581339760639  1.0000
  C   C33       1.0  0.2337462514497517  0.2104555045213488  0.06895531217702461  1.0000
  C   C34       1.0  0.02341265528965407  0.7896702449608952  0.4310566765859393  1.0000
  C   C35       1.0  0.766252684026007  0.7895457727707721  0.931046153886314  1.0000
  C   C36       1.0  0.976586425057263  0.2103268832582259  0.5689445186031535  1.0000
  C   C37       1.0  0.5814030383324678  0.7450728965085247  0.3282836631460455  1.0000
  C   C38       1.0  0.8367499364434678  0.2551016045815189  0.1717433409716946  1.0000
  C   C39       1.0  0.41860033594497986  0.2549283807836034  0.6717148073268007  1.0000
  C   C40       1.0  0.1632524005691351  0.7448975981740986  0.828254095386889  1.0000
  N   N1        1.0  0.25674094193503544  0.5458292245123886  0.1924637730057839  1.0000
  N   N2        1.0  0.71105154057134  0.45428822682384856  0.3075320969381465  1.0000
  N   N3        1.0  0.7432596943091452  0.4541710155114842  0.8075356782051699  1.0000
  N   N4        1.0  0.2889470211431514  0.5457078641270172  0.6924700789890609  1.0000
  N   N5        1.0  0.3545334020875615  0.3995038668782627  0.21422196118740544  1.0000
  N   N6        1.0  0.9551681186639627  0.6005876527516989  0.2857469030528748  1.0000
  N   N7        1.0  0.6454644961233527  0.6004953358773548  0.7857778716435675  1.0000
  N   N8        1.0  0.044828814717682484  0.3994074009309188  0.7142538571400578  1.0000
  O   O1        1.0  0.9341136068261378  0.10678676644194948  0.8455257740765917  1.0000
  O   O2        1.0  0.8273691473869532  0.8930029081269665  0.654528379509344  1.0000
  O   O3        1.0  0.06588525621403818  0.8932165853866749  0.15447492874672264  1.0000
  O   O4        1.0  0.17262926945637957  0.1069973318969062  0.3454722699378152  1.0000
  O   O5        1.0  0.9494854872402598  0.3249263541668199  0.8804597631780737  1.0000
  O   O6        1.0  0.6247492657388918  0.6748135315260484  0.6195623822482546  1.0000
  O   O7        1.0  0.05051004669864765  0.6750769976618116  0.11954034052714488  1.0000
  O   O8        1.0  0.3752512980697062  0.3251887830343279  0.380439900431263  1.0000
  O   O9        1.0  0.6969828905189247  0.1300174261916709  0.7167941244131912  1.0000
  O   O10       1.0  0.5667919369927928  0.8698220372532929  0.7831158966114913  1.0000
  O   O11       1.0  0.303014344188405  0.8699848883687054  0.2832051626758415  1.0000
  O   O12       1.0  0.4332064798505399  0.1301782027705798  0.2168847528356679  1.0000
  O   O13       1.0  0.3215762833631216  0.6867172219746962  0.37712513202600934  1.0000
  O   O14       1.0  0.6349284540149468  0.313174104882826  0.12288922632622251  1.0000
  O   O15       1.0  0.6784286468115895  0.31328716712218346  0.6228745900591904  1.0000
  O   O16       1.0  0.36507388299765603  0.6868250978727986  0.8771100073866551  1.0000
