data_image0
_chemical_formula_structural       Ni4H28C36N8O20
_chemical_formula_sum              "Ni4 H28 C36 N8 O20"
_cell_length_a       5.829169420607932
_cell_length_b       8.051151352774086
_cell_length_c       26.930268397570863
_cell_angle_alpha    90.00399612486494
_cell_angle_beta     89.99904778222793
_cell_angle_gamma    90.0011550613532

_space_group_name_H-M_alt    "P 1"
_space_group_IT_number       1

loop_
  _space_group_symop_operation_xyz
  'x, y, z'

loop_
  _atom_site_type_symbol
  _atom_site_label
  _atom_site_symmetry_multiplicity
  _atom_site_fract_x
  _atom_site_fract_y
  _atom_site_fract_z
  _atom_site_occupancy
  Ni  Ni1       1.0  0.028804471306642702  0.24581706768051256  0.283165990037638  1.0000
  Ni  Ni2       1.0  0.9711665476901032  0.24582555037729756  0.7168312311822833  1.0000
  Ni  Ni3       1.0  0.5288673660961294  0.7541425811130225  0.21682633628965686  1.0000
  Ni  Ni4       1.0  0.471110596517164  0.7541633267233578  0.7831715007371048  1.0000
  H   H1        1.0  0.6882982704670438  0.3550657128514985  0.39677067340522854  1.0000
  H   H2        1.0  0.9419526759978325  0.1297748634301286  0.156764864619646  1.0000
  H   H3        1.0  0.14798276520601658  0.37331896017568067  0.13642078665066756  1.0000
  H   H4        1.0  0.3754321069682476  0.23972933953844944  0.15390189172036636  1.0000
  H   H5        1.0  0.4582623835628469  0.36516035544094183  0.3181908511058964  1.0000
  H   H6        1.0  0.9349413272658325  0.08653080181908732  0.3794952128913281  1.0000
  H   H7        1.0  0.1341785780818299  0.0742111286890719  0.4628417395564029  1.0000
  H   H8        1.0  0.3116970529264549  0.35503882783267215  0.6032323145213425  1.0000
  H   H9        1.0  0.0580689693458822  0.12981026042781005  0.84322520910375  1.0000
  H   H10       1.0  0.8520878095991266  0.37337661976429365  0.8635688075329926  1.0000
  H   H11       1.0  0.6246156174988257  0.23977091539278925  0.8461047457340883  1.0000
  H   H12       1.0  0.5416960182344609  0.3651400548662025  0.6818177314113074  1.0000
  H   H13       1.0  0.06505793696062769  0.0865312934525875  0.6205121030229749  1.0000
  H   H14       1.0  0.8658745837692052  0.07424454746666241  0.5371554392955888  1.0000
  H   H15       1.0  0.18833839362647345  0.6449551514254424  0.10321422139502803  1.0000
  H   H16       1.0  0.4418848910543787  0.8702152895281902  0.3432206285788198  1.0000
  H   H17       1.0  0.6477761630415698  0.6266030792510904  0.36355594381541323  1.0000
  H   H18       1.0  0.8752870059687369  0.7601548854263884  0.3461076156056536  1.0000
  H   H19       1.0  0.9583654472658621  0.6348345470251363  0.18180748538920716  1.0000
  H   H20       1.0  0.435052076302739  0.9135439041159898  0.12053193558966065  1.0000
  H   H21       1.0  0.6342076732464291  0.9258129427493388  0.03716965453480012  1.0000
  H   H22       1.0  0.811644432929796  0.6449993768952283  0.8967856488722533  1.0000
  H   H23       1.0  0.5580956284819152  0.8702102150304967  0.6567813862778211  1.0000
  H   H24       1.0  0.3522343346173572  0.6265666478732043  0.6364469186933165  1.0000
  H   H25       1.0  0.1247000196068626  0.7601182547476171  0.6538819153414014  1.0000
  H   H26       1.0  0.041618272368303594  0.634850830572617  0.818194215607413  1.0000
  H   H27       1.0  0.5649456849610104  0.913567339039368  0.8794762340402046  1.0000
  H   H28       1.0  0.3658236777174508  0.9258177747469887  0.9628412234566144  1.0000
  C   C1        1.0  0.5200437654816881  0.29679812689398943  0.39503583864308217  1.0000
  C   C2        1.0  0.0423435670591275  0.17995798487094564  0.18823502139763806  1.0000
  C   C3        1.0  0.2213307597345349  0.30433250303946124  0.16775075116965613  1.0000
  C   C4        1.0  0.16939074801485526  0.03681026345935121  0.21358116499013854  1.0000
  C   C5        1.0  0.3027428487684318  0.4296996662317412  0.20654635099054275  1.0000
  C   C6        1.0  0.394934241513944  0.3022099950553284  0.3511349991880266  1.0000
  C   C7        1.0  0.4257313061270267  0.2171523409701734  0.4362823581199039  1.0000
  C   C8        1.0  0.0999518641281938  0.14600001417048253  0.3861259129584982  1.0000
  C   C9        1.0  0.2111434387858537  0.13933999226512842  0.4315971449999695  1.0000
  C   C10       1.0  0.47994682943355116  0.29677773843079086  0.6049663508482868  1.0000
  C   C11       1.0  0.957682150533799  0.1799829721697179  0.8117570191198311  1.0000
  C   C12       1.0  0.7786981903317594  0.3043753592439061  0.8322472787525826  1.0000
  C   C13       1.0  0.8306250668468991  0.03681015325860669  0.7864097201036131  1.0000
  C   C14       1.0  0.6972430934979883  0.4297139546343943  0.7934502799633878  1.0000
  C   C15       1.0  0.6050379218763738  0.3021866830230664  0.648867402460077  1.0000
  C   C16       1.0  0.5742871357755136  0.21714568332360065  0.5637155956632827  1.0000
  C   C17       1.0  0.9000385019925545  0.1459953815337229  0.6138789066170532  1.0000
  C   C18       1.0  0.7888841286463801  0.13935047377901813  0.5684062996582214  1.0000
  C   C19       1.0  0.020117861314005794  0.7032274679129105  0.10495805617067334  1.0000
  C   C20       1.0  0.5422978075202494  0.8200089361876763  0.3117545796588743  1.0000
  C   C21       1.0  0.7212020811300234  0.695596009030382  0.33223643300055283  1.0000
  C   C22       1.0  0.669413767328109  0.9631872543748373  0.2864109615112866  1.0000
  C   C23       1.0  0.8026433830294408  0.5702538418957063  0.2934430428138697  1.0000
  C   C24       1.0  0.8950494750945808  0.6977932052638351  0.1488657862954028  1.0000
  C   C25       1.0  0.9257586007324649  0.7828653534235244  0.06371739739029181  1.0000
  C   C26       1.0  0.6000369946027888  0.8540679859639013  0.11388802979124793  1.0000
  C   C27       1.0  0.7111909892992757  0.8607029243173443  0.0684113016336454  1.0000
  C   C28       1.0  0.9798679780257445  0.7032507675554883  0.8950433551012227  1.0000
  C   C29       1.0  0.45766491383696456  0.8200147791301687  0.6882462102259768  1.0000
  C   C30       1.0  0.27878656845565786  0.6955862773783537  0.6677605938589439  1.0000
  C   C31       1.0  0.33058115986303693  0.963194262842272  0.7135891277763449  1.0000
  C   C32       1.0  0.19732480167723304  0.5702524957499905  0.7065550125655664  1.0000
  C   C33       1.0  0.1049513630786834  0.6978219875148782  0.8511372686551015  1.0000
  C   C34       1.0  0.074250856676052  0.7828845124403829  0.936288249227431  1.0000
  C   C35       1.0  0.3999645173772777  0.8540913258550802  0.8861181798836955  1.0000
  C   C36       1.0  0.28883164662637734  0.8607103923630037  0.931595167699719  1.0000
  N   N1        1.0  0.18952966267381302  0.22813494503587617  0.3469006102460597  1.0000
  N   N2        1.0  0.5586775535814468  0.21841400126413651  0.4802605282335152  1.0000
  N   N3        1.0  0.8104296276607103  0.2281239140172104  0.6531048294691149  1.0000
  N   N4        1.0  0.4413564301331191  0.2184041593584638  0.5197356182207002  1.0000
  N   N5        1.0  0.6896270863899828  0.7718846606240604  0.15310321054442974  1.0000
  N   N6        1.0  0.058678605092843804  0.7816284670714921  0.019737461907482202  1.0000
  N   N7        1.0  0.3103540314467281  0.7718994028831433  0.8468986637469058  1.0000
  N   N8        1.0  0.9413238894806212  0.7816397661328908  0.980264051483552  1.0000
  O   O1        1.0  0.25950751369438047  0.9212617015504635  0.18892880974985363  1.0000
  O   O2        1.0  0.29105838019604136  0.4005964733306015  0.2522787622990776  1.0000
  O   O3        1.0  0.3831898020029313  0.5631505735920754  0.1868284006040213  1.0000
  O   O4        1.0  0.1833618603849985  0.052027294097037206  0.2611364382320859  1.0000
  O   O5        1.0  0.8913688436168242  0.2546775037859491  0.2218010635265273  1.0000
  O   O6        1.0  0.7405114594488182  0.9212796325284176  0.81106369502227  1.0000
  O   O7        1.0  0.7088977500125395  0.4005596414018271  0.7477204403345682  1.0000
  O   O8        1.0  0.6168224106846835  0.5631776673413427  0.8131708620191561  1.0000
  O   O9        1.0  0.8166620506631759  0.05200740618020921  0.7388546715655266  1.0000
  O   O10       1.0  0.10863892092809381  0.2547079179409267  0.7781905639818663  1.0000
  O   O11       1.0  0.7595182160067538  0.0786961094098046  0.31106915720086203  1.0000
  O   O12       1.0  0.7910826898222751  0.5994143246932921  0.24771259796775527  1.0000
  O   O13       1.0  0.8830340938954251  0.4367708093955969  0.3131654391168156  1.0000
  O   O14       1.0  0.6833608699377222  0.9479886682984217  0.23886038536926435  1.0000
  O   O15       1.0  0.3913222368667633  0.7452872411591543  0.278181931492604  1.0000
  O   O16       1.0  0.2404941367009883  0.0787048715638576  0.6889333957669452  1.0000
  O   O17       1.0  0.20891874070149902  0.5994165902262553  0.7522836296891671  1.0000
  O   O18       1.0  0.11691639629617612  0.43677867818217925  0.6868329543607032  1.0000
  O   O19       1.0  0.31663968636909345  0.948005890619868  0.7611443069678645  1.0000
  O   O20       1.0  0.6086429979527992  0.7452944936350647  0.7218151868989653  1.0000
