data_image0
_chemical_formula_structural       Gd2H16C16N2O18
_chemical_formula_sum              "Gd2 H16 C16 N2 O18"
_cell_length_a       7.308271362069956
_cell_length_b       8.939997073785944
_cell_length_c       10.451747873853728
_cell_angle_alpha    114.13884959271513
_cell_angle_beta     111.87647994678242
_cell_angle_gamma    94.26905446732154

_space_group_name_H-M_alt    "P 1"
_space_group_IT_number       1

loop_
  _space_group_symop_operation_xyz
  'x, y, z'

loop_
  _atom_site_type_symbol
  _atom_site_label
  _atom_site_symmetry_multiplicity
  _atom_site_fract_x
  _atom_site_fract_y
  _atom_site_fract_z
  _atom_site_occupancy
  Gd  Gd1       1.0  0.09336840848146011  0.15295920733799312  0.8591557847480614  1.0000
  Gd  Gd2       1.0  0.9066324086034784  0.8470425425628746  0.14084343770352364  1.0000
  H   H1        1.0  0.4373235048051002  0.3994809826805437  0.7709063220781829  1.0000
  H   H2        1.0  0.5626642888571283  0.6005159324336518  0.22909394923437523  1.0000
  H   H3        1.0  0.3731740237462803  0.188125360335377  0.49985575911755115  1.0000
  H   H4        1.0  0.626810200243817  0.8118691230261349  0.5001457230417828  1.0000
  H   H5        1.0  0.14503939817014808  0.5416584231737501  0.33842851534557633  1.0000
  H   H6        1.0  0.8549603848796612  0.45833461192560077  0.6615732584925739  1.0000
  H   H7        1.0  0.20337874966521244  0.7273994425328567  0.5942487816653568  1.0000
  H   H8        1.0  0.7966183607077896  0.27259981062432803  0.4057496817475296  1.0000
  H   H9        1.0  0.5046600486907452  0.16802217372494244  0.8261319834092686  1.0000
  H   H10       1.0  0.49535757176593626  0.8319808664852532  0.17387449794274104  1.0000
  H   H11       1.0  0.5271521638155223  0.2931667816724969  0.9901342651391402  1.0000
  H   H12       1.0  0.47285209061893607  0.7068312612735497  0.009868340360128448  1.0000
  H   H13       1.0  0.28491873688806624  0.8688923728786832  0.8966367476257061  1.0000
  H   H14       1.0  0.7150808147369716  0.13110948168834824  0.10336508644596168  1.0000
  H   H15       1.0  0.23512159680886666  0.9804248772507123  0.041205525177645135  1.0000
  H   H16       1.0  0.7648762097169456  0.01957685451400689  0.9587920259149026  1.0000
  C   C1        1.0  0.3181787866242729  0.5805039953017969  0.7001240663437541  1.0000
  C   C2        1.0  0.681815391903598  0.4194902753245202  0.2998748935589007  1.0000
  C   C3        1.0  0.37224206991434994  0.4239294489604504  0.6715980251256042  1.0000
  C   C4        1.0  0.6277542601149549  0.5760712131576613  0.328404563632681  1.0000
  C   C5        1.0  0.33579503377723097  0.3095985762913003  0.5232800537553288  1.0000
  C   C6        1.0  0.6641956334043186  0.6903982919680515  0.47671991903078487  1.0000
  C   C7        1.0  0.24969798408539387  0.3454227598338234  0.39612132925041976  1.0000
  C   C8        1.0  0.7502959732117915  0.6545753333699409  0.6038788737918208  1.0000
  C   C9        1.0  0.20851588577941274  0.501339583022272  0.4272289610775033  1.0000
  C   C10       1.0  0.7914834704800031  0.4986571771680418  0.5727711010720071  1.0000
  C   C11       1.0  0.19830069458188151  0.21699458273596406  0.2339348823378131  1.0000
  C   C12       1.0  0.8017085218303279  0.7830108491778204  0.7660646876740101  1.0000
  C   C13       1.0  0.11110789751769085  0.546055979893765  0.024303089503952373  1.0000
  C   C14       1.0  0.8888928240634828  0.4539328679980059  0.975686950032596  1.0000
  C   C15       1.0  0.05289502463526213  0.9286020475627197  0.5029288684927238  1.0000
  C   C16       1.0  0.9470995187587834  0.07141132877117679  0.4970766503159893  1.0000
  N   N1        1.0  0.24211270078114214  0.6126059274774533  0.5735908585407542  1.0000
  N   N2        1.0  0.7578864499185657  0.38739073522636863  0.4264062487805234  1.0000
  O   O1        1.0  0.1662191601645873  0.26402511949477503  0.13059798435801176  1.0000
  O   O2        1.0  0.8337946850602477  0.7359753914762449  0.869406753012555  1.0000
  O   O3        1.0  0.4257429156214699  0.22852799460693526  0.8771712050856592  1.0000
  O   O4        1.0  0.5742667377752186  0.7714687153256606  0.12283125952087197  1.0000
  O   O5        1.0  0.1891413239035202  0.0613666150876355  0.2079275895704882  1.0000
  O   O6        1.0  0.8108582433924952  0.9386313194154497  0.792070046533368  1.0000
  O   O7        1.0  0.2542849095157962  0.9780620787003897  0.9515274070254803  1.0000
  O   O8        1.0  0.745720805744192  0.0219409539562108  0.04847435877586997  1.0000
  O   O9        1.0  0.33427707223907527  0.6883884281346794  0.8308983413282218  1.0000
  O   O10       1.0  0.6657270349614991  0.3116145467105937  0.16910111137949002  1.0000
  O   O11       1.0  0.21767402659023116  0.45365833610011924  0.9755583286654214  1.0000
  O   O12       1.0  0.7823185391610252  0.5463419504313833  0.024431754363661136  1.0000
  O   O13       1.0  0.11821041646791743  0.922415777856891  0.6311246136282378  1.0000
  O   O14       1.0  0.8817751951106205  0.07758973643618111  0.3688684801104928  1.0000
  O   O15       1.0  0.06602168722627506  0.8297210873574415  0.38091966342804534  1.0000
  O   O16       1.0  0.9339831744529193  0.17028939548108474  0.6190786789960113  1.0000
  O   O17       1.0  0.16720558648572847  0.7065866394362104  0.1089591468144776  1.0000
  O   O18       1.0  0.832800835121148  0.2934138749376913  0.8910428895726098  1.0000
