data_image0
_chemical_formula_structural       Hg2H16C24N4O8
_chemical_formula_sum              "Hg2 H16 C24 N4 O8"
_cell_length_a       5.70469556319044
_cell_length_b       7.703119276055697
_cell_length_c       12.525899383491966
_cell_angle_alpha    90.00082215465459
_cell_angle_beta     89.99924545058457
_cell_angle_gamma    92.77071525039955

_space_group_name_H-M_alt    "P 1"
_space_group_IT_number       1

loop_
  _space_group_symop_operation_xyz
  'x, y, z'

loop_
  _atom_site_type_symbol
  _atom_site_label
  _atom_site_symmetry_multiplicity
  _atom_site_fract_x
  _atom_site_fract_y
  _atom_site_fract_z
  _atom_site_occupancy
  Hg  Hg1       1.0  7.458722265566118e-06  0.9999941683591657  2.1364018892000014e-06  1.0000
  Hg  Hg2       1.0  8.525749592492966e-06  0.5000078129190512  0.4999982986518816  1.0000
  H   H1        1.0  0.5646562321465894  0.8014022068594571  0.2970702231025939  1.0000
  H   H2        1.0  0.43532802390086545  0.6986030048887599  0.7970598379338725  1.0000
  H   H3        1.0  0.4353582587327268  0.1985960152662187  0.7029445695508942  1.0000
  H   H4        1.0  0.5646441033729134  0.30138974054729323  0.2029262143859398  1.0000
  H   H5        1.0  0.32697342005291574  0.8953603109967643  0.45119850381471593  1.0000
  H   H6        1.0  0.6730144268660965  0.6046535122720511  0.9511904600178341  1.0000
  H   H7        1.0  0.673040701645867  0.10466389237495828  0.548812297228416  1.0000
  H   H8        1.0  0.32693379565772324  0.39531828845672107  0.04880118070845191  1.0000
  H   H9        1.0  0.9535141152652714  0.0536550198547872  0.4134531786951925  1.0000
  H   H10       1.0  0.046482684900290394  0.44635871622079293  0.913446055221023  1.0000
  H   H11       1.0  0.04650681340037719  0.9463653307830526  0.5865480421572045  1.0000
  H   H12       1.0  0.9534909189873562  0.5536288423394922  0.0865511739124543  1.0000
  H   H13       1.0  0.8377853463514032  0.0980072049541576  0.22520221643974744  1.0000
  H   H14       1.0  0.16220469039976143  0.4019880536106938  0.725193114917211  1.0000
  H   H15       1.0  0.16221266982042687  0.9019779164323082  0.7748006010217311  1.0000
  H   H16       1.0  0.8377945026170651  0.5980191616149001  0.2748009208358937  1.0000
  C   C1        1.0  0.32583809051313756  0.8941558796746846  0.1798399437103342  1.0000
  C   C2        1.0  0.6741469494657863  0.6058415614139891  0.6798430799772888  1.0000
  C   C3        1.0  0.6741614023588198  0.10582405475754088  0.8201668654520091  1.0000
  C   C4        1.0  0.32586774932263307  0.3941605594147076  0.3201509557006332  1.0000
  C   C5        1.0  0.4577558864019053  0.825807516088915  0.08353872057812593  1.0000
  C   C6        1.0  0.5422630312522473  0.6741880296093397  0.5835202105985857  1.0000
  C   C7        1.0  0.5422578431535288  0.17417640987395797  0.9164680885544669  1.0000
  C   C8        1.0  0.4577524290613226  0.32582838719905277  0.41646504333702694  1.0000
  C   C9        1.0  0.40338104450753326  0.8677224364486023  0.28395424291255017  1.0000
  C   C10       1.0  0.596608787405266  0.6322825234621021  0.7839373828467588  1.0000
  C   C11       1.0  0.5966218632430156  0.13228870102260964  0.7160549614173135  1.0000
  C   C12       1.0  0.4033709081496681  0.36772066541159626  0.2160478711490725  1.0000
  C   C13       1.0  0.2703692012876573  0.9222414214174108  0.3699192231158861  1.0000
  C   C14       1.0  0.7296175051220787  0.5777784011978895  0.8699129503934913  1.0000
  C   C15       1.0  0.7296685713618487  0.07776604862640818  0.630089981080218  1.0000
  C   C16       1.0  0.2703509071975461  0.422210422193089  0.13007629530449802  1.0000
  C   C17       1.0  0.06326926969065741  0.0057689209083378  0.3500201886221106  1.0000
  C   C18       1.0  0.9367253385991037  0.49423950746089657  0.8500075168220037  1.0000
  C   C19       1.0  0.9367301308423353  0.9942421933777579  0.6499858223359709  1.0000
  C   C20       1.0  0.06323598991210132  0.5057479700561344  0.14998811566061931  1.0000
  C   C21       1.0  0.9961626780883038  0.0315873696471201  0.24482871645849977  1.0000
  C   C22       1.0  0.0038291947763014022  0.46841872639316057  0.744824474593962  1.0000
  C   C23       1.0  0.003868933779358482  0.9684031703441319  0.7551836810650486  1.0000
  C   C24       1.0  0.9961753282964169  0.5315898232446232  0.255173552876613  1.0000
  N   N1        1.0  0.12519249748125108  0.9759207614704549  0.16297114186925654  1.0000
  N   N2        1.0  0.87481048390395  0.5240764267943945  0.6629642052768221  1.0000
  N   N3        1.0  0.8748006038491171  0.0240708234591622  0.8370364657132259  1.0000
  N   N4        1.0  0.12520518393536414  0.475943889065789  0.3370322255178948  1.0000
  O   O1        1.0  0.6633700330642683  0.7792704019205274  0.10167224521254782  1.0000
  O   O2        1.0  0.3366220753569707  0.720724066800841  0.6016723040399441  1.0000
  O   O3        1.0  0.3366111621085254  0.22069512068492256  0.8983345639459659  1.0000
  O   O4        1.0  0.6633940077926113  0.2793040469274858  0.3983249251345811  1.0000
  O   O5        1.0  0.35081161578965964  0.8172996264452975  0.9945203330782989  1.0000
  O   O6        1.0  0.6491867048305265  0.6827009281914727  0.49452508276752394  1.0000
  O   O7        1.0  0.6491971298480906  0.1826894632866995  0.005479290981639901  1.0000
  O   O8        1.0  0.35081892584803853  0.31732841565964526  0.5054657596807601  1.0000
