data_image0
_chemical_formula_structural       H16Pb4C20N8O20
_chemical_formula_sum              "H16 Pb4 C20 N8 O20"
_cell_length_a       6.717343685717532
_cell_length_b       8.56673819278334
_cell_length_c       12.325056668974568
_cell_angle_alpha    93.9894819228027
_cell_angle_beta     89.99847425522495
_cell_angle_gamma    90.00095481105168

_space_group_name_H-M_alt    "P 1"
_space_group_IT_number       1

loop_
  _space_group_symop_operation_xyz
  'x, y, z'

loop_
  _atom_site_type_symbol
  _atom_site_label
  _atom_site_symmetry_multiplicity
  _atom_site_fract_x
  _atom_site_fract_y
  _atom_site_fract_z
  _atom_site_occupancy
  H   H1        1.0  0.7142571483841921  0.08368101747524292  0.933956924004775  1.0000
  H   H2        1.0  0.21427046061552354  0.4163159100952569  0.5660409743319477  1.0000
  H   H3        1.0  0.28572464007488924  0.9163240480954686  0.0660403785100172  1.0000
  H   H4        1.0  0.7857559881555929  0.5836785808995516  0.43395981841121056  1.0000
  H   H5        1.0  0.029525252635572506  0.5810408934885772  0.8958742694659847  1.0000
  H   H6        1.0  0.52955244270931  0.9189678600085288  0.6041305183109955  1.0000
  H   H7        1.0  0.9704565355391284  0.41895356212390317  0.10412976719544527  1.0000
  H   H8        1.0  0.4704606076924307  0.0810312060194534  0.39588025609302235  1.0000
  H   H9        1.0  0.04190520681399331  0.7614159663367772  0.9063527240658684  1.0000
  H   H10       1.0  0.5418801722745813  0.7385861480316366  0.5936304458619546  1.0000
  H   H11       1.0  0.9581048665853374  0.23858091743007045  0.09364332867284017  1.0000
  H   H12       1.0  0.458125435210242  0.2614166213524528  0.4063626766208514  1.0000
  H   H13       1.0  0.7606942178842644  0.14705564880783584  0.597336387979446  1.0000
  H   H14       1.0  0.26068557024535727  0.35294878788648293  0.9026694008524742  1.0000
  H   H15       1.0  0.23929501380976603  0.8529528393700192  0.4026692115770487  1.0000
  H   H16       1.0  0.7393334352245235  0.6470469170515476  0.0973274000675488  1.0000
  Pb  Pb1       1.0  0.5956738550414614  0.690637746651767  0.8545879016399593  1.0000
  Pb  Pb2       1.0  0.0957031602619622  0.8093147734440934  0.6453870190578498  1.0000
  Pb  Pb3       1.0  0.4043138877039496  0.30934031870998513  0.1454160685176475  1.0000
  Pb  Pb4       1.0  0.904311379483211  0.19064492140834946  0.3545835118924784  1.0000
  C   C1        1.0  0.7264953494058091  0.3520439254143995  0.7076582429353376  1.0000
  C   C2        1.0  0.226473468417268  0.14795546772485585  0.7923420569491311  1.0000
  C   C3        1.0  0.273499837055617  0.6479634102450407  0.2923456720973263  1.0000
  C   C4        1.0  0.7735202293554196  0.852039040619289  0.2076571141876116  1.0000
  C   C5        1.0  0.7436247371248188  0.19400227356469915  0.6809075808476521  1.0000
  C   C6        1.0  0.24363144373242568  0.30600092167183135  0.819085389304902  1.0000
  C   C7        1.0  0.25636002872913377  0.8060132966672243  0.3190927183982807  1.0000
  C   C8        1.0  0.7563637429461709  0.6939995074316698  0.18090760790552443  1.0000
  C   C9        1.0  0.7402034208935364  0.08975666613956433  0.7662554819631635  1.0000
  C   C10       1.0  0.24021672416231613  0.41023587671440964  0.7337442661123389  1.0000
  C   C11       1.0  0.25977836743915367  0.910243683894159  0.23374481350569445  1.0000
  C   C12       1.0  0.7597903718900056  0.5897633472498784  0.26625191198454695  1.0000
  C   C13       1.0  0.6894635593441906  0.3173261617928065  0.893960070901272  1.0000
  C   C14       1.0  0.1894611088130063  0.18266454596889056  0.606043508089371  1.0000
  C   C15       1.0  0.31053013842335997  0.6826800037494396  0.10604378147137078  1.0000
  C   C16       1.0  0.8105444984822371  0.8173311501097018  0.3939541038245266  1.0000
  C   C17       1.0  0.7362571322789649  0.4714341251246951  0.6219457381042304  1.0000
  C   C18       1.0  0.23624917028055142  0.02857469746975031  0.8780598034717852  1.0000
  C   C19       1.0  0.2637484750080433  0.5285802224708647  0.378059363787102  1.0000
  C   C20       1.0  0.7637415500798781  0.9714244561825754  0.12194286199452618  1.0000
  N   N1        1.0  0.6991803762090287  0.4129623718096695  0.810727144079365  1.0000
  N   N2        1.0  0.19919096696204971  0.08702843030887658  0.6892787431036993  1.0000
  N   N3        1.0  0.3008103440331382  0.5870378992928525  0.1892804495049276  1.0000
  N   N4        1.0  0.800816128903762  0.9129567260310554  0.31071911568273686  1.0000
  N   N5        1.0  0.717230989050961  0.15822680235550024  0.870289475428393  1.0000
  N   N6        1.0  0.21723944512167756  0.3417701094383219  0.6297132503003411  1.0000
  N   N7        1.0  0.28275675411942564  0.8417829173551183  0.12971051045069257  1.0000
  N   N8        1.0  0.7827736055593989  0.6582267392418332  0.3702860460515892  1.0000
  O   O1        1.0  0.6992638995773819  0.6138941463872173  0.6555749612572226  1.0000
  O   O2        1.0  0.19927982691629612  0.8861132210588495  0.8444258428368411  1.0000
  O   O3        1.0  0.3007580832822257  0.3861237204101258  0.34442951762983387  1.0000
  O   O4        1.0  0.8007108934961167  0.11388945169363043  0.1555761997300706  1.0000
  O   O5        1.0  0.7825156020296191  0.42798352707711734  0.5257288352341831  1.0000
  O   O6        1.0  0.28252876764940993  0.07202707502007402  0.9742729327877696  1.0000
  O   O7        1.0  0.21747362967563794  0.5720237997690775  0.4742758907446784  1.0000
  O   O8        1.0  0.7174679074335444  0.9279755714404846  0.025731542465209103  1.0000
  O   O9        1.0  0.7571551389923741  0.9419828630262972  0.7515184264464594  1.0000
  O   O10       1.0  0.25714565400914324  0.5580170320504154  0.7484811976805474  1.0000
  O   O11       1.0  0.24281771742774794  0.058024560257486306  0.24847737964849867  1.0000
  O   O12       1.0  0.7428659079556114  0.44198096917588003  0.2515197831666071  1.0000
  O   O13       1.0  0.6568088165694378  0.3723925505990593  0.9894967478382878  1.0000
  O   O14       1.0  0.15681325284893433  0.12760246743284404  0.510504256380294  1.0000
  O   O15       1.0  0.343193813154528  0.6276042278060886  0.010509035844926006  1.0000
  O   O16       1.0  0.8432102187362532  0.8723932638617882  0.489490111786928  1.0000
  O   O17       1.0  0.9502020078809396  0.6728513360334533  0.9188141447241804  1.0000
  O   O18       1.0  0.450203787648192  0.8271684366131498  0.5811904341879311  1.0000
  O   O19       1.0  0.0497946674905094  0.3271525946268668  0.08117985139344337  1.0000
  O   O20       1.0  0.5498047967972681  0.17283416603985566  0.41881809552914007  1.0000
