data_image0
_chemical_formula_structural       Cd4H32C24N6Cl10O2
_chemical_formula_sum              "Cd4 H32 C24 N6 Cl10 O2"
_cell_length_a       9.4842155962912
_cell_length_b       10.895579983690727
_cell_length_c       10.433802566101614
_cell_angle_alpha    103.45342386662743
_cell_angle_beta     101.29071599899113
_cell_angle_gamma    110.64674321854389

_space_group_name_H-M_alt    "P 1"
_space_group_IT_number       1

loop_
  _space_group_symop_operation_xyz
  'x, y, z'

loop_
  _atom_site_type_symbol
  _atom_site_label
  _atom_site_symmetry_multiplicity
  _atom_site_fract_x
  _atom_site_fract_y
  _atom_site_fract_z
  _atom_site_occupancy
  Cd  Cd1       1.0  0.9467263149387433  0.5680900774490566  0.3422175225635371  1.0000
  Cd  Cd2       1.0  0.05327005168084044  0.4319041216245126  0.6577771757953315  1.0000
  Cd  Cd3       1.0  0.9876698334129373  0.19286896255896835  0.2744473823281126  1.0000
  Cd  Cd4       1.0  0.012328694731472542  0.8071230374999345  0.7255489892945092  1.0000
  H   H1        1.0  0.08247886173932531  0.18054388347604802  0.01267460191274949  1.0000
  H   H2        1.0  0.9175193428617947  0.8194539623881028  0.9873168490042232  1.0000
  H   H3        1.0  0.0035325139778806095  0.2862917115796648  0.018126284545182583  1.0000
  H   H4        1.0  0.9964682188683865  0.7137075959947412  0.9818719654312814  1.0000
  H   H5        1.0  0.5094995356985521  0.8669170563171562  0.2952838866504805  1.0000
  H   H6        1.0  0.4905069743457204  0.13308154246455933  0.7047230757422014  1.0000
  H   H7        1.0  0.3137515316918851  0.774573911457466  0.20842554585232878  1.0000
  H   H8        1.0  0.6862467657321715  0.22543274201446917  0.7915813264544126  1.0000
  H   H9        1.0  0.15278179157946434  0.9995778724021845  0.14710899129439522  1.0000
  H   H10       1.0  0.8472374947982433  0.00042450243747542936  0.8528710445012848  1.0000
  H   H11       1.0  0.3096210072256156  0.31520743183473604  0.5205786554084852  1.0000
  H   H12       1.0  0.6903433004683706  0.6847579456317447  0.4794220557161211  1.0000
  H   H13       1.0  0.5751427529861458  0.30723697167758257  0.5808850568251813  1.0000
  H   H14       1.0  0.4248359841667835  0.6927557423372052  0.419123743292836  1.0000
  H   H15       1.0  0.6291594118764435  0.1378446889046714  0.4138965727986132  1.0000
  H   H16       1.0  0.37083842869164124  0.862145249991137  0.5861173095807429  1.0000
  H   H17       1.0  0.3262627223645467  0.9120607704265635  0.06006228994509392  1.0000
  H   H18       1.0  0.6737675342997703  0.08795343555397749  0.9399393524935675  1.0000
  H   H19       1.0  0.5351586598380463  0.007125702019841603  0.14338181485800308  1.0000
  H   H20       1.0  0.464868614310035  0.9928817637149837  0.8566401532894189  1.0000
  H   H21       1.0  0.5662675407635761  0.8032091434434464  0.07189073321645614  1.0000
  H   H22       1.0  0.43371808827628666  0.19677870474177447  0.9281083028830182  1.0000
  H   H23       1.0  0.360007114202574  0.688423218368122  0.0031908414788119756  1.0000
  H   H24       1.0  0.6399782109917355  0.31157820849199425  0.9968096494842982  1.0000
  H   H25       1.0  0.7540461240552218  0.7351722392958422  0.19819928305269488  1.0000
  H   H26       1.0  0.24595899800107193  0.2648269657807277  0.801820120996709  1.0000
  H   H27       1.0  0.6012215207485808  0.3759895085723882  0.30285208234163014  1.0000
  H   H28       1.0  0.39876619280691733  0.6240167073532491  0.6971446846871459  1.0000
  H   H29       1.0  0.31629141584230064  0.3320585968448242  0.21119297058812236  1.0000
  H   H30       1.0  0.6837096169655368  0.6679487735478916  0.788808928010731  1.0000
  H   H31       1.0  0.2518385486759627  0.4990007555206759  0.11211499042533994  1.0000
  H   H32       1.0  0.7481413928056072  0.5009938706492464  0.8878869703241178  1.0000
  C   C1        1.0  0.39252875910571555  0.05206376466026091  0.2679312409559031  1.0000
  C   C2        1.0  0.6074722641524345  0.9479353904851777  0.7320593046722621  1.0000
  C   C3        1.0  0.24830182047783464  0.06388225681291  0.24334017191250717  1.0000
  C   C4        1.0  0.751711381177131  0.936124682419404  0.7566525949415848  1.0000
  C   C5        1.0  0.336136710290269  0.2398150725561479  0.452741002389878  1.0000
  C   C6        1.0  0.6638569742706082  0.7601874337491878  0.5472538973655645  1.0000
  C   C7        1.0  0.4822109405961256  0.23316733348602983  0.4865857990012543  1.0000
  C   C8        1.0  0.5177776671783931  0.7668332141540476  0.513405457437976  1.0000
  C   C9        1.0  0.511992352196671  0.13904568387007293  0.39226242252365034  1.0000
  C   C10       1.0  0.4880104245730621  0.8609739209552387  0.6077534679876777  1.0000
  C   C11       1.0  0.4206527677233964  0.9544214373118294  0.15898361737903602  1.0000
  C   C12       1.0  0.5793740061868674  0.045591171884844135  0.8410302706259429  1.0000
  C   C13       1.0  0.4640599747467817  0.7370170405783227  0.0954101156373852  1.0000
  C   C14       1.0  0.5359464157096168  0.26298392080341426  0.9045763689586934  1.0000
  C   C15       1.0  0.49844753617457377  0.6318171939483933  0.1502506175182958  1.0000
  C   C16       1.0  0.5015448709324629  0.3681823254636853  0.8497420757852223  1.0000
  C   C17       1.0  0.6542244477110443  0.6468370630589958  0.19986005781073152  1.0000
  C   C18       1.0  0.3457821525712816  0.3531589072898528  0.8001422112760963  1.0000
  C   C19       1.0  0.5679116102059963  0.4457630640516471  0.2573259629196444  1.0000
  C   C20       1.0  0.43209557030174744  0.5542412990641736  0.7426772278426554  1.0000
  C   C21       1.0  0.41055580832724553  0.4221416096023844  0.20767728763212992  1.0000
  C   C22       1.0  0.5894450280883348  0.5778573255772842  0.7923150759606443  1.0000
  C   C23       1.0  0.3746530829152519  0.5154501487892773  0.15196956288151853  1.0000
  C   C24       1.0  0.6253450016020494  0.484543075015708  0.8480251831734122  1.0000
  N   N1        1.0  0.22181458863428105  0.15746970259139204  0.3327915242858239  1.0000
  N   N2        1.0  0.7781857176977239  0.8425271255580924  0.6671913609965967  1.0000
  N   N3        1.0  0.42636027366287976  0.832219359100371  0.20011265824810198  1.0000
  N   N4        1.0  0.5736470606584305  0.16777523507342104  0.799883532058125  1.0000
  N   N5        1.0  0.6879506717017563  0.5547170595834031  0.2514486283711577  1.0000
  N   N6        1.0  0.31203194158807435  0.44528542401644705  0.7485506658206235  1.0000
  Cl  Cl1       1.0  0.7806474074561934  0.2849597853877911  0.2041330442120923  1.0000
  Cl  Cl2       1.0  0.21935470263164794  0.7150480958942822  0.7958740718811156  1.0000
  Cl  Cl3       1.0  0.1606873225964165  0.4794262324792554  0.43511041011154106  1.0000
  Cl  Cl4       1.0  0.8393117457796038  0.520567392232202  0.5648904624200385  1.0000
  Cl  Cl5       1.0  0.07753625851390213  0.6498495519357661  0.16176503863982816  1.0000
  Cl  Cl6       1.0  0.922468917465821  0.3501499796684584  0.8382332627261988  1.0000
  Cl  Cl7       1.0  0.9257636363014394  0.1689334995114962  0.5021528203864206  1.0000
  Cl  Cl8       1.0  0.07423501511001976  0.8310658610223173  0.49784404042180336  1.0000
  Cl  Cl9       1.0  0.8298585740814345  0.9440208529797901  0.1034559283621732  1.0000
  Cl  Cl10      1.0  0.17014124803131378  0.05597912842627302  0.8965452409581117  1.0000
  O   O1        1.0  0.05627670830287459  0.24609726434552934  0.07633945009996518  1.0000
  O   O2        1.0  0.9437332075886502  0.753907815691065  0.9236587669544392  1.0000
