data_image0
_chemical_formula_structural       Cd4H24C32S2O26
_chemical_formula_sum              "Cd4 H24 C32 S2 O26"
_cell_length_a       7.32559159247804
_cell_length_b       10.838562895069392
_cell_length_c       13.592759317329204
_cell_angle_alpha    70.833879990925
_cell_angle_beta     80.2587418111913
_cell_angle_gamma    68.60997765590767

_space_group_name_H-M_alt    "P 1"
_space_group_IT_number       1

loop_
  _space_group_symop_operation_xyz
  'x, y, z'

loop_
  _atom_site_type_symbol
  _atom_site_label
  _atom_site_symmetry_multiplicity
  _atom_site_fract_x
  _atom_site_fract_y
  _atom_site_fract_z
  _atom_site_occupancy
  Cd  Cd1       1.0  0.011956342968872461  0.08543908010062753  0.8571266224204596  1.0000
  Cd  Cd2       1.0  0.9880460040451525  0.9145593061229247  0.1428710794823971  1.0000
  Cd  Cd3       1.0  0.7528406195976844  0.07614718818295067  0.5965938401065856  1.0000
  Cd  Cd4       1.0  0.24715816649964487  0.9238563764300524  0.40340653401012366  1.0000
  H   H1        1.0  0.7859778719484396  0.12565929505250042  0.3837970590436657  1.0000
  H   H2        1.0  0.21402984168006606  0.8743386870039347  0.6162047872348069  1.0000
  H   H3        1.0  0.7380304732992402  0.9858085324440181  0.4348713729416503  1.0000
  H   H4        1.0  0.2619690170674147  0.014192954796790502  0.5651301927517736  1.0000
  H   H5        1.0  0.4356296041827151  0.9403170123180971  0.8278223626018505  1.0000
  H   H6        1.0  0.5643735285325917  0.05968225995741251  0.17217875171746047  1.0000
  H   H7        1.0  0.3171546924637172  0.8464752434121081  0.8219398480442524  1.0000
  H   H8        1.0  0.6828524811430726  0.15351965913735202  0.17806646464402584  1.0000
  H   H9        1.0  0.5974965641403712  0.17760813824412489  0.8999559924947605  1.0000
  H   H10       1.0  0.4025035076558299  0.8223923683519913  0.10004282536224457  1.0000
  H   H11       1.0  0.6825901167688927  0.1539083340217502  0.007791534216877879  1.0000
  H   H12       1.0  0.31741066884321584  0.846094168251931  0.9922060136157217  1.0000
  H   H13       1.0  0.6814314560801835  0.4105338698299264  0.9127468557184955  1.0000
  H   H14       1.0  0.3185658114067706  0.5894586669540588  0.08725629920839846  1.0000
  H   H15       1.0  0.7396461509717297  0.39969015659398377  0.09234037290216433  1.0000
  H   H16       1.0  0.26035876789411105  0.600303928700079  0.9076633488450768  1.0000
  H   H17       1.0  0.801474498918985  0.5976039995558581  0.11910467003566798  1.0000
  H   H18       1.0  0.19853205139635577  0.4023941286856854  0.8808935395518562  1.0000
  H   H19       1.0  0.31365818279395785  0.599897632978859  0.45956762729729667  1.0000
  H   H20       1.0  0.6863403480772092  0.40010405203940985  0.5404273295942661  1.0000
  H   H21       1.0  0.3282648386280514  0.46243490354632405  0.6465129214471333  1.0000
  H   H22       1.0  0.6717342531957798  0.5375687384552279  0.3534829945032101  1.0000
  H   H23       1.0  0.01880408325663301  0.47713296088390683  0.7569344236676941  1.0000
  H   H24       1.0  0.9812002318650099  0.5228743113060119  0.24306540414033156  1.0000
  C   C1        1.0  0.7145836448041932  0.6110327811572347  0.8430579654920296  1.0000
  C   C2        1.0  0.285418406029912  0.3889696007275205  0.15694173297607253  1.0000
  C   C3        1.0  0.7123520207988961  0.49444133942087387  0.926488302257866  1.0000
  C   C4        1.0  0.28764832670034224  0.5055581091420079  0.07351222592909329  1.0000
  C   C5        1.0  0.7434280930457858  0.4892610204216653  0.026442885074956703  1.0000
  C   C6        1.0  0.2565726830197407  0.5107374088022567  0.973557124358763  1.0000
  C   C7        1.0  0.779702391578475  0.5987645029139516  0.04155967264389195  1.0000
  C   C8        1.0  0.22030232163191937  0.4012387994109474  0.9584366725434352  1.0000
  C   C9        1.0  0.7938573256960736  0.7119695736909506  0.9570593813400169  1.0000
  C   C10       1.0  0.20614733655990142  0.2880337157358568  0.04293770687502978  1.0000
  C   C11       1.0  0.7579644534333666  0.72099175776048  0.8560246760720389  1.0000
  C   C12       1.0  0.24203442502620473  0.2790077595989473  0.1439766735903376  1.0000
  C   C13       1.0  0.8337929732948839  0.6192462036268652  0.6319734631407743  1.0000
  C   C14       1.0  0.16620826181447507  0.38075415678415686  0.36802899140717943  1.0000
  C   C15       1.0  0.8205445504120022  0.6945528401254678  0.525986274294887  1.0000
  C   C16       1.0  0.17945200187533325  0.3054487847084387  0.4740169343493649  1.0000
  C   C17       1.0  0.9982642139814434  0.6878972538969208  0.46507132152122926  1.0000
  C   C18       1.0  0.0017290526381544074  0.31210667618891824  0.5349271373030364  1.0000
  C   C19       1.0  0.179177048056424  0.6051302409222572  0.5087204669512603  1.0000
  C   C20       1.0  0.8208276556073811  0.3948689883528828  0.4912783398371803  1.0000
  C   C21       1.0  0.18768842288352527  0.5279713237354002  0.6132357155729979  1.0000
  C   C22       1.0  0.8123098022611399  0.47203028389432705  0.38676369948492356  1.0000
  C   C23       1.0  0.014454417000259007  0.5360169060375953  0.6748508749955492  1.0000
  C   C24       1.0  0.9855478681290533  0.46398847796559284  0.3251488152291061  1.0000
  C   C25       1.0  0.8585993952129272  0.8191987475570102  0.9755357403512761  1.0000
  C   C26       1.0  0.14140400320475519  0.18079357853124378  0.024460413535329902  1.0000
  C   C27       1.0  0.7557434254687719  0.8504135400865422  0.7681272736089896  1.0000
  C   C28       1.0  0.2442510568021063  0.14957917298481502  0.23187529518555294  1.0000
  C   C29       1.0  0.6272160323577155  0.7822589006679478  0.47725549641842246  1.0000
  C   C30       1.0  0.37278219278694996  0.21774270696177916  0.522743918639506  1.0000
  C   C31       1.0  0.9997432278572587  0.7654804938529979  0.3516548911528191  1.0000
  C   C32       1.0  0.0002576087092762974  0.2345220213187673  0.6483419136520612  1.0000
  S   S1        1.0  0.6266626251882244  0.6224902032422223  0.7233370471449521  1.0000
  S   S2        1.0  0.37334468173456525  0.37749477679773946  0.27666282729860825  1.0000
  O   O1        1.0  0.6228538108988528  0.9643910142040755  0.7738945772278429  1.0000
  O   O2        1.0  0.3771563608341921  0.03560602159586781  0.2260977555169816  1.0000
  O   O3        1.0  0.8797738390913352  0.8422339104278578  0.6917122477517098  1.0000
  O   O4        1.0  0.12021946893609943  0.157765959506321  0.3082879296459495  1.0000
  O   O5        1.0  0.9527895135449856  0.8804283218295977  0.9002849238957753  1.0000
  O   O6        1.0  0.04720446872830309  0.11956833531059631  0.09972261357491873  1.0000
  O   O7        1.0  0.8197353554025572  0.8354272893718502  0.06614945380113813  1.0000
  O   O8        1.0  0.1802758681882253  0.16456550139705675  0.933850463291215  1.0000
  O   O9        1.0  0.5947410935495085  0.9110377630895813  0.434613693169581  1.0000
  O   O10       1.0  0.4052554378068719  0.0889649842680242  0.5653840900060843  1.0000
  O   O11       1.0  0.5031402066790561  0.7237454300885631  0.4810724249869693  1.0000
  O   O12       1.0  0.49685834512305865  0.2762551324060141  0.5189279573731796  1.0000
  O   O13       1.0  0.8836662071799851  0.766517076545476  0.29266302974575353  1.0000
  O   O14       1.0  0.11633278411871119  0.23347545593242108  0.7073355885670909  1.0000
  O   O15       1.0  0.12600978091119705  0.8301515973510617  0.314347971905356  1.0000
  O   O16       1.0  0.8739854538160189  0.1698612187011435  0.6856526128240717  1.0000
  O   O17       1.0  0.47087115923365996  0.7571292886563443  0.6966081306568627  1.0000
  O   O18       1.0  0.5291196697582734  0.2428726500580325  0.30339613480585836  1.0000
  O   O19       1.0  0.5781863245907743  0.4987116616599464  0.7394390474402004  1.0000
  O   O20       1.0  0.42181080912610025  0.5012889825292746  0.26056141336763267  1.0000
  O   O21       1.0  0.831763579810371  0.036017880350925686  0.4367320004402089  1.0000
  O   O22       1.0  0.1682360843504897  0.9639825230604586  0.5632727616386148  1.0000
  O   O23       1.0  0.3177638670727064  0.9075100033748881  0.8612602291222516  1.0000
  O   O24       1.0  0.6822395923000572  0.09248822376547851  0.13874185249928667  1.0000
  O   O25       1.0  0.7024215782366311  0.1865694423759621  0.9297857450758898  1.0000
  O   O26       1.0  0.29757844260515043  0.8134310513220626  0.07021381580884883  1.0000
