data_image0
_chemical_formula_structural       Bi4H60C56O4
_chemical_formula_sum              "Bi4 H60 C56 O4"
_cell_length_a       8.320408067
_cell_length_b       10.361945041
_cell_length_c       14.9207
_cell_angle_alpha    90.0
_cell_angle_beta     90.0
_cell_angle_gamma    90.0

_space_group_name_H-M_alt    "P 1"
_space_group_IT_number       1

loop_
  _space_group_symop_operation_xyz
  'x, y, z'

loop_
  _atom_site_type_symbol
  _atom_site_label
  _atom_site_symmetry_multiplicity
  _atom_site_fract_x
  _atom_site_fract_y
  _atom_site_fract_z
  _atom_site_occupancy
  Bi  Bi1       1.0  0.3823177871066789  0.2478260587022163  0.994699980563915  1.0000
  Bi  Bi2       1.0  0.1176841318496855  0.7521715246665508  0.4946999805639152  1.0000
  Bi  Bi3       1.0  0.8823197060630434  0.2521736980519478  0.0052986790163985  1.0000
  Bi  Bi4       1.0  0.6176836470777898  0.7478287106657151  0.5052993492262416  1.0000
  H   H1        1.0  0.739272635484788  0.24386251712411425  0.19051452009624367  1.0000
  H   H2        1.0  0.7607259101995183  0.7561398915935416  0.6905178711454523  1.0000
  H   H3        1.0  0.23927312025668354  0.2561353094904888  0.8094834692742267  1.0000
  H   H4        1.0  0.2607275968355438  0.7438622738782783  0.3094834692742268  1.0000
  H   H5        1.0  0.5288442543403419  0.265015881587324  0.19793709410416224  1.0000
  H   H6        1.0  0.9711542913439644  0.7349836319210041  0.697937094104162  1.0000
  H   H7        1.0  0.0288447391122375  0.2349809799575056  0.802060225056465  1.0000
  H   H8        1.0  0.4711559779799898  0.7650175684810421  0.30206290589583756  1.0000
  H   H9        1.0  0.770132900742496  0.48356751364475775  0.1586581058529433  1.0000
  H   H10       1.0  0.7298668468059404  0.5164329649333439  0.6586587760627864  1.0000
  H   H11       1.0  0.2701309817861385  0.0164303129698453  0.8413398835175272  1.0000
  H   H12       1.0  0.2298673315778359  0.9835682354686952  0.3413412239372135  1.0000
  H   H13       1.0  0.682959291688789  0.44975050355509444  0.2651544498582509  1.0000
  H   H14       1.0  0.8170404558596545  0.5502490099532268  0.7651557902779371  1.0000
  H   H15       1.0  0.1829597764606845  0.0502463579897281  0.7348442097220624  1.0000
  H   H16       1.0  0.31704094063155  0.9497521904488195  0.23484420972206266  1.0000
  H   H17       1.0  0.5590699353375825  0.5023381208261739  0.1750909809861483  1.0000
  H   H18       1.0  0.9409286103467238  0.4976633228217082  0.6750909809861483  1.0000
  H   H19       1.0  0.0590692182453481  0.997658254226984  0.824907008384322  1.0000
  H   H20       1.0  0.4409290951186193  0.0023393291417833  0.3249090190138516  1.0000
  H   H21       1.0  0.6309317953792117  0.0500031604056801  0.09156339850007097  1.0000
  H   H22       1.0  0.8690619428485746  0.9499973181724215  0.5915573666114893  1.0000
  H   H23       1.0  0.1309334820152372  0.4499965963484769  0.9084359312900856  1.0000
  H   H24       1.0  0.3690636294846071  0.5500019520900707  0.4084426333885105  1.0000
  H   H25       1.0  0.643563387382116  0.8196414829836203  0.13546013256750908  1.0000
  H   H26       1.0  0.8564327545739374  0.18035996066426213  0.6354561113084498  1.0000
  H   H27       1.0  0.1435662758822716  0.6803587523486457  0.8645391972226475  1.0000
  H   H28       1.0  0.3564344412099629  0.3196407611596754  0.3645432184817067  1.0000
  H   H29       1.0  0.4066351040424294  0.6777549940876995  0.11466151051894258  1.0000
  H   H30       1.0  0.0933680167780651  0.32224451942062876  0.6146641913583153  1.0000
  H   H31       1.0  0.9066370229987868  0.8222442761747929  0.8853371490613708  1.0000
  H   H32       1.0  0.5933699357344295  0.17775909761264333  0.3853384894810574  1.0000
  H   H33       1.0  0.153689577446535  0.7673462818552679  0.0484447780600092  1.0000
  H   H34       1.0  0.3463111396456924  0.2326513015134992  0.5484461184796954  1.0000
  H   H35       1.0  0.6536926982670295  0.732653953476998  0.9515558921498339  1.0000
  H   H36       1.0  0.8463130586020569  0.2673532805895533  0.4515552219399908  1.0000
  H   H37       1.0  0.1424076788612609  0.9974497991549427  0.002348415288828699  1.0000
  H   H38       1.0  0.3575906345027135  0.0025487492836049  0.5023490854986716  1.0000
  H   H39       1.0  0.6424107996817552  0.5025514012471035  0.9976529251308575  1.0000
  H   H40       1.0  0.8575901497308109  0.4974558328194476  0.4976535953407008  1.0000
  H   H41       1.0  0.2598947049936768  0.51908690682275  0.06785003384559467  1.0000
  H   H42       1.0  0.2401048102344205  0.4809106765460243  0.5678486934259084  1.0000
  H   H43       1.0  0.7598966239500413  0.9809104333001814  0.9321492959445621  1.0000
  H   H44       1.0  0.740104325462525  0.019091010347693803  0.4321513065740916  1.0000
  H   H45       1.0  0.1256092239207689  0.6143286781403035  0.19998391496377366  1.0000
  H   H46       1.0  0.3743950987638485  0.3856679401586902  0.6999812341244007  1.0000
  H   H47       1.0  0.6256099410130034  0.8856686619826278  0.8000160850362263  1.0000
  H   H48       1.0  0.8743934121278227  0.11433181659547391  0.300018765875599  1.0000
  H   H49       1.0  0.0271561200100479  0.4728890165515764  0.3233239727358637  1.0000
  H   H50       1.0  0.4728470008104466  0.5271085668171906  0.8233206216866475  1.0000
  H   H51       1.0  0.5271556352381452  0.0271097751328071  0.6766760272641363  1.0000
  H   H52       1.0  0.9728465160385511  0.9728897383755211  0.17668004852319535  1.0000
  H   H53       1.0  0.076569561837573  0.23613906369106274  0.3165106194749541  1.0000
  H   H54       1.0  0.4234311552546615  0.7638585196777044  0.8165086088454315  1.0000
  H   H55       1.0  0.5765690770656775  0.2638587629235403  0.6834900507348818  1.0000
  H   H56       1.0  0.9234318723468959  0.7361397855150075  0.1834934017840979  1.0000
  H   H57       1.0  0.2161913196462493  0.14023525450582502  0.18575267916384763  1.0000
  H   H58       1.0  0.2838045899894652  0.8597613637931687  0.6857513387441612  1.0000
  H   H59       1.0  0.7161920367384766  0.35976257210878526  0.8142466506263089  1.0000
  H   H60       1.0  0.7838065089458297  0.6402388715390971  0.314250671885368  1.0000
  C   C1        1.0  0.6379614986736895  0.3032847585627323  0.1655987989839645  1.0000
  C   C2        1.0  0.8620370470106167  0.6967176501549233  0.6656008096134867  1.0000
  C   C3        1.0  0.1379595797173323  0.19671403312165134  0.8343985201766697  1.0000
  C   C4        1.0  0.36203873364664213  0.8032845153168964  0.3343998605963563  1.0000
  C   C5        1.0  0.6641597329723865  0.4431899592044958  0.19246885199756034  1.0000
  C   C6        1.0  0.835832803391277  0.5568114844433865  0.692468181787717  1.0000
  C   C7        1.0  0.164165025200802  0.0568078674101145  0.8075311480024395  1.0000
  C   C8        1.0  0.3358356918914325  0.9431916460982138  0.3075318182122827  1.0000
  C   C9        1.0  0.3859942894793633  0.039316942754283  0.043560288726396786  1.0000
  C   C10       1.0  0.1140028220204812  0.9606835358238187  0.543556937677188  1.0000
  C   C11       1.0  0.8859926028433307  0.4606837790696617  0.95643904106376  1.0000
  C   C12       1.0  0.6140059428409756  0.53931669950844  0.45644306232281195  1.0000
  C   C13       1.0  0.526499417423345  0.9880558099362347  0.08103038061216947  1.0000
  C   C14       1.0  0.9735015319892212  0.011942738502313  0.581025018933431  1.0000
  C   C15       1.0  0.026501104059370593  0.5119453904658117  0.9189676087583007  1.0000
  C   C16       1.0  0.4734972093046039  0.488060878530959  0.4189743108567327  1.0000
  C   C17       1.0  0.5338932855491194  0.8582384836835362  0.10589449556655947  1.0000
  C   C18       1.0  0.9661064619993239  0.14176006475501174  0.6058898040976642  1.0000
  C   C19       1.0  0.03389497218514489  0.6417588564393952  0.8941061746432835  1.0000
  C   C20       1.0  0.4661129560918695  0.3582377618595984  0.3941108661121788  1.0000
  C   C21       1.0  0.4001702768888933  0.7786279475596771  0.09427975899254187  1.0000
  C   C22       1.0  0.0998292383392041  0.22136963580909005  0.5942797589925418  1.0000
  C   C23       1.0  0.9001758014376477  0.7213742179121427  0.9057189005877715  1.0000
  C   C24       1.0  0.5998275517031786  0.2786330161544015  0.4057222516369875  1.0000
  C   C25       1.0  0.2587084650976905  0.8290412626209971  0.05799794915787969  1.0000
  C   C26       1.0  0.24128744453802403  0.170960181026885  0.5579992895775661  1.0000
  C   C27       1.0  0.758709182189925  0.6709589727112687  0.9420013806322771  1.0000
  C   C28       1.0  0.7412917672226484  0.329043436006387  0.442001380632277  1.0000
  C   C29       1.0  0.2520104763029991  0.9589126327812565  0.0323858800190351  1.0000
  C   C30       1.0  0.24798903892510543  0.0410839855177372  0.5323831991796624  1.0000
  C   C31       1.0  0.7520135971234936  0.5410895326905633  0.9676134497711215  1.0000
  C   C32       1.0  0.7479873522890728  0.4589215616550959  0.4676174710301808  1.0000
  C   C33       1.0  0.2481188402511094  0.32270678784427537  0.11730548834839988  1.0000
  C   C34       1.0  0.25187827124873496  0.6772927256640529  0.6173048181385565  1.0000
  C   C35       1.0  0.7481207592074666  0.17729296890988883  0.8826938414417567  1.0000
  C   C36       1.0  0.7518825939333595  0.8227094398077668  0.3826958520712864  1.0000
  C   C37       1.0  0.2212451583115396  0.4560089810651959  0.12239841294309167  1.0000
  C   C38       1.0  0.2787555587806949  0.5439866721640172  0.6223970725234054  1.0000
  C   C39       1.0  0.7212482791320269  0.0439888455494071  0.8776029274765944  1.0000
  C   C40       1.0  0.7787562758729294  0.956012598098475  0.3776035976864377  1.0000
  C   C41       1.0  0.1432622042574607  0.5102130902143642  0.19634132446869043  1.0000
  C   C42       1.0  0.3567397146988966  0.48978256301484896  0.6963393138391607  1.0000
  C   C43       1.0  0.6432617194855652  0.9897842499085671  0.80365666490178  1.0000
  C   C44       1.0  0.8567392299270011  0.0102181588090886  0.3036613563706822  1.0000
  C   C45       1.0  0.0891867314709174  0.4311227267008207  0.26581594697299943  1.0000
  C   C46       1.0  0.4108139856213171  0.5688748566679465  0.7658132661336268  1.0000
  C   C47       1.0  0.5891886504272816  0.0688750999137824  0.7341853934466869  1.0000
  C   C48       1.0  0.9108159045776745  0.9311244135945458  0.23418740407621635  1.0000
  C   C49       1.0  0.1156613945194351  0.2980067919470457  0.26149845516631126  1.0000
  C   C50       1.0  0.3843393225727922  0.7019907914217214  0.7614964445367818  1.0000
  C   C51       1.0  0.6156585060192796  0.2019910346675644  0.7385008746238454  1.0000
  C   C52       1.0  0.8843412415291566  0.7980084788407638  0.23850355546321814  1.0000
  C   C53       1.0  0.1951406694149611  0.24413852708061512  0.18784373387307335  1.0000
  C   C54       1.0  0.3048552402207534  0.7558580912183787  0.68784306366323  1.0000
  C   C55       1.0  0.6951437902354485  0.255859299533995  0.8121569363367698  1.0000
  C   C56       1.0  0.8048571591771178  0.7441411790441066  0.312157606546613  1.0000
  O   O1        1.0  0.6251616456926357  0.2881476390953567  0.0703264592143782  1.0000
  O   O2        1.0  0.8748356981275478  0.711854769622299  0.5703271294242214  1.0000
  O   O3        1.0  0.1251621304645312  0.21185115258902704  0.9296722003659352  1.0000
  O   O4        1.0  0.3748373847635733  0.7881483609193012  0.4296735407856218  1.0000
