data_image0
_chemical_formula_structural       Ba2H28C20N8O24
_chemical_formula_sum              "Ba2 H28 C20 N8 O24"
_cell_length_a       6.393136323671573
_cell_length_b       10.491394583721945
_cell_length_c       13.86827559245513
_cell_angle_alpha    93.01246206704423
_cell_angle_beta     103.30785861086041
_cell_angle_gamma    107.72546002604437

_space_group_name_H-M_alt    "P 1"
_space_group_IT_number       1

loop_
  _space_group_symop_operation_xyz
  'x, y, z'

loop_
  _atom_site_type_symbol
  _atom_site_label
  _atom_site_symmetry_multiplicity
  _atom_site_fract_x
  _atom_site_fract_y
  _atom_site_fract_z
  _atom_site_occupancy
  Ba  Ba1       1.0  0.46790961807177206  0.2500452588189219  0.2500623298847771  1.0000
  Ba  Ba2       1.0  0.5320928366052659  0.7499547304188355  0.7499385444907318  1.0000
  H   H1        1.0  0.2605984654555229  0.03328717395827141  0.027157830764991803  1.0000
  H   H2        1.0  0.29984296125699234  0.5331218270317566  0.5270009023321407  1.0000
  H   H3        1.0  0.7394017886669674  0.966708777329707  0.9728426787025626  1.0000
  H   H4        1.0  0.7001605281509384  0.4668801583075322  0.47299853452886953  1.0000
  H   H5        1.0  0.05540023943784434  0.29587911002853673  0.3373355284932842  1.0000
  H   H6        1.0  0.07769993189739922  0.7959729374476012  0.8373584798044078  1.0000
  H   H7        1.0  0.9446012744157317  0.7041218685068955  0.6626639979388572  1.0000
  H   H8        1.0  0.9223010973639135  0.20402705447374808  0.162642575369226  1.0000
  H   H9        1.0  0.16949590196355754  0.242345674388993  0.4309186564400633  1.0000
  H   H10       1.0  0.003462572388862402  0.7424018641622824  0.9309144207083904  1.0000
  H   H11       1.0  0.830508462721454  0.7576552987792625  0.5690805083958352  1.0000
  H   H12       1.0  0.9965386522148519  0.2575971283665055  0.06908726282343738  1.0000
  H   H13       1.0  0.7215284433357284  0.0107353738766065  0.1666121492647932  1.0000
  H   H14       1.0  0.956009729783993  0.5108224085836568  0.6665974907678844  1.0000
  H   H15       1.0  0.27847440202612017  0.9892626165760348  0.8333899818270966  1.0000
  H   H16       1.0  0.043993209485300555  0.48917856726819037  0.3334018548661319  1.0000
  H   H17       1.0  0.8755569751481859  0.09956128414695091  0.2740599904941305  1.0000
  H   H18       1.0  0.9981776470383608  0.5996354292190986  0.7740516348646409  1.0000
  H   H19       1.0  0.12444418390916212  0.9004376855084715  0.7259400730692107  1.0000
  H   H20       1.0  0.0018227665379483896  0.4003635303414442  0.2259477091135196  1.0000
  H   H21       1.0  0.33974734205303786  0.9975958946497204  0.4446518281220905  1.0000
  H   H22       1.0  0.60208234914262  0.49776848732385315  0.9444317657072503  1.0000
  H   H23       1.0  0.6602560831052245  0.002407135828846699  0.5553502203176919  1.0000
  H   H24       1.0  0.3979155387406906  0.5022284559453853  0.05556757661505432  1.0000
  H   H25       1.0  0.13692254728618997  0.6502793223226249  0.23232108139076502  1.0000
  H   H26       1.0  0.2453502596384851  0.1502456275308646  0.7322770644675742  1.0000
  H   H27       1.0  0.8630696043423498  0.34972270735872973  0.7676814218237099  1.0000
  H   H28       1.0  0.7546542990922377  0.8497532782321996  0.2677184971792528  1.0000
  C   C1        1.0  0.1769335743387687  0.8845742062588614  0.11735389196426381  1.0000
  C   C2        1.0  0.32510061096004234  0.38444305137116436  0.6172338587162755  1.0000
  C   C3        1.0  0.8230662248492352  0.11542478895351144  0.8826479723656817  1.0000
  C   C4        1.0  0.6749024581052936  0.6155569022147631  0.38276449530745543  1.0000
  C   C5        1.0  0.20288724156442572  0.870327122750531  0.22421116386410492  1.0000
  C   C6        1.0  0.39180228351238366  0.3702109270223133  0.7240572903802018  1.0000
  C   C7        1.0  0.7971149535205341  0.129674911019066  0.7757916937319962  1.0000
  C   C8        1.0  0.6082002354143157  0.6297880170761658  0.2759409724165351  1.0000
  C   C9        1.0  0.18346572141038567  0.7518506013652557  0.2695477615274768  1.0000
  C   C10       1.0  0.3377882081809602  0.2518170894613121  0.7694563831269718  1.0000
  C   C11       1.0  0.816531061261543  0.24815342914534  0.7304536621614304  1.0000
  C   C12       1.0  0.6622121398489683  0.7481818472258724  0.23054134088270933  1.0000
  C   C13       1.0  0.24177780175567426  0.7946027774370422  0.3716102610000079  1.0000
  C   C14       1.0  0.42422288834963245  0.29467237383849476  0.8715053785508573  1.0000
  C   C15       1.0  0.7582152548077302  0.20540227061176353  0.6283917963102538  1.0000
  C   C16       1.0  0.5757749339873116  0.7053245465573924  0.1284923438029608  1.0000
  C   C17       1.0  0.40602229292360215  0.22298073911802166  0.9602618227727292  1.0000
  C   C18       1.0  0.2767428164947532  0.7227915954215121  0.4603127544802916  1.0000
  C   C19       1.0  0.5939781206527003  0.7770182204425211  0.039737521205438525  1.0000
  C   C20       1.0  0.7232488492448185  0.2772083796331231  0.5396870459284173  1.0000
  N   N1        1.0  0.26646654530004116  0.9794006365425365  0.2935197349501876  1.0000
  N   N2        1.0  0.5066230848835148  0.479330412829519  0.7933112589601521  1.0000
  N   N3        1.0  0.7335358451273207  0.020600397834492398  0.7064837510041002  1.0000
  N   N4        1.0  0.4933807296628672  0.5206695508512951  0.2066878146487525  1.0000
  N   N5        1.0  0.2870473617753434  0.9313701288532884  0.3807805042298682  1.0000
  N   N6        1.0  0.5250682911218832  0.43140451417033904  0.8806119913363517  1.0000
  N   N7        1.0  0.7129474453422302  0.068632894853458  0.6192210090301699  1.0000
  N   N8        1.0  0.4749329977315071  0.5685934332191707  0.11938708061669703  1.0000
  O   O1        1.0  0.2356059914646238  0.011419906122029  0.0994306966105825  1.0000
  O   O2        1.0  0.37534664140945057  0.5112513248372679  0.5992659678505632  1.0000
  O   O3        1.0  0.7643972086934527  0.9885800932106149  0.9005708973501073  1.0000
  O   O4        1.0  0.6246548724441254  0.4887496536981644  0.4007335585815781  1.0000
  O   O5        1.0  0.11067323393961465  0.7827253342288287  0.05463372554970651  1.0000
  O   O6        1.0  0.22661975337732793  0.2825307225209528  0.5545240590490366  1.0000
  O   O7        1.0  0.8893272464797662  0.21727471621770178  0.9453714699441989  1.0000
  O   O8        1.0  0.7733831203455992  0.7174702304575363  0.44547366661650056  1.0000
  O   O9        1.0  0.46910296485114605  0.29241616179993474  0.04477222815621219  1.0000
  O   O10       1.0  0.3670615038929981  0.7921554488208785  0.5448739123955946  1.0000
  O   O11       1.0  0.5308973831787895  0.70758277488725  0.9552254958534689  1.0000
  O   O12       1.0  0.632930422735356  0.20784354971455343  0.4551281363397877  1.0000
  O   O13       1.0  0.31822716003613016  0.092953621545881  0.9420420915552014  1.0000
  O   O14       1.0  0.21672597276273114  0.5927898248437842  0.4419969749767603  1.0000
  O   O15       1.0  0.6817733833362141  0.9070443157487419  0.057956260812666506  1.0000
  O   O16       1.0  0.7832708445010894  0.4072091299890489  0.5580020110124693  1.0000
  O   O17       1.0  0.12637176886718043  0.22549168529364041  0.3566028789851927  1.0000
  O   O18       1.0  0.9556558828440916  0.7255448515406117  0.8566068077441785  1.0000
  O   O19       1.0  0.8736299403288045  0.7745082938492303  0.6433972758051354  1.0000
  O   O20       1.0  0.0443460216943024  0.2744541282097046  0.1433939754043436  1.0000
  O   O21       1.0  0.7420800890296134  0.08788409616298762  0.21703929674529834  1.0000
  O   O22       1.0  0.06303034609161536  0.5879295764838021  0.7170301459702344  1.0000
  O   O23       1.0  0.2579205198890973  0.9121138640049933  0.782960675591056  1.0000
  O   O24       1.0  0.9369704222809146  0.41207139195675074  0.2829686608767261  1.0000
