data_image0
_chemical_formula_structural       Cu2NiH32C26N6O14
_chemical_formula_sum              "Cu2 Ni1 H32 C26 N6 O14"
_cell_length_a       9.034477655801101
_cell_length_b       8.707024710963864
_cell_length_c       11.497775089221633
_cell_angle_alpha    77.6675390814309
_cell_angle_beta     80.46246765862644
_cell_angle_gamma    83.49722170507421

_space_group_name_H-M_alt    "P 1"
_space_group_IT_number       1

loop_
  _space_group_symop_operation_xyz
  'x, y, z'

loop_
  _atom_site_type_symbol
  _atom_site_label
  _atom_site_symmetry_multiplicity
  _atom_site_fract_x
  _atom_site_fract_y
  _atom_site_fract_z
  _atom_site_occupancy
  Cu  Cu1       1.0  0.8085370552186362  0.6242539613439461  0.286335312628168  1.0000
  Cu  Cu2       1.0  0.1913447732582796  0.3758259488628467  0.7138783943933903  1.0000
  Ni  Ni1       1.0  0.9999272923971743  2.570853085607839e-05  0.9999578819058641  1.0000
  H   H1        1.0  0.5070909389443159  0.06708080031367557  0.11925025484207911  1.0000
  H   H2        1.0  0.49281670202497463  0.9327685587305578  0.8806826866567549  1.0000
  H   H3        1.0  0.37848000351024064  0.014141528467874299  0.2511997408755775  1.0000
  H   H4        1.0  0.6214628821542475  0.9857152006962123  0.7487298517143445  1.0000
  H   H5        1.0  0.4675458192885386  0.508920870256695  0.21486688689125097  1.0000
  H   H6        1.0  0.5324528932740193  0.49104861689560403  0.785114402928329  1.0000
  H   H7        1.0  0.575288689091721  0.5767457994159882  0.07266739236435171  1.0000
  H   H8        1.0  0.4246448929148129  0.4232823052360003  0.9273323295054257  1.0000
  H   H9        1.0  0.9071672425044992  0.20798030516749577  0.33271468661528303  1.0000
  H   H10       1.0  0.09272550932018932  0.7920395861743825  0.6672248925015013  1.0000
  H   H11       1.0  0.993118262846863  0.28173807883281643  0.18480597543376118  1.0000
  H   H12       1.0  0.006784377675735686  0.7182373968647369  0.8151571069826032  1.0000
  H   H13       1.0  0.15372627156393998  0.3275351812352482  0.3491499284780772  1.0000
  H   H14       1.0  0.8464678884760486  0.6724412628220049  0.6509191064408596  1.0000
  H   H15       1.0  0.3313790609229557  0.4172609026287332  0.4295543222612395  1.0000
  H   H16       1.0  0.6687043858351843  0.5826850138850046  0.5704566601147861  1.0000
  H   H17       1.0  0.446495098612182  0.6254392967676736  0.4958118284196544  1.0000
  H   H18       1.0  0.5536592990129847  0.3744063041649923  0.504224316793696  1.0000
  H   H19       1.0  0.3132046782283169  0.8938656532728115  0.48319091948227577  1.0000
  H   H20       1.0  0.6870341538970947  0.10606279105040527  0.5168544311897989  1.0000
  H   H21       1.0  0.06569751077283568  0.9518564991740844  0.4078526148219908  1.0000
  H   H22       1.0  0.9344975381577711  0.048088288928426  0.5921828141755867  1.0000
  H   H23       1.0  0.36290934363319843  0.7987582417431581  0.10454579330575348  1.0000
  H   H24       1.0  0.6369008777049814  0.20125320429848154  0.8952405784805038  1.0000
  H   H25       1.0  0.1890767705546281  0.9061892203438615  0.8229242225699593  1.0000
  H   H26       1.0  0.8109681866786357  0.09379002456690698  0.1771465836261612  1.0000
  H   H27       1.0  0.10323360528487062  0.0724215164426596  0.7624787736118748  1.0000
  H   H28       1.0  0.8968501048815725  0.9275824196737827  0.23757842899665602  1.0000
  H   H29       1.0  0.011887369679762115  0.305852465638388  0.8882937727878399  1.0000
  H   H30       1.0  0.9880360947935358  0.6940987455710893  0.11174012714578646  1.0000
  H   H31       1.0  0.09831573791520748  0.2549346627512605  0.004145607706739398  1.0000
  H   H32       1.0  0.9016583280742978  0.7450143291423643  0.9958767989568358  1.0000
  C   C1        1.0  0.2737128626927684  0.06956294291298798  0.0906816061263527  1.0000
  C   C2        1.0  0.7261647325033139  0.9305145240898084  0.9092508120844656  1.0000
  C   C3        1.0  0.40761896012175913  0.0009159514202182011  0.15682591812929295  1.0000
  C   C4        1.0  0.5922199670109051  0.9990337977786506  0.8430815089680621  1.0000
  C   C5        1.0  0.5478456831559484  0.7394333428229557  0.1928822532817023  1.0000
  C   C6        1.0  0.4519131946987116  0.26059549403792903  0.8070947360160616  1.0000
  C   C7        1.0  0.5676604608213225  0.5718039229893961  0.1702044814606579  1.0000
  C   C8        1.0  0.4322914604306831  0.4282536429443196  0.8297924211626012  1.0000
  C   C9        1.0  0.755889567287383  0.35093590936114777  0.217582296175415  1.0000
  C   C10       1.0  0.2441204093558795  0.6492357047731329  0.7824378040143005  1.0000
  C   C11       1.0  0.9106593094507287  0.31250173456967184  0.2596040424412038  1.0000
  C   C12       1.0  0.08933737602136202  0.6875788701799903  0.7403848017339243  1.0000
  C   C13       1.0  0.08062600850801259  0.4383042633863639  0.3424805913796547  1.0000
  C   C14       1.0  0.9195123730683932  0.5616669389561081  0.6575290519390222  1.0000
  C   C15       1.0  0.1344225049522692  0.5651908851483255  0.38176896575817665  1.0000
  C   C16       1.0  0.8657203177080817  0.43479708770311726  0.6182234243119425  1.0000
  C   C17       1.0  0.2743715167764833  0.535468041268814  0.42568531028960876  1.0000
  C   C18       1.0  0.7257743472316421  0.4644991583200308  0.5743013826047375  1.0000
  C   C19       1.0  0.33875083825263624  0.6506044892162635  0.4624722264939222  1.0000
  C   C20       1.0  0.6614257122407422  0.34932231253485196  0.5375313901293098  1.0000
  C   C21       1.0  0.2632414433473471  0.8018407915412096  0.45501178416492394  1.0000
  C   C22       1.0  0.7369870466303964  0.19811074240565313  0.5449997762871917  1.0000
  C   C23       1.0  0.12502776958935874  0.8348092553062256  0.4139709280765232  1.0000
  C   C24       1.0  0.8752005112346523  0.16515393498322337  0.586036480343914  1.0000
  C   C25       1.0  0.05464343265495589  0.7182689307329682  0.378332635116557  1.0000
  C   C26       1.0  0.9455178174580892  0.2817184956763298  0.6216998160186904  1.0000
  N   N1        1.0  0.43744357762069086  0.8357233376362102  0.14902747518845422  1.0000
  N   N2        1.0  0.5623426939557489  0.16424518225703363  0.8508185516868423  1.0000
  N   N3        1.0  0.7038917144859481  0.5003568043291294  0.21537951710764972  1.0000
  N   N4        1.0  0.2961054568403795  0.4998330412482374  0.7846500221040245  1.0000
  N   N5        1.0  0.956049598011951  0.4458589102125713  0.2992501792299578  1.0000
  N   N6        1.0  0.0440678238475485  0.5541630253547892  0.7007598372976531  1.0000
  O   O1        1.0  0.09373997973965227  0.9788104800398044  0.8283015573151219  1.0000
  O   O2        1.0  0.9062047643791545  0.021091913966763794  0.17168357590301744  1.0000
  O   O3        1.0  0.000203757716661805  0.250757149708022  0.9721485999191019  1.0000
  O   O4        1.0  0.9997438826189509  0.7491891084790507  0.02788444956417636  1.0000
  O   O5        1.0  0.2089467443463491  0.9686024810642591  0.055158810738824164  1.0000
  O   O6        1.0  0.7908989213963692  0.031549986264153076  0.9447260907748499  1.0000
  O   O7        1.0  0.23879593039767136  0.2163673674592417  0.07755763653813831  1.0000
  O   O8        1.0  0.7611364450140242  0.7837244991805007  0.922401024393146  1.0000
  O   O9        1.0  0.6365273357596734  0.7859404973932625  0.251153017799858  1.0000
  O   O10       1.0  0.3630514500896709  0.21414174835836516  0.7489575190710482  1.0000
  O   O11       1.0  0.6906447728210877  0.24762159602842357  0.1878198440910737  1.0000
  O   O12       1.0  0.30935775668100257  0.7525525503255038  0.8122200221843485  1.0000
  O   O13       1.0  0.9199926146602307  0.7569365253662637  0.3452056927795226  1.0000
  O   O14       1.0  0.08009557169415868  0.24307615718720396  0.654937921753934  1.0000
