data_image0
_chemical_formula_structural       CuH16C26S2N4O4F6
_chemical_formula_sum              "Cu1 H16 C26 S2 N4 O4 F6"
_cell_length_a       8.440795873079598
_cell_length_b       9.141861045846492
_cell_length_c       9.522434435810178
_cell_angle_alpha    113.42216517817153
_cell_angle_beta     100.89196066279797
_cell_angle_gamma    90.55254515638448

_space_group_name_H-M_alt    "P 1"
_space_group_IT_number       1

loop_
  _space_group_symop_operation_xyz
  'x, y, z'

loop_
  _atom_site_type_symbol
  _atom_site_label
  _atom_site_symmetry_multiplicity
  _atom_site_fract_x
  _atom_site_fract_y
  _atom_site_fract_z
  _atom_site_occupancy
  Cu  Cu1       1.0  3.6178793290053454e-07  9.85827753700583e-07  0.5000054266015184  1.0000
  H   H1        1.0  0.9880128073717526  0.506183892631185  0.7717910337838846  1.0000
  H   H2        1.0  0.011994309556001805  0.4938202081387501  0.2282033496649447  1.0000
  H   H3        1.0  0.8269589642705738  0.6492825961040365  0.6844273547724029  1.0000
  H   H4        1.0  0.17304742124596123  0.3507130680797843  0.31556993077537504  1.0000
  H   H5        1.0  0.6086172517737509  0.7425275772493334  0.5097635355509668  1.0000
  H   H6        1.0  0.39138542213902383  0.2574668239447106  0.49023789984912725  1.0000
  H   H7        1.0  0.6334169186930508  0.11957753913794988  0.5578880189397142  1.0000
  H   H8        1.0  0.366586174622654  0.8804216790252894  0.44211220690804265  1.0000
  H   H9        1.0  0.4326443715432049  0.12502424903866677  0.7272877136776261  1.0000
  H   H10       1.0  0.5673550904284496  0.8749749769806029  0.2727087676048967  1.0000
  H   H11       1.0  0.7950555371944431  0.9496184074754979  0.9898087157481967  1.0000
  H   H12       1.0  0.2049345068603401  0.05038309639738261  0.010194453662748492  1.0000
  H   H13       1.0  0.9793071929075124  0.9487141868547723  0.8073410251901266  1.0000
  H   H14       1.0  0.020688899995477097  0.05128731311141619  0.19266733798640703  1.0000
  H   H15       1.0  0.49746551053294746  0.506093392418471  0.23114651313566978  1.0000
  H   H16       1.0  0.5025339616143043  0.493905806040722  0.7688531096762861  1.0000
  C   C1        1.0  0.20630720402548514  0.38948876569180874  0.9270179914200015  1.0000
  C   C2        1.0  0.7936954238208855  0.6105188549294525  0.07298227284631055  1.0000
  C   C3        1.0  0.1132457739372725  0.3017739312122032  0.7563814321314555  1.0000
  C   C4        1.0  0.8867512942732816  0.6982252265508889  0.24362093018606862  1.0000
  C   C5        1.0  0.0002459537072780911  0.38306996437067636  0.6973836328302172  1.0000
  C   C6        1.0  0.9997535184399736  0.6169292340885165  0.3026159899817389  1.0000
  C   C7        1.0  0.902825542430669  0.3148067412076969  0.5439159878705767  1.0000
  C   C8        1.0  0.09717602503685897  0.6851888691439993  0.45608363515890465  1.0000
  C   C9        1.0  0.7938467462266272  0.4133570242599234  0.49022449950633273  1.0000
  C   C10       1.0  0.20615711099924275  0.5866374478089682  0.5097698066703487  1.0000
  C   C11       1.0  0.7653078130851724  0.5723953174202306  0.5658281326958703  1.0000
  C   C12       1.0  0.234694847260144  0.42759912052058263  0.43416911399831554  1.0000
  C   C13       1.0  0.6476830926707605  0.6224530258229352  0.4719763653914841  1.0000
  C   C14       1.0  0.35231968185291856  0.37754259109676985  0.5280234586499264  1.0000
  C   C15       1.0  0.58803132542139  0.5014345712786435  0.32636797742953405  1.0000
  C   C16       1.0  0.4119716503240837  0.49856347709238946  0.6736286238945156  1.0000
  C   C17       1.0  0.6643261826953548  0.08277739482875292  0.6549125342794186  1.0000
  C   C18       1.0  0.3356757035641991  0.9172218167664707  0.3450874905564092  1.0000
  C   C19       1.0  0.5538119671618064  0.0871496096441433  0.7479667096280523  1.0000
  C   C20       1.0  0.4461850874812824  0.9128495848657181  0.2520314639835632  1.0000
  C   C21       1.0  0.6014910571004819  0.0375691283042272  0.8698554001588336  1.0000
  C   C22       1.0  0.3985047904864559  0.9624300596376189  0.1301425724408461  1.0000
  C   C23       1.0  0.7569679301288375  0.9876156814961022  0.8948081094610175  1.0000
  C   C24       1.0  0.24302693875867473  0.012385857835525397  0.10519481682118231  1.0000
  C   C25       1.0  0.8576195077401109  0.9881036325680628  0.7950689530198292  1.0000
  C   C26       1.0  0.142376682381915  0.0118990923104789  0.20493675162153835  1.0000
  S   S1        1.0  0.6744805324132841  0.3275858330004978  0.3035011829025009  1.0000
  S   S2        1.0  0.32551993539271945  0.6724109681354661  0.6964987221093184  1.0000
  N   N1        1.0  0.8130274427069325  0.03442249713133089  0.6769087317215539  1.0000
  N   N2        1.0  0.18697204300777767  0.9655766645811066  0.3230950797963174  1.0000
  N   N3        1.0  0.4901860544840062  0.047671769071250494  0.9666659188645996  1.0000
  N   N4        1.0  0.5098085826549194  0.9523274214892722  0.03333080554666157  1.0000
  O   O1        1.0  0.9011378058061226  0.1690041771663857  0.4456858611932618  1.0000
  O   O2        1.0  0.0988574245479512  0.8309877531682516  0.5543175908525981  1.0000
  O   O3        1.0  0.1504586115371538  0.15838754095273797  0.6915581946546965  1.0000
  O   O4        1.0  0.849534745069647  0.8416103538205773  0.3084483175151433  1.0000
  F   F1        1.0  0.18701882158710245  0.5486521562655966  0.9925214795674153  1.0000
  F   F2        1.0  0.8129849726130446  0.4513555811639732  0.007466419593086502  1.0000
  F   F3        1.0  0.15445713516326975  0.3226440697688772  0.018767775601858664  1.0000
  F   F4        1.0  0.8455510828457092  0.6773719310303291  0.9812398152015335  1.0000
  F   F5        1.0  0.3684630073534193  0.375904208436161  0.941615301107369  1.0000
  F   F6        1.0  0.6315385106558367  0.6241046305294448  0.05838210361184789  1.0000
