data_image0
_chemical_formula_structural       Cd4H28C32I8N20
_chemical_formula_sum              "Cd4 H28 C32 I8 N20"
_cell_length_a       6.185869644014358
_cell_length_b       11.477993302027173
_cell_length_c       19.34991735200592
_cell_angle_alpha    90.00006880879468
_cell_angle_beta     90.00005932917996
_cell_angle_gamma    90.00023942275882

_space_group_name_H-M_alt    "P 1"
_space_group_IT_number       1

loop_
  _space_group_symop_operation_xyz
  'x, y, z'

loop_
  _atom_site_type_symbol
  _atom_site_label
  _atom_site_symmetry_multiplicity
  _atom_site_fract_x
  _atom_site_fract_y
  _atom_site_fract_z
  _atom_site_occupancy
  Cd  Cd1       1.0  0.5595356489290139  0.04198567681086019  0.35853962409600376  1.0000
  Cd  Cd2       1.0  0.9404597677450537  0.9580160612370251  0.8585395719845579  1.0000
  Cd  Cd3       1.0  0.44045777831907873  0.5419864904104017  0.1414608227089573  1.0000
  Cd  Cd4       1.0  0.059538496724591994  0.45801369033495115  0.641460280539242  1.0000
  H   H1        1.0  0.9449090221489128  0.9551385195212487  0.1149467315503543  1.0000
  H   H2        1.0  0.5550936911932708  0.04485576564818671  0.6149458875263178  1.0000
  H   H3        1.0  0.0550989223353895  0.4551444627234176  0.3850555660282424  1.0000
  H   H4        1.0  0.44490945506992563  0.5448570722967644  0.8850536646190649  1.0000
  H   H5        1.0  0.6684241316314965  0.9373094004660845  0.208704185546928  1.0000
  H   H6        1.0  0.8315756511570382  0.0626850706151814  0.7087044799286204  1.0000
  H   H7        1.0  0.33157397517252457  0.4373122959265032  0.2912960318743103  1.0000
  H   H8        1.0  0.168427633256826  0.5626890531683626  0.7912945683821562  1.0000
  H   H9        1.0  0.9641470505804293  0.1973172582242597  0.3249551081957591  1.0000
  H   H10       1.0  0.5358450245203059  0.8026844132255705  0.8249563591359816  1.0000
  H   H11       1.0  0.0358459635662456  0.6973128703825181  0.1750454515381961  1.0000
  H   H12       1.0  0.46415041986377037  0.3026838920285471  0.6750444140531614  1.0000
  H   H13       1.0  0.2543244229780299  0.22366940989114428  0.2371845991484278  1.0000
  H   H14       1.0  0.24566892786572225  0.7763327031301657  0.7371853838347135  1.0000
  H   H15       1.0  0.7456720285292063  0.7236676670576754  0.2628154629478345  1.0000
  H   H16       1.0  0.7543295455140536  0.2763312674839327  0.7628133030037816  1.0000
  H   H17       1.0  0.41195428426399144  0.17596950439670422  0.1286999069033854  1.0000
  H   H18       1.0  0.088045182765363  0.8240306510475577  0.6286986067127245  1.0000
  H   H19       1.0  0.5880498806143492  0.6759702351361696  0.3713011541118759  1.0000
  H   H20       1.0  0.9119552767586185  0.3240280432961243  0.8712990812074395  1.0000
  H   H21       1.0  0.5798079264639211  0.24394751661223776  0.0406396350498213  1.0000
  H   H22       1.0  0.9201880807109502  0.7560527198308687  0.5406383957747494  1.0000
  H   H23       1.0  0.42019191535762695  0.743950657371208  0.4593640593781174  1.0000
  H   H24       1.0  0.0798118521272784  0.2560510249905974  0.9593607931177816  1.0000
  H   H25       1.0  0.45155515310325  0.9065632378264465  0.9605621300569993  1.0000
  H   H26       1.0  0.04844538507553859  0.09343757567830117  0.4605622158909242  1.0000
  H   H27       1.0  0.5484459459029765  0.40656525140048666  0.5394376850610385  1.0000
  H   H28       1.0  0.9515613735125468  0.5934358539067403  0.0394387851205593  1.0000
  C   C1        1.0  0.9525179488236261  0.011006640433215899  0.16039567933827212  1.0000
  C   C2        1.0  0.5474816780538061  0.9889912197855112  0.6603960359990637  1.0000
  C   C3        1.0  0.04748493793815099  0.5110104462129215  0.3396057785427615  1.0000
  C   C4        1.0  0.4525232927753606  0.4889927411478893  0.8396033222491042  1.0000
  C   C5        1.0  0.7996405394409007  0.0007782509910754002  0.2124000067160026  1.0000
  C   C6        1.0  0.7003592552835298  0.9992179698837232  0.712400421598133  1.0000
  C   C7        1.0  0.2003590348896935  0.5007805557214198  0.2876009269294997  1.0000
  C   C8        1.0  0.2996425616096373  0.4992199148138851  0.7875994608829089  1.0000
  C   C9        1.0  0.9646673138524161  0.14523145241384577  0.27777142528431403  1.0000
  C   C10       1.0  0.5353278421184412  0.8547675117799898  0.7777721971211874  1.0000
  C   C11       1.0  0.0353236801572834  0.6452297706562645  0.22222909658226803  1.0000
  C   C12       1.0  0.4646712389826105  0.3547679565472491  0.7222280971368988  1.0000
  C   C13       1.0  0.12581515065976837  0.16026705876315359  0.2284465329373333  1.0000
  C   C14       1.0  0.37418140513953085  0.8397315520036629  0.7284458560146733  1.0000
  C   C15       1.0  0.8741824261942454  0.6602647516482988  0.271554516659549  1.0000
  C   C16       1.0  0.6258191760491982  0.33973245775737126  0.7715523601199195  1.0000
  C   C17       1.0  0.11972349036414438  0.09289545950370132  0.1681428906920743  1.0000
  C   C18       1.0  0.3802761039699689  0.9071030316895017  0.668142781572854  1.0000
  C   C19       1.0  0.880276797689298  0.5928976418609223  0.33185862672369376  1.0000
  C   C20       1.0  0.6197266157972192  0.4071031720545688  0.8318560003410767  1.0000
  C   C21       1.0  0.28942151945025774  0.10954223791038226  0.1168403802245308  1.0000
  C   C22       1.0  0.21057790930295536  0.8904587652492921  0.6168386522359341  1.0000
  C   C23       1.0  0.7105805141643629  0.6095423970861518  0.3831626996877446  1.0000
  C   C24       1.0  0.7894262980857931  0.39045764733189253  0.8831590839807362  1.0000
  C   C25       1.0  0.5972069020478585  0.1643717501174677  0.010774365172793  1.0000
  C   C26       1.0  0.9027906253214508  0.8356284271083466  0.5107747283663642  1.0000
  C   C27       1.0  0.40278909003358615  0.6643731684115365  0.4892251370151969  1.0000
  C   C28       1.0  0.09721154066092909  0.3356277019302283  0.9892255519770856  1.0000
  C   C29       1.0  0.5287491647107884  0.9905762759976185  0.9685570396080365  1.0000
  C   C30       1.0  0.9712498402371279  0.009424808978373299  0.4685572048168964  1.0000
  C   C31       1.0  0.47124935204853796  0.4905772285111283  0.5314433533873881  1.0000
  C   C32       1.0  0.0287546508309333  0.5094227340864351  0.031442701518003  1.0000
  I   I1        1.0  0.4136346556429871  0.24968911564064197  0.40834402245745594  1.0000
  I   I2        1.0  0.0863657139948444  0.7503124655513461  0.9083437017089154  1.0000
  I   I3        1.0  0.5863636140518763  0.7496875456067472  0.091655541758243  1.0000
  I   I4        1.0  0.913634174369079  0.2503110495353909  0.5916554830103635  1.0000
  I   I5        1.0  0.30071985461242423  0.8603383257626688  0.3208301568012502  1.0000
  I   I6        1.0  0.1992737662172246  0.13966482435479577  0.820831496793275  1.0000
  I   I7        1.0  0.6992647231009315  0.3603366001714007  0.1791689710595108  1.0000
  I   I8        1.0  0.800734964391644  0.6396673958987265  0.6791676074846009  1.0000
  N   N1        1.0  0.8046409954134646  0.0673099782198534  0.2699418795726629  1.0000
  N   N2        1.0  0.6953557518696127  0.9326880992175434  0.7699422444231557  1.0000
  N   N3        1.0  0.19535586122054835  0.567310415111045  0.2300585856443007  1.0000
  N   N4        1.0  0.3046439329574183  0.4326881988561979  0.7300581064856217  1.0000
  N   N5        1.0  0.2928709848685429  0.046743753428096106  0.0615786232265094  1.0000
  N   N6        1.0  0.20712988210465258  0.9532562689229351  0.5615790069406614  1.0000
  N   N7        1.0  0.707128945604154  0.5467466281025394  0.4384223438376296  1.0000
  N   N8        1.0  0.7928764284268937  0.45325526835502933  0.9384192917302343  1.0000
  N   N9        1.0  0.4615813123979463  0.06922866589342648  0.016989321685279904  1.0000
  N   N10       1.0  0.0384177940723518  0.9307730105021434  0.5169885994111567  1.0000
  N   N11       1.0  0.5384187922770278  0.5692286350654001  0.4830121785231398  1.0000
  N   N12       1.0  0.9615867256710047  0.43077160734684133  0.9830101997113302  1.0000
  N   N13       1.0  0.7394405846996221  0.14458890725754256  0.9617856787216112  1.0000
  N   N14       1.0  0.760556781807473  0.8554130355214583  0.4617853554026254  1.0000
  N   N15       1.0  0.2605584845254612  0.6445882394495469  0.5382149795276661  1.0000
  N   N16       1.0  0.23944069044706848  0.35541173656964287  0.0382137688795936  1.0000
  N   N17       1.0  0.6971954498007235  0.03442497818145541  0.9359808702779587  1.0000
  N   N18       1.0  0.8028018334166942  0.9655769134285419  0.4359806410853295  1.0000
  N   N19       1.0  0.302804382467734  0.5344253279837118  0.5640197078791687  1.0000
  N   N20       1.0  0.1971997255588676  0.46557469921097555  0.0640195968859913  1.0000
