data_image0
_chemical_formula_structural       Cd2H32C24N8O12
_chemical_formula_sum              "Cd2 H32 C24 N8 O12"
_cell_length_a       8.429348488030186
_cell_length_b       8.667371041552608
_cell_length_c       11.271634433310599
_cell_angle_alpha    102.85353475135769
_cell_angle_beta     90.00027008017508
_cell_angle_gamma    90.00008413101779

_space_group_name_H-M_alt    "P 1"
_space_group_IT_number       1

loop_
  _space_group_symop_operation_xyz
  'x, y, z'

loop_
  _atom_site_type_symbol
  _atom_site_label
  _atom_site_symmetry_multiplicity
  _atom_site_fract_x
  _atom_site_fract_y
  _atom_site_fract_z
  _atom_site_occupancy
  Cd  Cd1       1.0  0.4999998944211016  1.127567834699923e-06  0.5000011795073505  1.0000
  Cd  Cd2       1.0  0.9999969963290313  0.5000006825353862  2.3782374826646318e-07  1.0000
  H   H1        1.0  0.48796987937352293  0.1843005675837972  0.2619735556559775  1.0000
  H   H2        1.0  0.9879646535140908  0.31570714164092795  0.23803147374058398  1.0000
  H   H3        1.0  0.5120318476920075  0.8157016691896288  0.7380273071331088  1.0000
  H   H4        1.0  0.012028769239222501  0.6842939248415049  0.7619718536508344  1.0000
  H   H5        1.0  0.3133112868754253  0.4607618442027429  0.2659123914050951  1.0000
  H   H6        1.0  0.813309179294954  0.0392406728396253  0.234089376167617  1.0000
  H   H7        1.0  0.6866880675216366  0.5392380213986171  0.7340871851437497  1.0000
  H   H8        1.0  0.18669017510188013  0.9607568303379848  0.7659106899951026  1.0000
  H   H9        1.0  0.3205038699384559  0.36322656968261663  0.6181419013792819  1.0000
  H   H10       1.0  0.8205087770930461  0.1367757454656697  0.8818591930838052  1.0000
  H   H11       1.0  0.6794990434527435  0.6367756583470694  0.3818571855627226  1.0000
  H   H12       1.0  0.17949413629770564  0.8632217577165164  0.1181408730859417  1.0000
  H   H13       1.0  0.17117452969968378  0.6009956292163281  0.5973490274271569  1.0000
  H   H14       1.0  0.6711787766243306  0.8990098331502806  0.9026505788844189  1.0000
  H   H15       1.0  0.8288271973645537  0.39900778658265784  0.402651146592639  1.0000
  H   H16       1.0  0.3288300684157974  0.10098647789609319  0.0973475122921812  1.0000
  H   H17       1.0  0.09084874816119282  0.5952160499224701  0.4487595450553528  1.0000
  H   H18       1.0  0.5908507769151115  0.9047858714162942  0.0512389603353967  1.0000
  H   H19       1.0  0.9091553515641306  0.4047861824813808  0.5512404298137027  1.0000
  H   H20       1.0  0.40915569545502717  0.09520688505982379  0.9487576454455463  1.0000
  H   H21       1.0  0.2709008522388742  0.6996685833610738  0.49628269414354514  1.0000
  H   H22       1.0  0.7709024227718474  0.800332622691343  0.003717210662088614  1.0000
  H   H23       1.0  0.7291020611508047  0.30033246127042185  0.5037161936430293  1.0000
  H   H24       1.0  0.22910404961282177  0.1996648804954333  0.9962828555146787  1.0000
  H   H25       1.0  0.4763003843224852  0.7825659017015454  0.2607653089436752  1.0000
  H   H26       1.0  0.9762985773243642  0.7174334709470784  0.2392358961592791  1.0000
  H   H27       1.0  0.52370015640588  0.21743396390134248  0.7392342676075145  1.0000
  H   H28       1.0  0.0236984044172388  0.282567586794677  0.7607656553897328  1.0000
  H   H29       1.0  0.3022527218586503  0.8551881736404567  0.3034225878516708  1.0000
  H   H30       1.0  0.802251721666714  0.644811934132548  0.1965781294606828  1.0000
  H   H31       1.0  0.6977478188740492  0.14481287973325144  0.6965780757796551  1.0000
  H   H32       1.0  0.19774644640055777  0.35518911486546767  0.8034216462412402  1.0000
  C   C1        1.0  0.4268219122236303  0.26268243100012956  0.33606283703603873  1.0000
  C   C2        1.0  0.9268172853243045  0.23732039151334308  0.1639420423202154  1.0000
  C   C3        1.0  0.5731810011617214  0.737317425860553  0.6639349636704068  1.0000
  C   C4        1.0  0.07317495109747801  0.7626783125438122  0.836061774682733  1.0000
  C   C5        1.0  0.3424845385121388  0.3987357206804133  0.3369658397070552  1.0000
  C   C6        1.0  0.8424844466228547  0.10126807239149829  0.1630397938676325  1.0000
  C   C7        1.0  0.6575171885618474  0.6012665292109033  0.6630376868561711  1.0000
  C   C8        1.0  0.1575160941137383  0.8987294439055233  0.8369629360715649  1.0000
  C   C9        1.0  0.34302605333126485  0.3491156096465602  0.5216151631779127  1.0000
  C   C10       1.0  0.8430292207345006  0.15088796002340388  0.9783888831039677  1.0000
  C   C11       1.0  0.6569756737373069  0.6508889939232462  0.4783860979220194  1.0000
  C   C12       1.0  0.1569713200020928  0.8491095562736247  0.021613846835236893  1.0000
  C   C13       1.0  0.19997122910553602  0.5955367168941875  0.5018418662441774  1.0000
  C   C14       1.0  0.6999737167953483  0.904465273816612  0.9981581441798894  1.0000
  C   C15       1.0  0.80003049795436  0.40446551113397783  0.4981572206954823  1.0000
  C   C16       1.0  0.3000315692506347  0.0955286748014288  0.0018404366035583036  1.0000
  C   C17       1.0  0.11212426126817829  0.0046295462634517994  0.5407685696589652  1.0000
  C   C18       1.0  0.6121195210086796  0.49537342431612075  0.9592336773377781  1.0000
  C   C19       1.0  0.8878739068145336  0.995385699140229  0.45923270798330407  1.0000
  C   C20       1.0  0.3878750880479486  0.5046146072972206  0.04076390764749503  1.0000
  C   C21       1.0  0.9523281608995762  0.06335696514005208  0.5819081250720401  1.0000
  C   C22       1.0  0.45232882390853757  0.4366492309769682  0.9180923112959647  1.0000
  C   C23       1.0  0.047668820842702096  0.9366511798729461  0.41809195763536167  1.0000
  C   C24       1.0  0.5476645988174552  0.5633458879060952  0.08190380484535349  1.0000
  N   N1        1.0  0.4261531646780483  0.23290053256629048  0.4514831425687902  1.0000
  N   N2        1.0  0.9261525964822184  0.2671046506537421  0.04852124454212259  1.0000
  N   N3        1.0  0.57384974872312  0.7671028919794837  0.5485188073027771  1.0000
  N   N4        1.0  0.0738420125995845  0.732896411457588  0.9514811949269202  1.0000
  N   N5        1.0  0.2903884006586068  0.45172366271288666  0.4554066110876249  1.0000
  N   N6        1.0  0.790389851176009  0.048278777803652397  0.0445915143190661  1.0000
  N   N7        1.0  0.7096145127269651  0.5482785565715388  0.5445907000049459  1.0000
  N   N8        1.0  0.20961068953934608  0.9517175244867674  0.9554048009917224  1.0000
  O   O1        1.0  0.24492472912395866  0.009711588548597699  0.5928397028875025  1.0000
  O   O2        1.0  0.7449255828919803  0.4902881520195664  0.9071580311797689  1.0000
  O   O3        1.0  0.7550710662896093  0.9902941984117604  0.4071617573561426  1.0000
  O   O4        1.0  0.2550702125009678  0.5097081546373727  0.09283917204636788  1.0000
  O   O5        1.0  0.8967595902554777  0.14245294823000879  0.6811948759790383  1.0000
  O   O6        1.0  0.39675594614022464  0.3575483580491436  0.8188018806613897  1.0000
  O   O7        1.0  0.10323857782221782  0.8575540221315947  0.318806783424705  1.0000
  O   O8        1.0  0.6032410355781722  0.6424455774403126  0.1811940363315259  1.0000
  O   O9        1.0  0.417683953577054  0.8802880191912336  0.30040741113030117  1.0000
  O   O10       1.0  0.9176817484130453  0.6197111981125473  0.19959267469433678  1.0000
  O   O11       1.0  0.5823189598152184  0.11971066738914969  0.6995928541948615  1.0000
  O   O12       1.0  0.08231641965834059  0.38028867623254564  0.8004086777015971  1.0000
