data_image0
_chemical_formula_structural       Zn2H56C36N8O8
_chemical_formula_sum              "Zn2 H56 C36 N8 O8"
_cell_length_a       8.885234039662707
_cell_length_b       11.42731710805016
_cell_length_c       11.5095
_cell_angle_alpha    89.52138463607264
_cell_angle_beta     69.42678440957637
_cell_angle_gamma    69.61447144082668

_space_group_name_H-M_alt    "P 1"
_space_group_IT_number       1

loop_
  _space_group_symop_operation_xyz
  'x, y, z'

loop_
  _atom_site_type_symbol
  _atom_site_label
  _atom_site_symmetry_multiplicity
  _atom_site_fract_x
  _atom_site_fract_y
  _atom_site_fract_z
  _atom_site_occupancy
  Zn  Zn1       1.0  0.5000006874379821  0.0  0.5000003782620936  1.0000
  Zn  Zn2       1.0  8.24082185610325e-07  0.5000000611537061  0.9999990808571084  1.0000
  H   H1        1.0  0.49357847526511733  0.2103941775747202  0.5740538759299555  1.0000
  H   H2        1.0  0.006382890669556177  0.4254650367184993  0.7910628146520012  1.0000
  H   H3        1.0  0.5064233456453237  0.7896059447326992  0.4259453684232852  1.0000
  H   H4        1.0  0.9936189302408851  0.57453508558892  0.20893642970123946  1.0000
  H   H5        1.0  0.8283037804428872  0.8883698894047782  0.3485017656747615  1.0000
  H   H6        1.0  0.6717633142859044  0.6520181047881124  0.1112993319650072  1.0000
  H   H7        1.0  0.1716973155171999  0.11162929135208802  0.6514968143050623  1.0000
  H   H8        1.0  0.3282385066245368  0.3479820175192998  0.8886999123882334  1.0000
  H   H9        1.0  0.7438068852421937  0.2326524325158346  0.4127241396204795  1.0000
  H   H10       1.0  0.7557434253817661  0.5869343647479539  0.7693879496072924  1.0000
  H   H11       1.0  0.25619541284778785  0.7673467482410388  0.5872741142445221  1.0000
  H   H12       1.0  0.244258395528675  0.4130657575594654  0.23061129474594114  1.0000
  H   H13       1.0  0.7283840535873979  0.1263862130818723  0.309115691249815  1.0000
  H   H14       1.0  0.7710932915347758  0.6918146217761034  0.8744152362528083  1.0000
  H   H15       1.0  0.271617042372682  0.873612967674994  0.6908828887300162  1.0000
  H   H16       1.0  0.22890732724576418  0.3081855005313159  0.12558433421526163  1.0000
  H   H17       1.0  0.9552763501871908  0.0230482158504017  0.40058593982222124  1.0000
  H   H18       1.0  0.54479401466714  0.5990427047878271  0.9780271613900241  1.0000
  H   H19       1.0  0.04472474577288918  0.9769509649064645  0.5994126401576096  1.0000
  H   H20       1.0  0.4552082834228415  0.4009564759690392  0.021971961322449798  1.0000
  H   H21       1.0  0.7900718825091533  0.0642033902783226  0.5524127400769886  1.0000
  H   H22       1.0  0.7099485974614835  0.44653317176766905  0.9369284724846096  1.0000
  H   H23       1.0  0.2099304155808284  0.9357957904785437  0.4475855137880131  1.0000
  H   H24       1.0  0.29005202131905605  0.5534669505397503  0.06307109798346033  1.0000
  H   H25       1.0  0.7848905068028527  0.8669712701134671  0.6119538873813752  1.0000
  H   H26       1.0  0.7149973835250948  0.3868850030377827  0.13289006208679413  1.0000
  H   H27       1.0  0.2151105891572271  0.1330279106434062  0.3880446925984486  1.0000
  H   H28       1.0  0.28500323525544485  0.6131151192696365  0.8671103772287481  1.0000
  H   H29       1.0  0.9823304185187071  0.7923063117027098  0.48152069739399644  1.0000
  H   H30       1.0  0.5177426523493834  0.5180269879346966  0.20743122709158968  1.0000
  H   H31       1.0  0.017670200261832667  0.20769381060470954  0.5184780042265942  1.0000
  H   H32       1.0  0.48225964574059793  0.4819721928221695  0.7925687644683564  1.0000
  H   H33       1.0  0.8659261178776632  0.6345918872563843  0.5317813299863445  1.0000
  H   H34       1.0  0.6336906839155532  0.46802500456317386  0.36369324010079407  1.0000
  H   H35       1.0  0.1340761802123183  0.365407293500482  0.4682169238786571  1.0000
  H   H36       1.0  0.36631233912478217  0.5319751177442384  0.6363056781376173  1.0000
  H   H37       1.0  0.8234640171099553  0.6873601461362355  0.39812849255135774  1.0000
  H   H38       1.0  0.677057564929413  0.6023531965125741  0.3107493982268251  1.0000
  H   H39       1.0  0.17653828098002583  0.3126390346206307  0.6018697613136439  1.0000
  H   H40       1.0  0.3229442559810279  0.3976469257948452  0.6892498461264154  1.0000
  H   H41       1.0  0.41527833278293264  0.3603954199365447  0.4288093878446517  1.0000
  H   H42       1.0  0.08537312318983231  0.5709901477778629  0.6412662986494837  1.0000
  H   H43       1.0  0.584723240356688  0.6396028192697756  0.5711890704944125  1.0000
  H   H44       1.0  0.9146291749001491  0.4290090329790033  0.35873369291046237  1.0000
  H   H45       1.0  0.4426015391644498  0.2281734765617358  0.3320128232049484  1.0000
  H   H46       1.0  0.05764878125682314  0.6692823756256914  0.7720922532075819  1.0000
  H   H47       1.0  0.557400511154718  0.7718238210940385  0.6679863823408213  1.0000
  H   H48       1.0  0.9423523147032641  0.330716805131182  0.22790719561972123  1.0000
  H   H49       1.0  0.55664638116982  0.1938341865466171  0.9379222791118451  1.0000
  H   H50       1.0  0.9442330246245589  0.0613071807944436  0.8069840114108899  1.0000
  H   H51       1.0  0.44335351266035866  0.8061649942102491  0.06207836467775247  1.0000
  H   H52       1.0  0.055766392026079255  0.9386929415129687  0.19301588517200235  1.0000
  H   H53       1.0  0.4225135576886245  0.8852326429807603  0.8618386718854438  1.0000
  H   H54       1.0  0.0777580571600467  0.1399793783350418  0.11279756742555952  1.0000
  H   H55       1.0  0.5774877860422762  0.11476842087720482  0.1381615629560287  1.0000
  H   H56       1.0  0.9222377531008945  0.8600207439723776  0.8872033075018207  1.0000
  C   C1        1.0  0.7055940301172184  0.1510312986607047  0.4076651441819267  1.0000
  C   C2        1.0  0.7942365530089217  0.5924735066184468  0.850153742546297  1.0000
  C   C3        1.0  0.29440779079322243  0.8489688236467074  0.5923332313238419  1.0000
  C   C4        1.0  0.20576694721096095  0.40752567413841934  0.1498450540513545  1.0000
  C   C5        1.0  0.8175615644966854  0.0398181726505769  0.4528503341372385  1.0000
  C   C6        1.0  0.6824895720528159  0.5467687599453726  0.961067437595304  1.0000
  C   C7        1.0  0.18244073359329596  0.9601810081062894  0.5471487885752424  1.0000
  C   C8        1.0  0.3175110467277236  0.4532313623620396  0.03893300172023832  1.0000
  C   C9        1.0  0.8396861995891527  0.8266493679200125  0.5129009304622444  1.0000
  C   C10       1.0  0.6604012748166782  0.48657543344852877  0.1728726645167668  1.0000
  C   C11       1.0  0.16031441919138698  0.1733507543873998  0.48709777115834646  1.0000
  C   C12       1.0  0.3395998211434019  0.5134237473083374  0.8271267843105363  1.0000
  C   C13       1.0  0.7869260010454368  0.7148524805704852  0.4985323845578406  1.0000
  C   C14       1.0  0.7131994170051003  0.5012758621454694  0.2837414900032228  1.0000
  C   C15       1.0  0.2130738927847418  0.2851467001863881  0.5014673903842848  1.0000
  C   C16       1.0  0.2867995224659979  0.4987252017124959  0.716257659372964  1.0000
  C   C17       1.0  0.40287283512763133  0.2670708127769288  0.42987738957094024  1.0000
  C   C18       1.0  0.09720387925264615  0.5705881056941138  0.7340921490216915  1.0000
  C   C19       1.0  0.5971282608324558  0.7329283679799374  0.5701211904088908  1.0000
  C   C20       1.0  0.9027955373979994  0.42941201661329836  0.26590774756120067  1.0000
  C   C21       1.0  0.48732915794313675  0.044659625565437  0.8883987774996384  1.0000
  C   C22       1.0  0.013430985962067186  0.1115888046785471  0.9548271008796548  1.0000
  C   C23       1.0  0.5126678544477057  0.9553404967419823  0.11160264016038468  1.0000
  C   C24       1.0  0.9865643471193337  0.8884122591794109  0.045173026841013146  1.0000
  C   C25       1.0  0.5295809823212849  0.1098977798953769  0.9668695590037544  1.0000
  C   C26       1.0  0.9709616948393534  0.0324674875268371  0.8904496535020527  1.0000
  C   C27       1.0  0.4704174799702726  0.8901042255131344  0.03313144970814359  1.0000
  C   C28       1.0  0.029033638242040555  0.9675335763311282  0.1095513430660873  1.0000
  C   C29       1.0  0.45821477066321853  0.9340831100327804  0.922552584969246  1.0000
  C   C30       1.0  0.041998805591426  0.0783445379500876  0.0649314374295784  1.0000
  C   C31       1.0  0.5417846459874199  0.0659170122746318  0.0774490493085978  1.0000
  C   C32       1.0  0.9579960503104347  0.9216574674584237  0.9350696807793284  1.0000
  C   C33       1.0  0.4758984856899318  0.0904952477646006  0.767593771447089  1.0000
  C   C34       1.0  0.02525451293188038  0.2326778543806114  0.9087942273967968  1.0000
  C   C35       1.0  0.5240925344134978  0.9095095822955485  0.23241097045617912  1.0000
  C   C36       1.0  0.9747424994589553  0.7673222679268008  0.09120632141574697  1.0000
  N   N1        1.0  0.521650187657059  0.1799576145786759  0.4815187396037929  1.0000
  N   N2        1.0  0.9781322249746083  0.5187736375188052  0.821020100846539  1.0000
  N   N3        1.0  0.47834922899357923  0.8200425077287363  0.5184811569791066  1.0000
  N   N4        1.0  0.02186959593583273  0.4812264847886141  0.17897914350670155  1.0000
  N   N5        1.0  0.7768398657190617  0.9271391747455268  0.4411943570373893  1.0000
  N   N6        1.0  0.7231596499129364  0.5587528153129924  0.07279875357059494  1.0000
  N   N7        1.0  0.2231612302410184  0.0728600060113394  0.5588050917899139  1.0000
  N   N8        1.0  0.27684144604715044  0.441246365443881  0.9272006952567083  1.0000
  O   O1        1.0  0.4694285270276097  0.0114464300050372  0.693383500033839  1.0000
  O   O2        1.0  0.03144993706216328  0.3072966768145449  0.9874556088256838  1.0000
  O   O3        1.0  0.5305685037253269  0.988558400055112  0.3066196112952964  1.0000
  O   O4        1.0  0.9685499567680225  0.6927025039423214  0.012543297268969413  1.0000
  O   O5        1.0  0.47656156276585177  0.19965767668244183  0.7466762216829467  1.0000
  O   O6        1.0  0.025023495932089197  0.2535209588489451  0.800284014669522  1.0000
  O   O7        1.0  0.5234289801580444  0.8003480949282604  0.25333037955603993  1.0000
  O   O8        1.0  0.9749771228484505  0.7464791634584671  0.1997164246460199  1.0000
