data_image0
_chemical_formula_structural       CdH16C16SO10
_chemical_formula_sum              "Cd1 H16 C16 S1 O10"
_cell_length_a       5.256531140460717
_cell_length_b       6.591729891583407
_cell_length_c       13.885900357952721
_cell_angle_alpha    81.90371247637589
_cell_angle_beta     79.09087804577203
_cell_angle_gamma    66.50769279167281

_space_group_name_H-M_alt    "P 1"
_space_group_IT_number       1

loop_
  _space_group_symop_operation_xyz
  'x, y, z'

loop_
  _atom_site_type_symbol
  _atom_site_label
  _atom_site_symmetry_multiplicity
  _atom_site_fract_x
  _atom_site_fract_y
  _atom_site_fract_z
  _atom_site_occupancy
  Cd  Cd1       1.0  0.5711912614472254  0.500166281055904  0.49998249537251377  1.0000
  H   H1        1.0  0.018721774557576662  0.12443827996738578  0.5748378973992203  1.0000
  H   H2        1.0  0.7182044262556038  0.8756771196195174  0.42511827622669773  1.0000
  H   H3        1.0  0.0033824706107951174  0.35727906803921167  0.6106579130550145  1.0000
  H   H4        1.0  0.9717257917535704  0.6427488032512301  0.3894452776852687  1.0000
  H   H5        1.0  0.7890447670982684  0.9535273706000634  0.7189845022606959  1.0000
  H   H6        1.0  0.4609892659749519  0.0467168677011642  0.28093819473205867  1.0000
  H   H7        1.0  0.6383837793353919  0.9635829351307236  0.6126685998152083  1.0000
  H   H8        1.0  0.21426074591975217  0.036802466435077  0.3872800650113176  1.0000
  H   H9        1.0  0.32210363361901545  0.13232855795538256  0.7445366790596424  1.0000
  H   H10       1.0  0.19867061888957954  0.8679477873230537  0.2555234339144263  1.0000
  H   H11       1.0  0.8850420141321396  0.2512939879468732  0.860960231283691  1.0000
  H   H12       1.0  0.9973852272131793  0.7485692033119876  0.139121590935403  1.0000
  H   H13       1.0  0.9934286339999547  0.5679946927628023  0.942297780935334  1.0000
  H   H14       1.0  0.503281026212754  0.43165397013928697  0.05772176976358873  1.0000
  H   H15       1.0  0.4298842244281717  0.4465570778706364  0.8222609170709703  1.0000
  H   H16       1.0  0.6981354571889261  0.5535348776033686  0.1776628557052574  1.0000
  C   C1        1.0  0.7706781715923229  0.8513306685098101  0.6663021132126798  1.0000
  C   C2        1.0  0.2879280738837764  0.1490156581729636  0.3336375211421583  1.0000
  C   C3        1.0  0.060585772995715347  0.7327586072305364  0.611688865809512  1.0000
  C   C4        1.0  0.40508730054952485  0.2672230534231801  0.3882471496153954  1.0000
  C   C5        1.0  0.40569785659176477  0.7800360263459182  0.7761854740985327  1.0000
  C   C6        1.0  0.9614629419792636  0.2201376993925876  0.22383634993196455  1.0000
  C   C7        1.0  0.25095859187797503  0.007253338991766603  0.7860492766011901  1.0000
  C   C8        1.0  0.044020777336832705  0.9928879642600352  0.21396953134921406  1.0000
  C   C9        1.0  0.0027815530839985377  0.0750351523274304  0.8521457980689958  1.0000
  C   C10       1.0  0.9298458029647001  0.9248984910427533  0.14788317289897174  1.0000
  C   C11       1.0  0.9109969529053858  0.9169181832889705  0.9079482129539398  1.0000
  C   C12       1.0  0.7357306370825115  0.08283260006496108  0.09205832375808133  1.0000
  C   C13       1.0  0.06414375807094064  0.6902046395749154  0.8974114258027086  1.0000
  C   C14       1.0  0.651553414719274  0.30961230985693783  0.10257884153961774  1.0000
  C   C15       1.0  0.30933564053457063  0.6222765227900027  0.8307428999433951  1.0000
  C   C16       1.0  0.7619640591344138  0.37775861505367897  0.1692398145246087  1.0000
  S   S1        1.0  0.6126327753501075  0.999721610793422  3.371019829455295e-06  1.0000
  O   O1        1.0  0.655121550840349  0.6957674121571883  0.7151135667355105  1.0000
  O   O2        1.0  0.0654913138245945  0.3045624954168034  0.2848953724664796  1.0000
  O   O3        1.0  0.17505330586181614  0.5216009739262191  0.6156931767780094  1.0000
  O   O4        1.0  0.31266792215382117  0.4784064497809408  0.3843174364498907  1.0000
  O   O5        1.0  0.18401929603545122  0.8531815360167699  0.5610976583266023  1.0000
  O   O6        1.0  0.5982638278029315  0.1466987300951246  0.4388432552363567  1.0000
  O   O7        1.0  0.8941464258530805  0.28023417250643223  0.5910057960589227  1.0000
  O   O8        1.0  0.7657754048426709  0.7197509574422725  0.40907362849564777  1.0000
  O   O9        1.0  0.39402565855825616  0.19557193524938302  0.9629410948961235  1.0000
  O   O10       1.0  0.5534884136940549  0.8035087257904223  0.03709211746183873  1.0000
