data_image0
_chemical_formula_structural       Zn8H112C144N8O40
_chemical_formula_sum              "Zn8 H112 C144 N8 O40"
_cell_length_a       19.18236378302739
_cell_length_b       19.182303180863986
_cell_length_c       29.153044003222703
_cell_angle_alpha    109.19863828666094
_cell_angle_beta     109.1982200871439
_cell_angle_gamma    90.01810122884706

_space_group_name_H-M_alt    "P 1"
_space_group_IT_number       1

loop_
  _space_group_symop_operation_xyz
  'x, y, z'

loop_
  _atom_site_type_symbol
  _atom_site_label
  _atom_site_symmetry_multiplicity
  _atom_site_fract_x
  _atom_site_fract_y
  _atom_site_fract_z
  _atom_site_occupancy
  Zn  Zn1       1.0  0.19617394630486726  0.8725264934977445  0.7451327707512476  1.0000
  Zn  Zn2       1.0  0.053827911218966844  0.8774728225722371  0.754869066075443  1.0000
  Zn  Zn3       1.0  0.5489885922901577  0.8725600653981544  0.7451538038918811  1.0000
  Zn  Zn4       1.0  0.7010138248130529  0.8774435700738935  0.7548459020499292  1.0000
  Zn  Zn5       1.0  0.12255867170580359  0.29898979203608894  0.24515368046048275  1.0000
  Zn  Zn6       1.0  0.1274442332394585  0.4510141190748698  0.2548473000726972  1.0000
  Zn  Zn7       1.0  0.1274728148225535  0.803827257362464  0.2548655595600948  1.0000
  Zn  Zn8       1.0  0.12252635418360565  0.9461746675966367  0.24513245052752805  1.0000
  H   H1        1.0  0.27259536241376026  0.7885129901712703  0.6692478363117971  1.0000
  H   H2        1.0  0.9773881210225992  0.869260882499283  0.830726964193367  1.0000
  H   H3        1.0  0.9774053941592409  0.9614824489197529  0.8307557406019936  1.0000
  H   H4        1.0  0.39665118539893024  0.8807788076503087  0.6692375736769449  1.0000
  H   H5        1.0  0.8533666103759214  0.9614619960092767  0.8307945446803655  1.0000
  H   H6        1.0  0.853350677248052  0.869211872145712  0.8307643415935643  1.0000
  H   H7        1.0  0.2726150451633769  0.8807352510786971  0.6692756865375598  1.0000
  H   H8        1.0  0.39663501162532083  0.7885295586179735  0.6692098875314229  1.0000
  H   H9        1.0  0.03853904559787217  0.14663353756831296  0.16920614677952267  1.0000
  H   H10       1.0  0.11922245229106913  0.603352714642078  0.33076340814866256  1.0000
  H   H11       1.0  0.21148435644784055  0.7274090912488946  0.33075155262804395  1.0000
  H   H12       1.0  0.11926360975596142  0.7273880928630734  0.3307234513745385  1.0000
  H   H13       1.0  0.21147069102441643  0.6033695040173226  0.33079001063499885  1.0000
  H   H14       1.0  0.038518094267225016  0.0225943160314088  0.1692445718353426  1.0000
  H   H15       1.0  0.1307399790391273  0.022611490232620195  0.16927434858160237  1.0000
  H   H16       1.0  0.1307886461593668  0.14664828747039138  0.16923574732008717  1.0000
  H   H17       1.0  0.31302481934594073  0.9837941621583182  0.7499436824031418  1.0000
  H   H18       1.0  0.936992076195807  0.9839764677469419  0.7500959509303442  1.0000
  H   H19       1.0  0.9369757040934059  0.7662052610440995  0.7500558069886691  1.0000
  H   H20       1.0  0.4369443632530261  0.7660805386182901  0.7499008778719582  1.0000
  H   H21       1.0  0.8130504362945243  0.7661748512694897  0.7500706315684764  1.0000
  H   H22       1.0  0.8130620429580873  0.9839227681678084  0.7501099298855038  1.0000
  H   H23       1.0  0.31301306742516727  0.7660277705167289  0.7499119569590461  1.0000
  H   H24       1.0  0.4369484818094732  0.9838228044993683  0.7499261708712551  1.0000
  H   H25       1.0  0.23382485939701778  0.1869493660817909  0.24992923338265877  1.0000
  H   H26       1.0  0.2339203627003242  0.5630581005219213  0.25009897560731525  1.0000
  H   H27       1.0  0.016205778756173645  0.686977105995652  0.2500560163404018  1.0000
  H   H28       1.0  0.23397305975939275  0.6869896137283006  0.2500875113413129  1.0000
  H   H29       1.0  0.01617994451530078  0.5630533508375848  0.250073071727833  1.0000
  H   H30       1.0  0.23379442008295825  0.0630243905155439  0.24994504691128577  1.0000
  H   H31       1.0  0.016024390151315463  0.0630119610265965  0.24990642961274998  1.0000
  H   H32       1.0  0.016079836707099608  0.18694218589311623  0.24989162040876067  1.0000
  H   H33       1.0  0.342980746136476  0.9672537824273137  0.8091808549887601  1.0000
  H   H34       1.0  0.9070176862826  0.908210796240546  0.6908398597051786  1.0000
  H   H35       1.0  0.9070221196838729  0.7827483783680408  0.6908209471700673  1.0000
  H   H36       1.0  0.46623897780794005  0.8418345799501666  0.8091253079614019  1.0000
  H   H37       1.0  0.7837515111451977  0.782749830226649  0.6908569507355722  1.0000
  H   H38       1.0  0.7837633062620525  0.9081754826028218  0.6908819787997513  1.0000
  H   H39       1.0  0.34298314467601887  0.8417943040893762  0.809165992856549  1.0000
  H   H40       1.0  0.4662502416573914  0.9672527704873841  0.8091426502941912  1.0000
  H   H41       1.0  0.21725077239489818  0.21625097319436287  0.3091438286559693  1.0000
  H   H42       1.0  0.15816710754462798  0.5337616722577324  0.1908749694174361  1.0000
  H   H43       1.0  0.03274513728923979  0.6570197947740793  0.19081825250824372  1.0000
  H   H44       1.0  0.15820581755734509  0.6570173725146872  0.19083272482684774  1.0000
  H   H45       1.0  0.032747457383734975  0.533749078876447  0.19085694312916243  1.0000
  H   H46       1.0  0.2172513879160434  0.09297959785876489  0.30917973413865946  1.0000
  H   H47       1.0  0.0917899108823974  0.09298620234491749  0.3091622704917327  1.0000
  H   H48       1.0  0.09182627994483986  0.21624150587791752  0.3091188160536901  1.0000
  H   H49       1.0  0.30283497340047916  0.0831172468859265  0.8626002346939217  1.0000
  H   H50       1.0  0.9471133102012741  0.9703906476332094  0.6373726957975805  1.0000
  H   H51       1.0  0.9471644600181005  0.6668858390866816  0.6374018665622997  1.0000
  H   H52       1.0  0.5597434722939596  0.7794134367483279  0.862594652649939  1.0000
  H   H53       1.0  0.6901561646283483  0.6670851995241166  0.6373835846642706  1.0000
  H   H54       1.0  0.6902555688894336  0.9705847708585936  0.6374022712455413  1.0000
  H   H55       1.0  0.3028907859933199  0.7796022616056246  0.8626270172678118  1.0000
  H   H56       1.0  0.5598440172204348  0.0829142185578462  0.8626115430513791  1.0000
  H   H57       1.0  0.3329104682978395  0.3098447738391172  0.3626139458926757  1.0000
  H   H58       1.0  0.22058985621044505  0.4402579540529672  0.13740521291997956  1.0000
  H   H59       1.0  0.9168818211720476  0.6971640434614412  0.13739823568027976  1.0000
  H   H60       1.0  0.2203963415831467  0.6971103105550681  0.1373715491477228  1.0000
  H   H61       1.0  0.9170902029197592  0.44015367801628713  0.1373882072621484  1.0000
  H   H62       1.0  0.33311372351019486  0.0528347272611001  0.36260105849581936  1.0000
  H   H63       1.0  0.029607428790356466  0.0528897160921247  0.3626302866834621  1.0000
  H   H64       1.0  0.029412234861808894  0.3097454138588844  0.36259496396214524  1.0000
  H   H65       1.0  0.35155064129155983  0.2026176886828139  0.9386193595826738  1.0000
  H   H66       1.0  0.8985572824891503  0.013929073623096111  0.5613738563371554  1.0000
  H   H67       1.0  0.8984465518454883  0.5473862334392193  0.5613827329318113  1.0000
  H   H68       1.0  0.587089598038197  0.7358154249897667  0.9385630852589839  1.0000
  H   H69       1.0  0.6627904430509303  0.5476431116857513  0.5613230891542925  1.0000
  H   H70       1.0  0.6629074147413049  0.01418300948118662  0.5614344224745409  1.0000
  H   H71       1.0  0.3514491205844195  0.7360699043467421  0.93862906806946  1.0000
  H   H72       1.0  0.5872094981521059  0.20235718122744117  0.9386745555026365  1.0000
  H   H73       1.0  0.4523518877095966  0.3372050422024558  0.43867538129834566  1.0000
  H   H74       1.0  0.26418538711953937  0.4129096873049249  0.06143536128221427  1.0000
  H   H75       1.0  0.7973823511023211  0.6484476641548156  0.06138052796352867  1.0000
  H   H76       1.0  0.26392983000120296  0.6485515421088976  0.06136983579821728  1.0000
  H   H77       1.0  0.7976476283205186  0.4127925084116697  0.06132728404098488  1.0000
  H   H78       1.0  0.4526128257724621  0.10155179192252457  0.4386195047648868  1.0000
  H   H79       1.0  0.9860708621963283  0.10144388784220128  0.4386301347870826  1.0000
  H   H80       1.0  0.9858129588245247  0.3370907523834249  0.4385622914283259  1.0000
  H   H81       1.0  0.14058641975783098  0.20308147867715579  0.9607800572405691  1.0000
  H   H82       1.0  0.10960839650908849  0.9921967321055974  0.5393411550017788  1.0000
  H   H83       1.0  0.10940934020695174  0.5469227332298487  0.5392199969943546  1.0000
  H   H84       1.0  0.8202341601250323  0.7577291023780004  0.9607314071462836  1.0000
  H   H85       1.0  0.4296906747680182  0.5471452779274486  0.5392637729788844  1.0000
  H   H86       1.0  0.429764295015822  0.9922699843796178  0.5392676925928227  1.0000
  H   H87       1.0  0.14039623843518695  0.7578025930965423  0.9606590170897389  1.0000
  H   H88       1.0  0.8203118896324496  0.2028570881345857  0.9607403185062535  1.0000
  H   H89       1.0  0.45285389919483504  0.5703102137864348  0.4607379207740577  1.0000
  H   H90       1.0  0.2422700638413886  0.17976604910553112  0.039267868516141384  1.0000
  H   H91       1.0  0.7969208458103194  0.8594126622371974  0.0392205125851603  1.0000
  H   H92       1.0  0.24219641691397695  0.8596035326079844  0.0393398038657509  1.0000
  H   H93       1.0  0.7971467440990522  0.1796869405969517  0.03926255217794503  1.0000
  H   H94       1.0  0.45307638187902194  0.8905858859407803  0.4607778566552483  1.0000
  H   H95       1.0  0.0078049249318822775  0.8903922143391085  0.4606598020880169  1.0000
  H   H96       1.0  0.007730581063277997  0.5702366759595848  0.46073473693890316  1.0000
  H   H97       1.0  0.09164119453448176  0.08667724506058509  0.8834467009741542  1.0000
  H   H98       1.0  0.15839920845968433  0.9530866916330752  0.6166767055934343  1.0000
  H   H99       1.0  0.1583568322048165  0.6633250873000377  0.6165539392857723  1.0000
  H   H100      1.0  0.7917461305560421  0.7969366343025895  0.883436019860383  1.0000
  H   H101      1.0  0.4581795474402737  0.6634940743393969  0.6166471664401171  1.0000
  H   H102      1.0  0.4582540460557781  0.9530604523503213  0.6165620255142059  1.0000
  H   H103      1.0  0.09160476075323484  0.7969092579420761  0.8833222586664745  1.0000
  H   H104      1.0  0.791826804078063  0.08650933129333545  0.8833557063195556  1.0000
  H   H105      1.0  0.3365058851410793  0.5418225452849654  0.38335429178857783  1.0000
  H   H106      1.0  0.20306314708438578  0.2082546344386103  0.11656444129885557  1.0000
  H   H107      1.0  0.9133243381476817  0.9083577693446115  0.11655306388669118  1.0000
  H   H108      1.0  0.20308982052730318  0.9083955900399583  0.1166764388308009  1.0000
  H   H109      1.0  0.9134947302290967  0.20817331162639624  0.11664450096061064  1.0000
  H   H110      1.0  0.3366726433828616  0.8416396751572534  0.3834450624422131  1.0000
  H   H111      1.0  0.04691425391767713  0.8416015281099475  0.38332366168772575  1.0000
  H   H112      1.0  0.04693818861388613  0.5417480819875563  0.38343884635149544  1.0000
  C   C1        1.0  0.30390254813327994  0.8442899394504549  0.6886059788470575  1.0000
  C   C2        1.0  0.9460995859446156  0.9057058447243093  0.8113973055241316  1.0000
  C   C3        1.0  0.38471426940052567  0.8443090342473809  0.6885722513536549  1.0000
  C   C4        1.0  0.8652884812952093  0.9056844650180976  0.811431091390375  1.0000
  C   C5        1.0  0.09431685037802139  0.1347116794484791  0.1885692289813434  1.0000
  C   C6        1.0  0.15569151139096954  0.615288313822809  0.3114277749894326  1.0000
  C   C7        1.0  0.1557095228360339  0.6961011238553853  0.31139415880158333  1.0000
  C   C8        1.0  0.09429423529049791  0.053899989876690285  0.18860270622995054  1.0000
  C   C9        1.0  0.3446772630884069  0.9480277007920604  0.7698017478083443  1.0000
  C   C10       1.0  0.9053285753868466  0.9283443678435506  0.7302217228239982  1.0000
  C   C11       1.0  0.9053241973033435  0.8019728174475347  0.7301986666902703  1.0000
  C   C12       1.0  0.4251265315679403  0.8216942999107031  0.7697615805508204  1.0000
  C   C13       1.0  0.8248622001276829  0.8019609481192019  0.7302185457495084  1.0000
  C   C14       1.0  0.824875602719814  0.9283088692326231  0.7302433556458465  1.0000
  C   C15       1.0  0.3446736595696434  0.8216600341731634  0.7697844144783799  1.0000
  C   C16       1.0  0.4251388645328901  0.9480389580031668  0.7697809270986014  1.0000
  C   C17       1.0  0.19803991067504967  0.17513904788329174  0.2697817668309099  1.0000
  C   C18       1.0  0.17830627574277702  0.5748751134962475  0.23023810663389804  1.0000
  C   C19       1.0  0.05197198007772389  0.6553243847276846  0.23019767876058947  1.0000
  C   C20       1.0  0.17834012023063642  0.6553279467872882  0.23021467654645278  1.0000
  C   C21       1.0  0.05196237887322741  0.5748621040373718  0.2302186064235058  1.0000
  C   C22       1.0  0.1980269602535856  0.0946776808994585  0.2698021415562337  1.0000
  C   C23       1.0  0.07165654373077493  0.0946743822405196  0.26978014095937647  1.0000
  C   C24       1.0  0.07169339346953049  0.17512864701352976  0.2697580256314396  1.0000
  C   C25       1.0  0.16577075362414465  0.00600705713702611  0.8239044768451862  1.0000
  C   C26       1.0  0.08416015413540366  0.9319922725249582  0.6761381246766331  1.0000
  C   C27       1.0  0.08422853162297633  0.7439947061076423  0.6760974063495979  1.0000
  C   C28       1.0  0.6581582107401824  0.8180233232510828  0.8239236035123977  1.0000
  C   C29       1.0  0.5917976476171559  0.7440656687759599  0.6761719950205246  1.0000
  C   C30       1.0  0.5918427043480108  0.9319770744301863  0.6760751705967039  1.0000
  C   C31       1.0  0.16584231449323275  0.8180027801283886  0.8238610106701215  1.0000
  C   C32       1.0  0.6582089445469135  0.00593686202554272  0.8238283607978757  1.0000
  C   C33       1.0  0.25593524750050983  0.40820475641338305  0.32383024135673105  1.0000
  C   C34       1.0  0.18198132089506194  0.34184571375121203  0.17607858539054178  1.0000
  C   C35       1.0  0.9939943519751251  0.8342270514663712  0.17609452255111085  1.0000
  C   C36       1.0  0.18199517786752747  0.8341561642792996  0.17613687697586755  1.0000
  C   C37       1.0  0.9940686696137319  0.34179425209276804  0.1761707096163292  1.0000
  C   C38       1.0  0.25600410772904064  0.9157719709926154  0.3239045123409027  1.0000
  C   C39       1.0  0.06800441193205849  0.9158429885310828  0.32386154912595094  1.0000
  C   C40       1.0  0.06802461865553504  0.4081632671827223  0.3239264930245368  1.0000
  C   C41       1.0  0.19459728312787652  0.0776644350663958  0.8689112774326729  1.0000
  C   C42       1.0  0.05539397591220292  0.958634920064014  0.6311311141116176  1.0000
  C   C43       1.0  0.055401507150051474  0.6723378240566403  0.631089565925457  1.0000
  C   C44       1.0  0.6742926157584747  0.7913072379588328  0.8689207368243571  1.0000
  C   C45       1.0  0.5756235242844453  0.6724911382367155  0.6311067437287717  1.0000
  C   C46       1.0  0.5757078532641768  0.9586919311685234  0.6310764950813804  1.0000
  C   C47       1.0  0.19460984637993295  0.7913588178394306  0.8688677054229286  1.0000
  C   C48       1.0  0.6743814680573265  0.07751160363857686  0.8688936849903328  1.0000
  C   C49       1.0  0.3275082402216255  0.42437814315979233  0.36889489957539456  1.0000
  C   C50       1.0  0.20869536482641848  0.32571054422260903  0.13107870923413148  1.0000
  C   C51       1.0  0.9223366787364425  0.8054017541346213  0.13108717271823173  1.0000
  C   C52       1.0  0.20863895001259888  0.8053902322097243  0.13112974960439058  1.0000
  C   C53       1.0  0.92249173877164  0.3256179764655798  0.13110546846456114  1.0000
  C   C54       1.0  0.3276613349021884  0.9445960397704523  0.36891031997041057  1.0000
  C   C55       1.0  0.04136246192669541  0.9446081533693442  0.3688688232386211  1.0000
  C   C56       1.0  0.041308405756950536  0.4242968673931458  0.36892477842253146  1.0000
  C   C57       1.0  0.2679422750781128  0.11027828675535294  0.8843984959857706  1.0000
  C   C58       1.0  0.9820734163064629  0.9757897662772734  0.6156141220260096  1.0000
  C   C59       1.0  0.9820574534029017  0.639724178461087  0.615603345815252  1.0000
  C   C60       1.0  0.6164509871053806  0.7740409666513841  0.8843794227207835  1.0000
  C   C61       1.0  0.6334450935565029  0.6399381889025905  0.6155692860312385  1.0000
  C   C62       1.0  0.633548593868511  0.9759553830065146  0.6156163817114333  1.0000
  C   C63       1.0  0.26793060306077615  0.7742035699218235  0.8843844132032714  1.0000
  C   C64       1.0  0.6165575325628864  0.11006015554611537  0.8844288066512361  1.0000
  C   C65       1.0  0.36006026355271803  0.36655818456635103  0.3844308346399075  1.0000
  C   C66       1.0  0.22596114640371917  0.3835499179205613  0.11562013997210127  1.0000
  C   C67       1.0  0.8897220643918187  0.7320574984479151  0.11560040892558014  1.0000
  C   C68       1.0  0.2257945312022612  0.7320690694119135  0.11561383202241866  1.0000
  C   C69       1.0  0.8899402342511208  0.3834390990143035  0.11557059650630923  1.0000
  C   C70       1.0  0.3602748074609394  0.017941000921673816  0.3843979921550584  1.0000
  C   C71       1.0  0.02420696953527106  0.017928155043705405  0.38438521194463243  1.0000
  C   C72       1.0  0.024042570983823477  0.3664521955205373  0.38438054129257176  1.0000
  C   C73       1.0  0.2950930709317418  0.1759573018752718  0.9266203199992232  1.0000
  C   C74       1.0  0.9550048350481788  0.9992803797390335  0.5733964595755408  1.0000
  C   C75       1.0  0.95490498089962  0.5740458013752204  0.5733804168663923  1.0000
  C   C76       1.0  0.6315548585513396  0.7504880761365056  0.9265721566899785  1.0000
  C   C77       1.0  0.6183434819319586  0.5742671765817561  0.5733401233624278  1.0000
  C   C78       1.0  0.6184438372352543  0.9995101357898833  0.5734244261078557  1.0000
  C   C79       1.0  0.2949996318153368  0.7507165258829502  0.9266047207766731  1.0000
  C   C80       1.0  0.631655304083601  0.17573221509015724  0.9266580334790075  1.0000
  C   C81       1.0  0.42572940441723967  0.3816544764261067  0.42665806219557817  1.0000
  C   C82       1.0  0.2495128670979483  0.3684464141499574  0.07342753357126947  1.0000
  C   C83       1.0  0.8240430180904638  0.7049064284465061  0.07337861906375312  1.0000
  C   C84       1.0  0.2492813078068394  0.7049995420803158  0.07339212923863409  1.0000
  C   C85       1.0  0.8242723981464549  0.36834321683691934  0.07334355550513993  1.0000
  C   C86       1.0  0.42595159107010255  0.045093588107839394  0.4266208529251045  1.0000
  C   C87       1.0  0.00072058723112882  0.044995953623548204  0.42660675345936727  1.0000
  C   C88       1.0  0.0004893008016608392  0.3815565268016242  0.42657382114696657  1.0000
  C   C89       1.0  0.24988337308965194  0.20912084426608862  0.955069277250139  1.0000
  C   C90       1.0  0.0002616690625389636  0.003976863458113698  0.5449682567084295  1.0000
  C   C91       1.0  0.00011364130062226664  0.5408831608865938  0.5449303629864275  1.0000
  C   C92       1.0  0.7052342311526445  0.7458246618678857  0.9550256830196913  1.0000
  C   C93       1.0  0.5446665631556653  0.5410613049234811  0.5449289017971279  1.0000
  C   C94       1.0  0.5447647995909789  0.0041734926111729265  0.5449716138136722  1.0000
  C   C95       1.0  0.24974270928316858  0.7460213049400507  0.9550320454094743  1.0000
  C   C96       1.0  0.7053327681634441  0.2089382073067654  0.9550708954338203  1.0000
  C   C97       1.0  0.458936563868157  0.4553320995728002  0.45507005521739785  1.0000
  C   C98       1.0  0.2541752236083497  0.29476604644760573  0.04497344727284508  1.0000
  C   C99       1.0  0.7908803256871265  0.7501158823353296  0.04492913771332505  1.0000
  C   C100      1.0  0.25397930255197554  0.7502570801875379  0.044966756111349995  1.0000
  C   C101      1.0  0.7910633382977607  0.2946644470128277  0.04492913498644668  1.0000
  C   C102      1.0  0.4591150798625065  0.9998834330739683  0.4550690847858903  1.0000
  C   C103      1.0  0.9960235914632137  0.999739291174279  0.4550333526445057  1.0000
  C   C104      1.0  0.9958256407820798  0.4552355958778307  0.4550277942269715  1.0000
  C   C105      1.0  0.17638475174623375  0.17668673478875974  0.9394462895378763  1.0000
  C   C106      1.0  0.07374967780251047  0.9871140658336018  0.5606265629447122  1.0000
  C   C107      1.0  0.07361012160052383  0.5733169985177541  0.5605534401430958  1.0000
  C   C108      1.0  0.763088341526746  0.7627505205294013  0.9394124428441726  1.0000
  C   C109      1.0  0.4868293079010754  0.5735146134644681  0.5605781541044763  1.0000
  C   C110      1.0  0.4869094452311627  0.9872478938318281  0.5605848950496719  1.0000
  C   C111      1.0  0.17625500747613618  0.7628858758052316  0.9393742096996645  1.0000
  C   C112      1.0  0.7631730341819816  0.176488308755097  0.9394257177387572  1.0000
  C   C113      1.0  0.4264847426450087  0.5131713631451049  0.4394231607470046  1.0000
  C   C114      1.0  0.2372480291912709  0.23691157295948534  0.0605862313609151  1.0000
  C   C115      1.0  0.8233143760221537  0.8236140560228264  0.06055380355785188  1.0000
  C   C116      1.0  0.23711332914188418  0.8237443591608268  0.06062374948699298  1.0000
  C   C117      1.0  0.8235155287590955  0.23682683895470538  0.0605763938240926  1.0000
  C   C118      1.0  0.426681966479883  0.9263863544236485  0.43944534404816676  1.0000
  C   C119      1.0  0.012888453256465492  0.9262506378328297  0.43937463881736244  1.0000
  C   C120      1.0  0.012749266496420763  0.513092065812103  0.4394158211565369  1.0000
  C   C121      1.0  0.14876052115705105  0.11196057565832973  0.8963220693883612  1.0000
  C   C122      1.0  0.10129239325689796  0.965489961306794  0.6037413357350302  1.0000
  C   C123      1.0  0.10123910540454513  0.6380415456284964  0.6036784979708611  1.0000
  C   C124      1.0  0.7475408980285605  0.7844655346757393  0.8963356961014667  1.0000
  C   C125      1.0  0.5023613234688611  0.6382108219118833  0.6037024820686057  1.0000
  C   C126      1.0  0.5024570607123806  0.965531707091273  0.6036612608814167  1.0000
  C   C127      1.0  0.1487127814778759  0.7845075059463228  0.8962577168932313  1.0000
  C   C128      1.0  0.7476427863372093  0.1117910790012928  0.8962992790297619  1.0000
  C   C129      1.0  0.36178639170366006  0.4976415908297797  0.3963002211391284  1.0000
  C   C130      1.0  0.21553331636966525  0.25245961924449034  0.10366345499156177  1.0000
  C   C131      1.0  0.888040595429885  0.8512402714863186  0.10367801903150554  1.0000
  C   C132      1.0  0.21549076925451513  0.8512883376413497  0.10374095719612333  1.0000
  C   C133      1.0  0.8882131426547913  0.252355641110654  0.10369970761701801  1.0000
  C   C134      1.0  0.36195611896193464  0.8987590912437253  0.3963220469554256  1.0000
  C   C135      1.0  0.034511087319593466  0.8987089356226575  0.39625805493069777  1.0000
  C   C136      1.0  0.0344663665203484  0.4975453950493789  0.39633875099298876  1.0000
  C   C137      1.0  0.28028711844781634  0.2801866985643073  1.0045988823001859e-05  1.0000
  C   C138      1.0  0.9699096701629555  0.030088605121029843  0.5000007875731782  1.0000
  C   C139      1.0  0.9697134732908382  0.4698148834819591  0.49999037531623697  1.0000
  C   C140      1.0  0.719814346294285  0.7197133428740585  0.9999896578560906  1.0000
  C   C141      1.0  0.5300471275799267  0.46995190658247304  0.49999950084486494  1.0000
  C   C142      1.0  0.5301840215794441  0.030286117715967013  0.5000086369847948  1.0000
  C   C143      1.0  0.2800923949761439  0.7199072342124422  0.9999989553166059  1.0000
  C   C144      1.0  0.7199538360485177  0.28004862774736955  1.8388411006942922e-06  1.0000
  N   N1        1.0  0.3044374878837814  0.8713647593080295  0.7428289470213301  1.0000
  N   N2        1.0  0.9455634129584067  0.8786355946853135  0.7571742206041632  1.0000
  N   N3        1.0  0.43840083635552674  0.871399581412547  0.7427980667743981  1.0000
  N   N4        1.0  0.8116033633692651  0.8785992424376231  0.7572050532358361  1.0000
  N   N5        1.0  0.1214020807063392  0.1883985724930284  0.24279513656003357  1.0000
  N   N6        1.0  0.1286019500719675  0.5616026015182098  0.2572025486662568  1.0000
  N   N7        1.0  0.12863500519646454  0.6955638336680607  0.2571705763390497  1.0000
  N   N8        1.0  0.12136373114577026  0.05443846944291411  0.24282628775269186  1.0000
  O   O1        1.0  0.21157687484691207  0.97558396443803  0.8025569789342127  1.0000
  O   O2        1.0  0.03831388180646648  0.922936747910782  0.6974653511397547  1.0000
  O   O3        1.0  0.038423110202856325  0.7744155024265779  0.6974441105984254  1.0000
  O   O4        1.0  0.5910056588772646  0.8271193393779015  0.8026118590276495  1.0000
  O   O5        1.0  0.6589565080539188  0.7744858298878796  0.6975181326759383  1.0000
  O   O6        1.0  0.6589943430999198  0.9228816230998405  0.6973860132442481  1.0000
  O   O7        1.0  0.2116907292964213  0.8270609174577075  0.8025347976821633  1.0000
  O   O8        1.0  0.591047433474969  0.9755203623396154  0.8024814254486257  1.0000
  O   O9        1.0  0.22551536038309908  0.34104409938161956  0.3024814550883903  1.0000
  O   O10       1.0  0.17288544249984739  0.40899911010722434  0.1973885673282325  1.0000
  O   O11       1.0  0.02441622583835823  0.7884222926112373  0.1974413247296596  1.0000
  O   O12       1.0  0.17293723209675696  0.7883063314742812  0.19746171922236036  1.0000
  O   O13       1.0  0.02448459086650701  0.40895395258448275  0.19751826233221684  1.0000
  O   O14       1.0  0.2255818648076726  0.9615783041463288  0.30255837537858093  1.0000
  O   O15       1.0  0.07706312124146551  0.9616927480985281  0.302536909977661  1.0000
  O   O16       1.0  0.07711933369861868  0.3410096943086954  0.30261370940491616  1.0000
  O   O17       1.0  0.0979996147379723  0.9804627497264635  0.8107709533332467  1.0000
  O   O18       1.0  0.1519187307224427  0.9195800858452755  0.6892794718212298  1.0000
  O   O19       1.0  0.15200179815105488  0.7695376786585797  0.6892304442096416  1.0000
  O   O20       1.0  0.7127687913327634  0.8304038170351973  0.8107606840233501  1.0000
  O   O21       1.0  0.5371737357247354  0.7695602454395994  0.6893259425045031  1.0000
  O   O22       1.0  0.5372320510104059  0.9195966452447095  0.6892385691828551  1.0000
  O   O23       1.0  0.09808437836543496  0.8304143417324353  0.8107197451679723  1.0000
  O   O24       1.0  0.712831515867201  0.9804409500090613  0.8106749102018682  1.0000
  O   O25       1.0  0.23044113432063534  0.4628277368124144  0.31067549131817873  1.0000
  O   O26       1.0  0.16960021904489508  0.2872331775242927  0.18924004815921336  1.0000
  O   O27       1.0  0.019537723019880045  0.9020003210913855  0.1892296358085374  1.0000
  O   O28       1.0  0.16958338048792848  0.9019155315970481  0.1892802591961029  1.0000
  O   O29       1.0  0.019562925602244284  0.28716969057126107  0.18932332520501655  1.0000
  O   O30       1.0  0.23045893978689233  0.8479993141457384  0.3107697562894457  1.0000
  O   O31       1.0  0.0804152234556241  0.8480842506084513  0.31071774416561476  1.0000
  O   O32       1.0  0.08040497794699768  0.46277285474291563  0.3107626445881309  1.0000
  O   O33       1.0  0.32575764149350306  0.3256250638064913  2.5732494108682775e-06  1.0000
  O   O34       1.0  0.9244649768700055  0.07553173083033475  0.5000005311497162  1.0000
  O   O35       1.0  0.9242386905687566  0.4243752935121206  0.4999969472944982  1.0000
  O   O36       1.0  0.6743763525642092  0.674238589921643  0.999995653199079  1.0000
  O   O37       1.0  0.5754888883670046  0.4245072847925613  0.49999796341171526  1.0000
  O   O38       1.0  0.5756205609772777  0.07576095254489701  0.5000017563482969  1.0000
  O   O39       1.0  0.3255362016510616  0.6744636299026537  0.9999988871861162  1.0000
  O   O40       1.0  0.6745120766921601  0.3254955904062626  4.479193819425269e-06  1.0000
