data_image0
_chemical_formula_structural       CuH12C12N2O8
_chemical_formula_sum              "Cu1 H12 C12 N2 O8"
_cell_length_a       3.6749747027988766
_cell_length_b       9.840027540236303
_cell_length_c       10.047058019654914
_cell_angle_alpha    64.53412533527316
_cell_angle_beta     78.60288134039978
_cell_angle_gamma    84.41923424161877

_space_group_name_H-M_alt    "P 1"
_space_group_IT_number       1

loop_
  _space_group_symop_operation_xyz
  'x, y, z'

loop_
  _atom_site_type_symbol
  _atom_site_label
  _atom_site_symmetry_multiplicity
  _atom_site_fract_x
  _atom_site_fract_y
  _atom_site_fract_z
  _atom_site_occupancy
  Cu  Cu1       1.0  0.0827774081486155  0.0009661579384995991  0.5778371385437425  1.0000
  H   H1        1.0  0.7537306693072595  0.7812900710770379  0.8067678909443927  1.0000
  H   H2        1.0  0.5061215119816468  0.9327516437453338  0.789064506974036  1.0000
  H   H3        1.0  0.6601733622032598  0.0683596866757128  0.36697391195868095  1.0000
  H   H4        1.0  0.4157920353470388  0.22040059045940547  0.34944272246022495  1.0000
  H   H5        1.0  0.10397599839186003  0.3699948222936555  0.08582736296420286  1.0000
  H   H6        1.0  0.06851054200001272  0.631470861492552  0.0696329480618019  1.0000
  H   H7        1.0  0.41035039128264833  0.6005783627007515  0.5247379806428044  1.0000
  H   H8        1.0  0.7586424655933259  0.40150764908648273  0.6310929728174274  1.0000
  H   H9        1.0  0.1802313453446374  0.15102592594967487  0.04093432550251212  1.0000
  H   H10       1.0  0.9897890466631836  0.850397137440673  0.11455637081549949  1.0000
  H   H11       1.0  0.6717420588125621  0.6270319307891866  0.6917901231657171  1.0000
  H   H12       1.0  0.5005550119823214  0.3751156467470692  0.46392639113999223  1.0000
  C   C1        1.0  0.09136860558198381  0.8699472942496411  0.3707587047026524  1.0000
  C   C2        1.0  0.07549242582065568  0.1317054685037462  0.7849411691889759  1.0000
  C   C3        1.0  0.3393014160173351  0.6054082428343577  0.42281414686657115  1.0000
  C   C4        1.0  0.8904805693699913  0.5124054066512826  0.8967974155256472  1.0000
  C   C5        1.0  0.8306584454189336  0.3965682625312255  0.7329059847303584  1.0000
  C   C6        1.0  0.28193624610110385  0.48935927230483867  0.25882122903636434  1.0000
  C   C7        1.0  0.07129235387562721  0.25264823944807085  0.9587123185690205  1.0000
  C   C8        1.0  0.09903265861328953  0.7489412331927312  0.19684134659885902  1.0000
  C   C9        1.0  0.7821711598520907  0.5199474690105248  0.7652900348971272  1.0000
  C   C10       1.0  0.18399380736008206  0.7415836700230826  0.3277592907632326  1.0000
  C   C11       1.0  0.9850597616595211  0.26014185067461426  0.827940680245604  1.0000
  C   C12       1.0  0.38933788759280935  0.4820395749875105  0.3903933809850528  1.0000
  N   N1        1.0  0.01991287449850892  0.3740508473402286  0.9903244836379558  1.0000
  N   N2        1.0  0.15209012354252854  0.6275676934554822  0.16519477687841544  1.0000
  O   O1        1.0  0.6698239832120906  0.8801107057484641  0.7303770864083036  1.0000
  O   O2        1.0  0.4975736441504354  0.12108860114851437  0.42584620525316563  1.0000
  O   O3        1.0  0.16416514227815782  0.8468964485079339  0.4992409468392582  1.0000
  O   O4        1.0  0.0020728413984372044  0.15504089295897214  0.6564771664633328  1.0000
  O   O5        1.0  0.8755342565305924  0.6229706604666843  0.9322162176583364  1.0000
  O   O6        1.0  0.9408664712248582  0.9868757395514434  0.28382710096009584  1.0000
  O   O7        1.0  0.2976686528284205  0.3787729062553922  0.22339076277297923  1.0000
  O   O8        1.0  0.22486862523336984  0.014430777267534693  0.8718532668852675  1.0000
