data_image0
_chemical_formula_structural       Al2H18C42N6Cl6O12
_chemical_formula_sum              "Al2 H18 C42 N6 Cl6 O12"
_cell_length_a       3.976045659083574
_cell_length_b       27.93928126655824
_cell_length_c       27.94005697652794
_cell_angle_alpha    120.00024697741979
_cell_angle_beta     89.9999694865873
_cell_angle_gamma    90.00067010218635

_space_group_name_H-M_alt    "P 1"
_space_group_IT_number       1

loop_
  _space_group_symop_operation_xyz
  'x, y, z'

loop_
  _atom_site_type_symbol
  _atom_site_label
  _atom_site_symmetry_multiplicity
  _atom_site_fract_x
  _atom_site_fract_y
  _atom_site_fract_z
  _atom_site_occupancy
  Al  Al1       1.0  0.010281103206629904  0.49999573639492906  0.5000005279217348  1.0000
  Al  Al2       1.0  0.010286048726264598  0.16667040273924957  0.8333395646302719  1.0000
  H   H1        1.0  0.4695749564008764  0.17785014927328985  0.689265148903715  1.0000
  H   H2        1.0  0.4796854470229448  0.2321722376699711  0.6398465342038692  1.0000
  H   H3        1.0  0.511119562616372  0.38290256070840195  0.7967393493818449  1.0000
  H   H4        1.0  0.5111388026554238  0.2837660515824111  0.5365977105622477  1.0000
  H   H5        1.0  0.47967625609695114  0.4344931822416526  0.6934886075644471  1.0000
  H   H6        1.0  0.46955056062061123  0.488815869021593  0.644069362436916  1.0000
  H   H7        1.0  0.4695146672306194  0.011411494356138866  0.8221495162541431  1.0000
  H   H8        1.0  0.4796382479876656  0.9076676929359023  0.7678254657579513  1.0000
  H   H9        1.0  0.5111778520816941  0.9138436377677123  0.617104789430506  1.0000
  H   H10       1.0  0.5111405333610223  0.7528244253032098  0.7162296305742898  1.0000
  H   H11       1.0  0.4796627523479772  0.7589974247942949  0.5655089362876211  1.0000
  H   H12       1.0  0.46953036778966617  0.655253712119972  0.5111829434890467  1.0000
  H   H13       1.0  0.4695796617419816  0.31074201828011627  0.9885887052965643  1.0000
  H   H14       1.0  0.4796875487777683  0.3601580738403172  0.09233175848073925  1.0000
  H   H15       1.0  0.5111367894203269  0.20326061141138038  0.0861559750298682  1.0000
  H   H16       1.0  0.5111624128029105  0.46340516325051334  0.24717606792900426  1.0000
  H   H17       1.0  0.4796495997229968  0.3065055672728292  0.24100231810329117  1.0000
  H   H18       1.0  0.4695534005211996  0.3559249522193966  0.34474055903893935  1.0000
  C   C1        1.0  0.5077036810641644  0.4634417227496569  0.41544454023372873  1.0000
  C   C2        1.0  0.5077003038090808  0.45199715598732126  0.5365499838831909  1.0000
  C   C3        1.0  0.5077008601432809  0.5845470460622337  0.5479971090337301  1.0000
  C   C4        1.0  0.5076969731852472  0.2146696188807766  0.7967831760185362  1.0000
  C   C5        1.0  0.5076964167709548  0.08211811614768984  0.7853398108692886  1.0000
  C   C6        1.0  0.5077112012117128  0.20322126630300358  0.9178852471922312  1.0000
  C   C7        1.0  0.5002514382189674  0.2495647020855854  0.7702506898015641  1.0000
  C   C8        1.0  0.4827506874958587  0.2228709894699037  0.7122259579486397  1.0000
  C   C9        1.0  0.4873269306955593  0.25259035170627425  0.6847444464004794  1.0000
  C   C10       1.0  0.5000655707359769  0.3106814794448881  0.7156440267388576  1.0000
  C   C11       1.0  0.5084492457619522  0.33790066347000897  0.7734961966762128  1.0000
  C   C12       1.0  0.5118935069651657  0.30751464378338506  0.8006429219375734  1.0000
  C   C13       1.0  0.5084646132871669  0.3287632753280718  0.5598390857311912  1.0000
  C   C14       1.0  0.5000778571464366  0.35598213894402153  0.6176901178542735  1.0000
  C   C15       1.0  0.48732383213636155  0.41407215091211913  0.6485914893020706  1.0000
  C   C16       1.0  0.4827377057462385  0.4437925771435047  0.6211110467268028  1.0000
  C   C17       1.0  0.5002440982677996  0.4170982967366896  0.5630840748819494  1.0000
  C   C18       1.0  0.5119015607421673  0.35914826910929065  0.5326933972261045  1.0000
  C   C19       1.0  0.5002166414496827  0.02068692624037263  0.7504373274747422  1.0000
  C   C20       1.0  0.4826974835777449  0.9893519113521945  0.7771289308792217  1.0000
  C   C21       1.0  0.4872926825436679  0.9321497628165998  0.7474084258349121  1.0000
  C   C22       1.0  0.5000682233235451  0.904961483543687  0.6893185170553124  1.0000
  C   C23       1.0  0.5084673983755863  0.9355992946524411  0.6621032807142981  1.0000
  C   C24       1.0  0.5118851977677393  0.9931310503899555  0.6924906183179546  1.0000
  C   C25       1.0  0.5084586948135622  0.7310676740617694  0.671232940849663  1.0000
  C   C26       1.0  0.5000673182573011  0.7617063492476246  0.64401609805288  1.0000
  C   C27       1.0  0.4873099530048607  0.7345170095371288  0.585927209178152  1.0000
  C   C28       1.0  0.4827276918937926  0.6773129103594681  0.5562043452544855  1.0000
  C   C29       1.0  0.5002436842819691  0.6459784969355978  0.5828957287447735  1.0000
  C   C30       1.0  0.5119019836848935  0.6735373019326404  0.6408478096448321  1.0000
  C   C31       1.0  0.5002549774235306  0.22974878477668148  0.9793166002922079  1.0000
  C   C32       1.0  0.48275562320868903  0.287778183414126  0.010651531054484985  1.0000
  C   C33       1.0  0.48733653807995836  0.31525814667863017  0.06785567651375146  1.0000
  C   C34       1.0  0.5000814752418705  0.28435484463789606  0.09504222428643766  1.0000
  C   C35       1.0  0.5084643322406562  0.2264999427866599  0.06440323741544057  1.0000
  C   C36       1.0  0.5119014491525249  0.19935475256192353  0.006875087378453752  1.0000
  C   C37       1.0  0.508472758271651  0.4401601102715063  0.26893093927519357  1.0000
  C   C38       1.0  0.5000776389278911  0.3823053823372291  0.23829461514461767  1.0000
  C   C39       1.0  0.487317335885841  0.35140480572257354  0.26548555532147594  1.0000
  C   C40       1.0  0.4827434263761816  0.37888591807789135  0.3226842423765176  1.0000
  C   C41       1.0  0.5002531343056872  0.4369127675282413  0.35401961084827593  1.0000
  C   C42       1.0  0.5119118199320454  0.46730538886140494  0.32646330671712315  1.0000
  N   N1        1.0  0.5013322092637439  0.3458475635268739  0.6928383723173113  1.0000
  N   N2        1.0  0.5013539460476296  0.3208179727719839  0.6404931426921224  1.0000
  N   N3        1.0  0.5013510704948345  0.8469924086593538  0.65415236781935  1.0000
  N   N4        1.0  0.5013347435589353  0.8196741464455356  0.6791813815142405  1.0000
  N   N5        1.0  0.5013473380224767  0.3071557770805029  0.15300535507401486  1.0000
  N   N6        1.0  0.5013394131267148  0.35950417975649873  0.1803246003779931  1.0000
  Cl  Cl1       1.0  0.512785115925098  0.34286364368801253  0.8720597961512413  1.0000
  Cl  Cl2       1.0  0.5128006757650779  0.3238009796662098  0.46127409967355965  1.0000
  Cl  Cl3       1.0  0.5128227820723764  0.02920606818722849  0.6571466265976227  1.0000
  Cl  Cl4       1.0  0.5127982207017326  0.6374638429452587  0.6761884240963524  1.0000
  Cl  Cl5       1.0  0.5127958135190483  0.12794547546061333  0.970801376409  1.0000
  Cl  Cl6       1.0  0.5128176441028741  0.5387253027726758  0.362534954653036  1.0000
  O   O1        1.0  0.7475636965272159  0.5589467668080984  0.5555421647711611  1.0000
  O   O2        1.0  0.7475614077616867  0.49658715375836243  0.4410493611691635  1.0000
  O   O3        1.0  0.7475690626644179  0.4444509920573125  0.5034065548614208  1.0000
  O   O4        1.0  0.2761307509517509  0.5621694233325271  0.5119078361581656  1.0000
  O   O5        1.0  0.27612245935483065  0.48808811367657506  0.5502646373340099  1.0000
  O   O6        1.0  0.27613878765471606  0.44972998698538896  0.4378236174276394  1.0000
  O   O7        1.0  0.747573820648789  0.17007507676603226  0.8922876716651089  1.0000
  O   O8        1.0  0.7475611356980849  0.22221279574408467  0.82992748915256  1.0000
  O   O9        1.0  0.7475614717633121  0.10771858907818191  0.7777967535350357  1.0000
  O   O10       1.0  0.2761249747431406  0.2169354125213943  0.8955108994277056  1.0000
  O   O11       1.0  0.2761204360859182  0.10449498344443225  0.8214298207846156  1.0000
  O   O12       1.0  0.27614130301945744  0.17857681715990018  0.7830710639765145  1.0000
