data_image0
_chemical_formula_structural       Ni4H44C48N12O20
_chemical_formula_sum              "Ni4 H44 C48 N12 O20"
_cell_length_a       8.691563447008814
_cell_length_b       11.60834241931374
_cell_length_c       13.851378178947746
_cell_angle_alpha    104.4193032779436
_cell_angle_beta     90.00016364147096
_cell_angle_gamma    89.99995124823431

_space_group_name_H-M_alt    "P 1"
_space_group_IT_number       1

loop_
  _space_group_symop_operation_xyz
  'x, y, z'

loop_
  _atom_site_type_symbol
  _atom_site_label
  _atom_site_symmetry_multiplicity
  _atom_site_fract_x
  _atom_site_fract_y
  _atom_site_fract_z
  _atom_site_occupancy
  Ni  Ni1       1.0  0.631313152749492  0.18582516811330402  0.9692191538694174  1.0000
  Ni  Ni2       1.0  0.1313134265113263  0.3141747638940871  0.5307815338093462  1.0000
  Ni  Ni3       1.0  0.3686847117278945  0.8141762547559781  0.03077967922563123  1.0000
  Ni  Ni4       1.0  0.8686844379729665  0.685823081571982  0.4692194245719038  1.0000
  H   H1        1.0  0.6065631107165503  0.06588100886749969  0.105197013985169  1.0000
  H   H2        1.0  0.10656030842673662  0.43411834450427744  0.39480410826845974  1.0000
  H   H3        1.0  0.3934405064708031  0.9341195098586823  0.8948037922707713  1.0000
  H   H4        1.0  0.8934421582198555  0.5658795058575307  0.6051961291997188  1.0000
  H   H5        1.0  0.55223802333952  0.20079186245590117  0.1418057943890574  1.0000
  H   H6        1.0  0.05223520809288831  0.29920928065587304  0.35819489039537444  1.0000
  H   H7        1.0  0.447764443303548  0.7992086660623271  0.8581935700316025  1.0000
  H   H8        1.0  0.9477672585552812  0.7007894542647577  0.6418062575855217  1.0000
  H   H9        1.0  0.2774998671819732  0.1298326890226846  0.4203829620348004  1.0000
  H   H10       1.0  0.7775010539909532  0.37016576111722804  0.07961755097071695  1.0000
  H   H11       1.0  0.7224991478398621  0.8701669451449235  0.5796169337043652  1.0000
  H   H12       1.0  0.22250026211615653  0.6298338632582842  0.9203837866047451  1.0000
  H   H13       1.0  0.54478474002633  0.6041631465335869  0.7118996444342115  1.0000
  H   H14       1.0  0.0447837950507477  0.8958350227104719  0.7880987520459612  1.0000
  H   H15       1.0  0.45521772661344073  0.39583739177661664  0.2880982781521837  1.0000
  H   H16       1.0  0.9552186715924762  0.10416372689812188  0.2119002331835347  1.0000
  H   H17       1.0  0.47816851920461545  0.22115661136906795  0.660844762287013  1.0000
  H   H18       1.0  0.978165243666091  0.2788415136310078  0.8391547156654653  1.0000
  H   H19       1.0  0.521831646353789  0.7788368113027532  0.3391516435326949  1.0000
  H   H20       1.0  0.021830319734121403  0.7211616734600595  0.1608466593701223  1.0000
  H   H21       1.0  0.29744365594758904  0.9218963645040718  0.7549137812009761  1.0000
  H   H22       1.0  0.7974436318310297  0.5781044259204223  0.745088513024541  1.0000
  H   H23       1.0  0.7025530579987134  0.07810502898934153  0.2450893773958569  1.0000
  H   H24       1.0  0.20255538319402433  0.4218960879100279  0.2549130141444778  1.0000
  H   H25       1.0  0.14772883976365142  0.9843800542703249  0.4772680034140323  1.0000
  H   H26       1.0  0.6477278711236992  0.5156210704161595  0.02273325291005081  1.0000
  H   H27       1.0  0.8522701752632785  0.0156177862996998  0.5227336758853696  1.0000
  H   H28       1.0  0.35227229444196695  0.48438389068829224  0.9772692222378936  1.0000
  H   H29       1.0  0.4535279167823776  0.2577100210246784  0.4000995262866454  1.0000
  H   H30       1.0  0.9535327941683464  0.24228930423684866  0.09990076563462226  1.0000
  H   H31       1.0  0.5464687971606212  0.7422913822607099  0.5999021904759232  1.0000
  H   H32       1.0  0.04647197355512841  0.7577103397224293  0.9000976882753449  1.0000
  H   H33       1.0  0.558488549816687  0.196281535166932  0.4855149454021728  1.0000
  H   H34       1.0  0.05849106214944302  0.3037178626240403  0.014480324791861699  1.0000
  H   H35       1.0  0.44151161574448144  0.803718103896607  0.5144842294208729  1.0000
  H   H36       1.0  0.9415114044820785  0.696282700166101  0.9855139932088691  1.0000
  H   H37       1.0  0.6916292782213491  0.42804359439809064  0.5983415595926687  1.0000
  H   H38       1.0  0.19162922259639  0.07195546114963491  0.9016561611235971  1.0000
  H   H39       1.0  0.3083720378723385  0.5719587375097674  0.4016545794324742  1.0000
  H   H40       1.0  0.80837094296313  0.9280441828098915  0.09834229278231993  1.0000
  H   H41       1.0  0.2549081760400825  0.5863992593129977  0.6798711865691232  1.0000
  H   H42       1.0  0.7549069605024458  0.9135971031719594  0.8201279219609674  1.0000
  H   H43       1.0  0.745091989527687  0.4136003601665905  0.3201308719224584  1.0000
  H   H44       1.0  0.24509435559836132  0.08639898296825521  0.179869773563631  1.0000
  C   C1        1.0  0.3158040055192615  0.1099345762880191  0.558859452765958  1.0000
  C   C2        1.0  0.8158022192981351  0.3900653355660353  0.9411415600599968  1.0000
  C   C3        1.0  0.684197310583052  0.890063283865828  0.4411393428669399  1.0000
  C   C4        1.0  0.1841990968088965  0.6099351782642871  0.058859967111047226  1.0000
  C   C5        1.0  0.40510802566515747  0.14252407714105433  0.6454371160395169  1.0000
  C   C6        1.0  0.9051035800432105  0.3574749403989089  0.8545631436619063  1.0000
  C   C7        1.0  0.5948932904389538  0.8574719992071779  0.35456202131934594  1.0000
  C   C8        1.0  0.0948942844425034  0.6425255685356106  0.14543910442322533  1.0000
  C   C9        1.0  0.39735818249096166  0.07559655197592013  0.7166286564573384  1.0000
  C   C10       1.0  0.8973567866461497  0.42440601443773573  0.7833737898049478  1.0000
  C   C11       1.0  0.6026408325355207  0.9244066253229805  0.28337416041555497  1.0000
  C   C12       1.0  0.10264337891982223  0.575595388847468  0.21662792696066194  1.0000
  C   C13       1.0  0.30222169856973846  0.9756852820792901  0.700927154101251  1.0000
  C   C14       1.0  0.8022185310315424  0.5243155225113937  0.7990729857909785  1.0000
  C   C15       1.0  0.6977784669928583  0.02431702045269901  0.2990733104256691  1.0000
  C   C16       1.0  0.19778163453277392  0.4756858856697975  0.2009280100575026  1.0000
  C   C17       1.0  0.21244020426492233  0.943717200104686  0.6146588320120614  1.0000
  C   C18       1.0  0.7124396954234202  0.55628272483861  0.8853409600548902  1.0000
  C   C19       1.0  0.7875588107569059  0.05628243406292911  0.385341063727104  1.0000
  C   C20       1.0  0.2875604701375991  0.44371869313455653  0.11465859395931942  1.0000
  C   C21       1.0  0.21978793044086595  0.010267358030340302  0.5435539418396473  1.0000
  C   C22       1.0  0.7197872506891231  0.4897316748574667  0.9564467121717614  1.0000
  C   C23       1.0  0.7802064824203898  0.9897313768907312  0.4564472061341506  1.0000
  C   C24       1.0  0.2802117643326342  0.5102688487649588  0.04355337316299314  1.0000
  C   C25       1.0  0.45473961759809367  0.24701297101785258  0.476714501196426  1.0000
  C   C26       1.0  0.9547406810466725  0.2529845898898558  0.023283250914438725  1.0000
  C   C27       1.0  0.5452582468844727  0.7529857687990217  0.5232859258632772  1.0000
  C   C28       1.0  0.045259484507973013  0.7470141793028163  0.9767128506444962  1.0000
  C   C29       1.0  0.45265033491077844  0.3654461428581187  0.5500234491051401  1.0000
  C   C30       1.0  0.9526500318702136  0.13455199472133472  0.9499745420421207  1.0000
  C   C31       1.0  0.5473498306554135  0.63455259206264  0.44997769887372396  1.0000
  C   C32       1.0  0.04735128422699831  0.8654476590301029  0.05002247003054095  1.0000
  C   C33       1.0  0.5675848494061811  0.4379602502911483  0.5996510121705398  1.0000
  C   C34       1.0  0.0675836486032182  0.06203791956023961  0.900347742165934  1.0000
  C   C35       1.0  0.43241761723366784  0.5620393985642451  0.4003467208202736  1.0000
  C   C36       1.0  0.9324188180382792  0.9379617243991589  0.09965071174200803  1.0000
  C   C37       1.0  0.3403334985851958  0.5215426940102218  0.64403895175694  1.0000
  C   C38       1.0  0.8403312220463237  0.978453659143078  0.8559603073268819  1.0000
  C   C39       1.0  0.6596678175234844  0.4784578149241128  0.3559632963312325  1.0000
  C   C40       1.0  0.15966779297235695  0.0215442059068849  0.1440377673868554  1.0000
  C   C41       1.0  0.48606508553404404  0.11591558246841062  0.8111248916187392  1.0000
  C   C42       1.0  0.9860644545710784  0.3840843107865623  0.6888764212785077  1.0000
  C   C43       1.0  0.5139350800302013  0.8840867151675911  0.18887629382532378  1.0000
  C   C44       1.0  0.013933409911409502  0.615915318485122  0.3111241953767774  1.0000
  C   C45       1.0  0.10333788028126631  0.8408884621678967  0.6004431521531616  1.0000
  C   C46       1.0  0.6033361682308823  0.6591123641484202  0.8995566372250039  1.0000
  C   C47       1.0  0.896663435824344  0.15910938819397563  0.399557085314001  1.0000
  C   C48       1.0  0.39666399732848845  0.34088905872073383  0.1004421958720769  1.0000
  N   N1        1.0  0.31311153730674596  0.1801945725346883  0.4879003122685575  1.0000
  N   N2        1.0  0.8131124732173307  0.31980387861107573  0.012099542582056727  1.0000
  N   N3        1.0  0.6868886282543514  0.8198059559836678  0.5120990521500701  1.0000
  N   N4        1.0  0.18688884288820162  0.6801948612056066  0.9879008844806876  1.0000
  N   N5        1.0  0.31202319644371107  0.4185593708544602  0.578611316548205  1.0000
  N   N6        1.0  0.8120251246186572  0.0814387673987582  0.9213885895093837  1.0000
  N   N7        1.0  0.6879746680454562  0.5814393493784565  0.42139199418003415  1.0000
  N   N8        1.0  0.18797619147847666  0.91856177580749  0.07860861215885963  1.0000
  N   N9        1.0  0.4942103255069058  0.5361523805318313  0.6579805254679343  1.0000
  N   N10       1.0  0.9942068514315496  0.9638448599550885  0.8420170316534695  1.0000
  N   N11       1.0  0.5057921411345917  0.4638472634275673  0.3420179284400078  1.0000
  N   N12       1.0  0.0057910130460712  0.03615389454974861  0.15798123265483352  1.0000
  O   O1        1.0  0.5825022566249701  0.20006896229919852  0.8216759523681176  1.0000
  O   O2        1.0  0.08250437138362801  0.2999309750401054  0.6783246492873332  1.0000
  O   O3        1.0  0.41749445731151275  0.7999315711153302  0.17832269113034022  1.0000
  O   O4        1.0  0.9174957941840634  0.7000695338942933  0.32167759879983043  1.0000
  O   O5        1.0  0.46335360134428794  0.06646857696400592  0.8840658257859602  1.0000
  O   O6        1.0  0.9633514299918461  0.4335304342131964  0.615934536570208  1.0000
  O   O7        1.0  0.5366454136773201  0.9335337255680471  0.11593463873995094  1.0000
  O   O8        1.0  0.0366441334055239  0.5664674259409709  0.3840642590576238  1.0000
  O   O9        1.0  0.0350715079370048  0.8098796163642773  0.516811605197752  1.0000
  O   O10       1.0  0.5350678414735272  0.6901203132666609  0.9831900370209966  1.0000
  O   O11       1.0  0.9649298081736223  0.19011732985481436  0.4831906054252286  1.0000
  O   O12       1.0  0.46493117354470587  0.3098828885121847  0.016809175266232008  1.0000
  O   O13       1.0  0.08333592015222281  0.7932304912496024  0.6738462977383507  1.0000
  O   O14       1.0  0.583332667650126  0.7067694429009705  0.8261539877083025  1.0000
  O   O15       1.0  0.9166630948714883  0.20676646965758036  0.3261537501312048  1.0000
  O   O16       1.0  0.41666634737147495  0.2932328596310824  0.1738464768176087  1.0000
  O   O17       1.0  0.6406720081658507  0.14879625862877793  0.10814103724844411  1.0000
  O   O18       1.0  0.14066928726661132  0.351203095912993  0.3918594242020674  1.0000
  O   O19       1.0  0.35933160901821287  0.8512042698893865  0.8918583271732248  1.0000
  O   O20       1.0  0.8593343299226249  0.6487947495527636  0.6081415341842559  1.0000
