data_image0
_chemical_formula_structural       Zn2H8C8I4N4
_chemical_formula_sum              "Zn2 H8 C8 I4 N4"
_cell_length_a       6.297623820604014
_cell_length_b       7.379098048316977
_cell_length_c       9.836168332490406
_cell_angle_alpha    89.9996276456012
_cell_angle_beta     90.00047129579072
_cell_angle_gamma    110.85480098005851

_space_group_name_H-M_alt    "P 1"
_space_group_IT_number       1

loop_
  _space_group_symop_operation_xyz
  'x, y, z'

loop_
  _atom_site_type_symbol
  _atom_site_label
  _atom_site_symmetry_multiplicity
  _atom_site_fract_x
  _atom_site_fract_y
  _atom_site_fract_z
  _atom_site_occupancy
  Zn  Zn1       1.0  0.6234431434352388  0.529833637349121  0.7500025206031466  1.0000
  Zn  Zn2       1.0  0.3765488314865734  0.47016179149474624  0.2500068176769473  1.0000
  H   H1        1.0  0.05385733875390747  0.8029869405108558  0.8809582284273033  1.0000
  H   H2        1.0  0.9461694369709759  0.1970005540238517  0.38098440674610856  1.0000
  H   H3        1.0  0.9461549267796127  0.19706213120238658  0.11903484345356219  1.0000
  H   H4        1.0  0.05380980185992705  0.8029441816518385  0.619009681603586  1.0000
  H   H5        1.0  0.6580250916950803  0.22245870391021336  0.9485437613305547  1.0000
  H   H6        1.0  0.3419590822263315  0.7775488970044151  0.44852872881381955  1.0000
  H   H7        1.0  0.34197079475976727  0.7775541019303703  0.05147167691638538  1.0000
  H   H8        1.0  0.6580474580623914  0.2224394163297987  0.5514775594917153  1.0000
  C   C1        1.0  0.030961380165045693  0.6670184490371723  0.9335079264033509  1.0000
  C   C2        1.0  0.9690534556012196  0.33297954692834253  0.43352339424587427  1.0000
  C   C3        1.0  0.9690460591151149  0.33304215011158794  0.0664780289026794  1.0000
  C   C4        1.0  0.03093752534330458  0.6669667250106527  0.5664564609261901  1.0000
  C   C5        1.0  0.8111905822240146  0.3461954904689435  0.9716973511380897  1.0000
  C   C6        1.0  0.18880134009216218  0.6538102967494909  0.4716797552578313  1.0000
  C   C7        1.0  0.18882491661940287  0.6538420414954444  0.028305887285121397  1.0000
  C   C8        1.0  0.8112000583948882  0.34616930362765425  0.528311283190483  1.0000
  I   I1        1.0  0.25716768847772187  0.23867322628131402  0.7500090113598148  1.0000
  I   I2        1.0  0.7428256980666177  0.7613178766807354  0.2500054101937934  1.0000
  I   I3        1.0  0.612647207862942  0.871573664712699  0.7500010555775345  1.0000
  I   I4        1.0  0.3873473615106278  0.1284203386038953  0.2500042160769667  1.0000
  N   N1        1.0  0.8435991731634758  0.5130758996293779  0.9054350517807848  1.0000
  N   N2        1.0  0.15640606006164853  0.48691965005274807  0.4054392388714163  1.0000
  N   N3        1.0  0.15640239902297282  0.48695863379104054  0.09456716997610928  1.0000
  N   N4        1.0  0.8435979802753907  0.5130469604495859  0.5945609494605505  1.0000
