data_image0
_chemical_formula_structural       Zr6H10C50Cl20O32
_chemical_formula_sum              "Zr6 H10 C50 Cl20 O32"
_cell_length_a       14.787576831330586
_cell_length_b       14.833904678182146
_cell_length_c       14.727044094737005
_cell_angle_alpha    60.121832031523155
_cell_angle_beta     60.81317117647481
_cell_angle_gamma    60.117645796702796

_space_group_name_H-M_alt    "P 1"
_space_group_IT_number       1

loop_
  _space_group_symop_operation_xyz
  'x, y, z'

loop_
  _atom_site_type_symbol
  _atom_site_label
  _atom_site_symmetry_multiplicity
  _atom_site_fract_x
  _atom_site_fract_y
  _atom_site_fract_z
  _atom_site_occupancy
  Zr  Zr1       1.0  0.8881886435535905  0.8776229632377762  0.6191354218903344  1.0000
  Zr  Zr2       1.0  0.1189112949756961  0.12237124955415617  0.3764224429166063  1.0000
  Zr  Zr3       1.0  0.1262333894179191  0.8825054772797358  0.6149816134110823  1.0000
  Zr  Zr4       1.0  0.8805466061838417  0.11704675558439678  0.37959699982847184  1.0000
  Zr  Zr5       1.0  0.12227411964934025  0.882220137242058  0.37752926854057023  1.0000
  Zr  Zr6       1.0  0.8833237779603704  0.11952416773380051  0.6160958151118977  1.0000
  H   H1        1.0  0.10179545618768075  0.7190635074309096  0.590971378239111  1.0000
  H   H2        1.0  0.0914192384597996  0.0965348835452815  0.21380699400685194  1.0000
  H   H3        1.0  0.09751726305476892  0.09766102499462195  0.5895578593453549  1.0000
  H   H4        1.0  0.7221300689752396  0.08645957727045317  0.5951821459460334  1.0000
  H   H5        1.0  0.1525932406703916  0.3978409700257828  0.07967179468034408  1.0000
  H   H6        1.0  0.16064223171213865  0.5665409353901153  0.9146419692414867  1.0000
  H   H7        1.0  0.7405235202258782  0.6748503518454068  0.9710418199816786  1.0000
  H   H8        1.0  0.7976099123115075  0.593513778121782  0.8870147770957147  1.0000
  H   H9        1.0  0.7855457783651045  0.4241820341048807  0.05913917932434054  1.0000
  H   H10       1.0  0.7300540488232059  0.5086260273809058  0.14009866613287886  1.0000
  C   C1        1.0  0.008213884080106666  0.6985458923971064  0.491074053506928  1.0000
  C   C2        1.0  0.30831015167015613  0.9979891344373542  0.1972580415138482  1.0000
  C   C3        1.0  0.9912918952660165  0.31098079072593526  0.491772028813273  1.0000
  C   C4        1.0  0.7070428348872828  0.9975020500025236  0.8070904851486702  1.0000
  C   C5        1.0  0.008561393357261835  0.7010966898608187  0.8032808199323184  1.0000
  C   C6        1.0  0.7046394457293418  0.9858113665969269  0.5028160618101227  1.0000
  C   C7        1.0  0.9911546800155334  0.30877323060484235  0.19975170144526563  1.0000
  C   C8        1.0  0.3093914978486509  0.00040909012577828685  0.4903340181707634  1.0000
  C   C9        1.0  0.3098212102996173  0.7012562522044801  0.49524519284150165  1.0000
  C   C10       1.0  0.006337917767695183  0.9933979053509389  0.8019875372580502  1.0000
  C   C11       1.0  0.691702425804479  0.29464803264784206  0.49974165731886433  1.0000
  C   C12       1.0  0.9903314035984324  0.9991248447343607  0.20048853091996233  1.0000
  C   C13       1.0  0.9889433588928613  0.41423634943671317  0.4914008471694305  1.0000
  C   C14       1.0  0.009323956959306738  0.5963757273382911  0.4904785711389152  1.0000
  C   C15       1.0  0.030888155799772193  0.4909606004204078  0.39133693275036313  1.0000
  C   C16       1.0  0.9681417636295251  0.5191309041279054  0.5904689182606833  1.0000
  C   C17       1.0  0.04556570453916458  0.5783000449174053  0.3906606712728262  1.0000
  C   C18       1.0  0.9540733676728906  0.4314366260454036  0.5913177209442823  1.0000
  C   C19       1.0  0.4123012419197852  0.9953389861064889  0.09807154872366662  1.0000
  C   C20       1.0  0.6040526139187462  0.9995313083515641  0.907314032975272  1.0000
  C   C21       1.0  0.49776804956653126  0.01851580537620378  0.090592103658402  1.0000
  C   C22       1.0  0.5183515764885912  0.976874426323718  0.9145788832340785  1.0000
  C   C23       1.0  0.5913541292423262  0.023100182607762976  0.995372095280601  1.0000
  C   C24       1.0  0.4241619255370498  0.973753714066319  0.009058166072911697  1.0000
  C   C25       1.0  0.004929338979948605  0.9911979491298412  0.9059734422511242  1.0000
  C   C26       1.0  0.990026865316537  0.00020458314835267394  0.09785753101622427  1.0000
  C   C27       1.0  0.048742289145884916  0.060420834092262565  0.8981899034421518  1.0000
  C   C28       1.0  0.9459127609375741  0.931238646808083  0.10565003246287599  1.0000
  C   C29       1.0  0.03872331096271618  0.06719502525610475  0.9945339237831234  1.0000
  C   C30       1.0  0.9570111066160006  0.9235307730712063  0.009195933765426163  1.0000
  C   C31       1.0  0.40518858890104786  0.5936549169529001  0.49909841958773177  1.0000
  C   C32       1.0  0.5830870521198508  0.38850993865465  0.5048645365406159  1.0000
  C   C33       1.0  0.47224244775894436  0.565033412036307  0.4026247829753873  1.0000
  C   C34       1.0  0.5143058364869475  0.41569539250140514  0.6023853183088264  1.0000
  C   C35       1.0  0.5512831619687619  0.4585326180434207  0.4087728097297187  1.0000
  C   C36       1.0  0.42353140852748095  0.5145349152898219  0.6002069094915116  1.0000
  C   C37       1.0  0.0037430418907931254  0.6037491794603297  0.9055980727406236  1.0000
  C   C38       1.0  0.9928385499720775  0.409820035893844  0.09981306642328752  1.0000
  C   C39       1.0  0.9136009053515155  0.5681170468637617  0.9591068659238218  1.0000
  C   C40       1.0  0.08437779593130294  0.4461822051539883  0.04617931091888041  1.0000
  C   C41       1.0  0.9078057978840661  0.47409216613698385  0.05359429816425651  1.0000
  C   C42       1.0  0.08947564745014366  0.5404398515516887  0.9527240507092785  1.0000
  C   C43       1.0  0.8003542050650627  0.5958909197711505  0.9588629683569891  1.0000
  C   C44       1.0  0.7934463793222548  0.490449673696041  0.06551864733221195  1.0000
  C   C45       1.0  0.4127925663796999  0.9973789206430224  0.49048194385739674  1.0000
  C   C46       1.0  0.6017877523307005  0.9867995402744612  0.5034163826520699  1.0000
  C   C47       1.0  0.5082292473248132  0.9039229063897521  0.4842589927569918  1.0000
  C   C48       1.0  0.5057898733214543  0.07942279795452827  0.5113241691200798  1.0000
  C   C49       1.0  0.6021170157293272  0.8981396059163484  0.4921764748392619  1.0000
  C   C50       1.0  0.41183797524178095  0.08518996318409928  0.5038106003458014  1.0000
  Cl  Cl1       1.0  0.05889608477269801  0.4846357051774746  0.2666498473896013  1.0000
  Cl  Cl2       1.0  0.9421355041169832  0.5242206966004302  0.7153115928867138  1.0000
  Cl  Cl3       1.0  0.11019514219294295  0.6580739338586523  0.2660785899160558  1.0000
  Cl  Cl4       1.0  0.8936937013896441  0.348447942563723  0.7165880148256605  1.0000
  Cl  Cl5       1.0  0.491785939902229  0.03805247103350235  0.19907918464582508  1.0000
  Cl  Cl6       1.0  0.524135920598958  0.9581284179949421  0.805456225652968  1.0000
  Cl  Cl7       1.0  0.6888201055343188  0.05810807036581861  0.9896713975284613  1.0000
  Cl  Cl8       1.0  0.3234657868230784  0.9451514816303119  0.011978140161218787  1.0000
  Cl  Cl9       1.0  0.12081227557776214  0.13063764312941112  0.7703942286574589  1.0000
  Cl  Cl10      1.0  0.8731741257332503  0.8622136652477791  0.2330623564148341  1.0000
  Cl  Cl11      1.0  0.08256583681480835  0.15976090706881516  0.98655706116417  1.0000
  Cl  Cl12      1.0  0.9158165608615791  0.8295098069111974  0.016838633143670956  1.0000
  Cl  Cl13      1.0  0.4640241365972103  0.6571648129357683  0.2740485159529486  1.0000
  Cl  Cl14      1.0  0.5326335873400156  0.3250213339421677  0.7278566207371071  1.0000
  Cl  Cl15      1.0  0.6013719925057258  0.4178502937387448  0.2982861130682154  1.0000
  Cl  Cl16      1.0  0.3336365714098193  0.5334262302436272  0.7239575985527508  1.0000
  Cl  Cl17      1.0  0.5115643101588104  0.7975687600305007  0.46450302039480834  1.0000
  Cl  Cl18      1.0  0.5016833232749319  0.1845633484797631  0.534192731960495  1.0000
  Cl  Cl19      1.0  0.7171640827172041  0.7818658729851363  0.48825524346940347  1.0000
  Cl  Cl20      1.0  0.2950417075282488  0.19982267259899086  0.5125418579838268  1.0000
  O   O1        1.0  0.9288044742555641  0.7407262297879954  0.5633569075403886  1.0000
  O   O2        1.0  0.2639393726958161  0.08042217395103535  0.22904174857806947  1.0000
  O   O3        1.0  0.07354723006030643  0.2672126573324292  0.42187634514319683  1.0000
  O   O4        1.0  0.7508632536667079  0.9158852444764277  0.7744973026922041  1.0000
  O   O5        1.0  0.08645524871004559  0.7386739456442226  0.7623277744388518  1.0000
  O   O6        1.0  0.7442196501826502  0.059081205926645494  0.4221258611567721  1.0000
  O   O7        1.0  0.9143590420466483  0.27007931539679925  0.2388031944625839  1.0000
  O   O8        1.0  0.2694695235974793  0.9269935746491667  0.5709868735313322  1.0000
  O   O9        1.0  0.26565036764406375  0.7383543799263846  0.42252238415674975  1.0000
  O   O10       1.0  0.9288658643529429  0.070746681203154  0.7641798357943089  1.0000
  O   O11       1.0  0.7375396599402536  0.2653001499284214  0.568489983859422  1.0000
  O   O12       1.0  0.0690636059013699  0.9230447037787072  0.23683442222340295  1.0000
  O   O13       1.0  0.08478393849892314  0.9193947595630686  0.7620529523116488  1.0000
  O   O14       1.0  0.7327494256678194  0.2534580582169568  0.4243457269084986  1.0000
  O   O15       1.0  0.9143825726347856  0.07551795162515157  0.23854771309541442  1.0000
  O   O16       1.0  0.2780336005270885  0.7454449701950023  0.5654290922516341  1.0000
  O   O17       1.0  0.9325347808540914  0.7397261929787432  0.7616083803299534  1.0000
  O   O18       1.0  0.2704414600565954  0.07581653533627275  0.41297260661193047  1.0000
  O   O19       1.0  0.0695317220828002  0.2663983101407439  0.2393288282385413  1.0000
  O   O20       1.0  0.7411037336565585  0.9134741057375564  0.5829968725128937  1.0000
  O   O21       1.0  0.7409656162523248  0.07862087565852965  0.7625007904622196  1.0000
  O   O22       1.0  0.08593459490904842  0.735879976823895  0.4185503717220912  1.0000
  O   O23       1.0  0.2721115389279521  0.9189762861220242  0.23970897311765776  1.0000
  O   O24       1.0  0.9141784329401336  0.2726975966851981  0.56411194867151  1.0000
  O   O25       1.0  0.8019793253227334  0.06203291895706533  0.5678673396129525  1.0000
  O   O26       1.0  0.07004897562318038  0.07027578727674208  0.5636967823909202  1.0000
  O   O27       1.0  0.06656737699007206  0.0681770519956046  0.29408850944613363  1.0000
  O   O28       1.0  0.07390586006848576  0.7991744894203022  0.5645571943539737  1.0000
  O   O29       1.0  0.15150482909179885  0.953506945116345  0.4461933489960189  1.0000
  O   O30       1.0  0.954492276593591  0.9490779547012661  0.4492190423455684  1.0000
  O   O31       1.0  0.9512930590833407  0.14739544544318042  0.4479610535206931  1.0000
  O   O32       1.0  0.9573202418212363  0.9509675650681044  0.6454755719374177  1.0000
