data_image0
_chemical_formula_structural       Cd2H40C52N8O14
_chemical_formula_sum              "Cd2 H40 C52 N8 O14"
_cell_length_a       9.888339034994633
_cell_length_b       11.346549481266617
_cell_length_c       14.854522928225002
_cell_angle_alpha    102.2842474986488
_cell_angle_beta     89.99459443280327
_cell_angle_gamma    115.77979144191391

_space_group_name_H-M_alt    "P 1"
_space_group_IT_number       1

loop_
  _space_group_symop_operation_xyz
  'x, y, z'

loop_
  _atom_site_type_symbol
  _atom_site_label
  _atom_site_symmetry_multiplicity
  _atom_site_fract_x
  _atom_site_fract_y
  _atom_site_fract_z
  _atom_site_occupancy
  Cd  Cd1       1.0  0.8979710204645317  0.0002059764891412998  0.250088567811467  1.0000
  Cd  Cd2       1.0  0.10203106903191642  0.9997984242666932  0.7499131794419399  1.0000
  H   H1        1.0  0.66392785527011  0.871015327550843  0.07836795582018397  1.0000
  H   H2        1.0  0.7924119322145273  0.1286405282185328  0.4219136272181672  1.0000
  H   H3        1.0  0.336065640912139  0.1289900907182115  0.9216332877541049  1.0000
  H   H4        1.0  0.2075841296062181  0.8713538297361796  0.5780830835926949  1.0000
  H   H5        1.0  0.7937810077293506  0.08951577109505848  0.8615131568461506  1.0000
  H   H6        1.0  0.7048561153160833  0.9098276101380661  0.6385430005606807  1.0000
  H   H7        1.0  0.2062235731794074  0.9104976667295474  0.13849345965844853  1.0000
  H   H8        1.0  0.2951394261027431  0.09017177965773022  0.3614552205077572  1.0000
  H   H9        1.0  0.04103700981180219  0.23969054244538057  0.958597315676606  1.0000
  H   H10       1.0  0.8021534255017855  0.7598981185478451  0.5412190694829633  1.0000
  H   H11       1.0  0.9589710838324665  0.7603238547374076  0.04141484596012649  1.0000
  H   H12       1.0  0.19782647468328213  0.24008615521837842  0.45877798396956143  1.0000
  H   H13       1.0  0.08472016912172359  0.19499427595497557  0.11236336599100841  1.0000
  H   H14       1.0  0.890369503420658  0.8049279910307661  0.38741265467008656  1.0000
  H   H15       1.0  0.9152692229617826  0.8050090018244658  0.8876523321946763  1.0000
  H   H16       1.0  0.109617981247851  0.1950593188187923  0.6125828839717541  1.0000
  H   H17       1.0  0.4093785336166889  0.4885380795444405  0.8725780304151132  1.0000
  H   H18       1.0  0.9203268928900031  0.5110900308150973  0.6276579718580068  1.0000
  H   H19       1.0  0.5906220527382118  0.5114693849698995  0.1274195140863128  1.0000
  H   H20       1.0  0.07967831461996157  0.4888922676997183  0.37233269336943664  1.0000
  H   H21       1.0  0.945660349497011  0.3609649259887107  0.7804397749755767  1.0000
  H   H22       1.0  0.5841805563248741  0.6391909913817173  0.7196590209609967  1.0000
  H   H23       1.0  0.05433869364882323  0.6390475476783023  0.21956196886816312  1.0000
  H   H24       1.0  0.4158569002033658  0.36081537789198137  0.2803464186865057  1.0000
  H   H25       1.0  0.9916834910817727  0.6019058963895816  0.8115733973888197  1.0000
  H   H26       1.0  0.389498456604251  0.39831479861432934  0.6884802009176525  1.0000
  H   H27       1.0  0.008312532533103822  0.39810458120836495  0.1884259948870337  1.0000
  H   H28       1.0  0.6105217794877619  0.6017016365235859  0.31152893331709913  1.0000
  H   H29       1.0  0.2460696032676849  0.7852536397883296  0.8712128682255695  1.0000
  H   H30       1.0  0.4606264237076658  0.2147596521945303  0.6290695241254198  1.0000
  H   H31       1.0  0.753927454540559  0.2147508098350386  0.1287835016587735  1.0000
  H   H32       1.0  0.5393685903210397  0.7852427312998671  0.3709325609878675  1.0000
  H   H33       1.0  0.5603438369910734  0.7176636264473544  0.9388662424274727  1.0000
  H   H34       1.0  0.8420522259356176  0.2819947384948378  0.5611833647081356  1.0000
  H   H35       1.0  0.4396511829195973  0.28233876864057816  0.061134498200615915  1.0000
  H   H36       1.0  0.15794637359774547  0.71799660157685  0.4388121707995793  1.0000
  H   H37       1.0  0.6132433880589545  0.0373529898803184  0.2096100295230272  1.0000
  H   H38       1.0  0.5765239535234626  0.9639531014894301  0.2904299143532327  1.0000
  H   H39       1.0  0.3867551795013142  0.9626443602769681  0.7903905449896484  1.0000
  H   H40       1.0  0.423470095762326  0.0360372275518372  0.7095661263200627  1.0000
  C   C1        1.0  0.7439993885046691  0.9496850093791096  0.047578422491241716  1.0000
  C   C2        1.0  0.7941791214686803  0.04996859263869169  0.4526033030377193  1.0000
  C   C3        1.0  0.2560001651139104  0.0503203885075791  0.952424837124788  1.0000
  C   C4        1.0  0.2058134136401576  0.9500207296728859  0.5473925702155286  1.0000
  C   C5        1.0  0.7099254971471184  0.9669223230423611  0.9614726991431725  1.0000
  C   C6        1.0  0.7430407709270526  0.032654128219313294  0.5387428044337312  1.0000
  C   C7        1.0  0.29007052975954656  0.033078039201186  0.0385297229152428  1.0000
  C   C8        1.0  0.2569492378553873  0.9673321613123133  0.4612539108158913  1.0000
  C   C9        1.0  0.8169766430878909  0.0735246577863364  0.9284619350770671  1.0000
  C   C10       1.0  0.74389432856497  0.9259987643755209  0.5716020433422173  1.0000
  C   C11       1.0  0.1830228910500366  0.9264827260719102  0.07154502093506919  1.0000
  C   C12       1.0  0.25609616020106074  0.073994559860374  0.42839786171895616  1.0000
  C   C13       1.0  0.9540595009403036  0.15691613211937036  0.9822487926236079  1.0000
  C   C14       1.0  0.7977461376364448  0.8427118331194022  0.5176812357185058  1.0000
  C   C15       1.0  0.04594760186992631  0.843092232289422  0.017761019092908715  1.0000
  C   C16       1.0  0.20224333714539  0.15728148581840168  0.4823193416996078  1.0000
  C   C17       1.0  0.9792495538347198  0.13306143109659269  0.0674445228647045  1.0000
  C   C18       1.0  0.8467077120546873  0.866742667495444  0.4324880593388656  1.0000
  C   C19       1.0  0.020751995401433028  0.8669439136218172  0.9325647867060098  1.0000
  C   C20       1.0  0.1532807623416303  0.13324864857916907  0.567510838525273  1.0000
  C   C21       1.0  0.5569554166304868  0.8831164367127399  0.9095023774035766  1.0000
  C   C22       1.0  0.6739926944798142  0.11658343690206147  0.5909963687044597  1.0000
  C   C23       1.0  0.4430496883496957  0.1168879277664487  0.09050340296239058  1.0000
  C   C24       1.0  0.32599630951909103  0.8834089385718397  0.4089966465106869  1.0000
  C   C25       1.0  0.3451526428375402  0.6502417046093356  0.8764149683467509  1.0000
  C   C26       1.0  0.694570753029069  0.3495705996015416  0.623993972072256  1.0000
  C   C27       1.0  0.6548423686278967  0.34976674693835014  0.12358543334551801  1.0000
  C   C28       1.0  0.30542783951609925  0.6504187023276701  0.3760039172227323  1.0000
  C   C29       1.0  0.3186890082293842  0.5154439239439127  0.8602385165138103  1.0000
  C   C30       1.0  0.802806480862685  0.48434408766692627  0.6400561310465421  1.0000
  C   C31       1.0  0.681302985539851  0.48456051078252915  0.13975987067004778  1.0000
  C   C32       1.0  0.1972042489767674  0.5156431933227522  0.3599414216932005  1.0000
  C   C33       1.0  0.17517042299427027  0.41166885330518704  0.8253422216040393  1.0000
  C   C34       1.0  0.7630576432221756  0.5882871400293437  0.674867574774737  1.0000
  C   C35       1.0  0.8248241066528268  0.5883345842904006  0.1746546532172033  1.0000
  C   C36       1.0  0.2369677112766624  0.41170512474387516  0.325136192205612  1.0000
  C   C37       1.0  0.0567099978886532  0.44287437533603224  0.8078497941623085  1.0000
  C   C38       1.0  0.6134036248118734  0.5572200397615745  0.6922587306883019  1.0000
  C   C39       1.0  0.9432850223997349  0.5571340936019594  0.1921485908021623  1.0000
  C   C40       1.0  0.38661819086032523  0.4427772873326035  0.3077431856796693  1.0000
  C   C41       1.0  0.08316836035897521  0.5770989744686901  0.8253264564569847  1.0000
  C   C42       1.0  0.505737276257662  0.42303755039787205  0.6747868820486574  1.0000
  C   C43       1.0  0.9168271667326522  0.42290646019332456  0.1746727701608322  1.0000
  C   C44       1.0  0.4942764249776915  0.5769658023648603  0.32521872975382854  1.0000
  C   C45       1.0  0.22630332222495733  0.6811687577178771  0.8589455706435984  1.0000
  C   C46       1.0  0.5448828762681046  0.3188203681074313  0.6413792704036752  1.0000
  C   C47       1.0  0.7736911967644389  0.3188366832395814  0.1410529838459595  1.0000
  C   C48       1.0  0.4551207288623259  0.6811769447758563  0.3586253369928656  1.0000
  C   C49       1.0  0.15085863352666004  0.2678327921337313  0.8041709563948274  1.0000
  C   C50       1.0  0.882400625903003  0.7321192517767727  0.69596454588482  1.0000
  C   C51       1.0  0.849137420226576  0.7321736961307933  0.1958230598165969  1.0000
  C   C52       1.0  0.1176217219350519  0.26787306666339816  0.3040331712551847  1.0000
  N   N1        1.0  0.8757486030987495  0.031890352496923  0.0996249322033762  1.0000
  N   N2        1.0  0.8440163687449029  0.9679430601302599  0.4004201702963854  1.0000
  N   N3        1.0  0.12424590302047996  0.9681130387245177  0.9003773205586398  1.0000
  N   N4        1.0  0.1559756595606956  0.032049296457302  0.5995748613035304  1.0000
  N   N5        1.0  0.4920984920377977  0.750423437238034  0.9121163766714702  1.0000
  N   N6        1.0  0.7413623203610841  0.2492493751468032  0.5882175666401892  1.0000
  N   N7        1.0  0.507898074400643  0.24958002834404883  0.08787713670809438  1.0000
  N   N8        1.0  0.2586347767592584  0.7507409813822787  0.4117751124770876  1.0000
  O   O1        1.0  0.49605649059640905  0.9361321267808335  0.8697271954429198  1.0000
  O   O2        1.0  0.5606088713532387  0.0637243492213386  0.6311402886067441  1.0000
  O   O3        1.0  0.5039435294070742  0.0638823033752161  0.1302816058955756  1.0000
  O   O4        1.0  0.4393781215946575  0.9362720977380974  0.368848691505157  1.0000
  O   O5        1.0  0.0239248062036808  0.1764536269612833  0.7612724073606643  1.0000
  O   O6        1.0  0.8468886361768997  0.8235633975737144  0.7389994517181863  1.0000
  O   O7        1.0  0.9760737679939809  0.82355588248965  0.23872211133958393  1.0000
  O   O8        1.0  0.1531291731775042  0.1764279330231133  0.2609960816170087  1.0000
  O   O9        1.0  0.2573781369964721  0.24307895707556784  0.8282390961965546  1.0000
  O   O10       1.0  0.013505702193384582  0.7568111654359413  0.6716404921716332  1.0000
  O   O11       1.0  0.7426174349384241  0.7569225172368589  0.17175139314383608  1.0000
  O   O12       1.0  0.9865186511914248  0.2431831437752052  0.32836024889319765  1.0000
  O   O13       1.0  0.6555100595226763  0.0010206663683902995  0.250238349202057  1.0000
  O   O14       1.0  0.3444905010918974  0.9989826986739062  0.7497665918442921  1.0000
