data_image0
_chemical_formula_structural       Al2H24C54N6O36
_chemical_formula_sum              "Al2 H24 C54 N6 O36"
_cell_length_a       4.2138563643869285
_cell_length_b       27.989059007339904
_cell_length_c       27.98899360418667
_cell_angle_alpha    120.00006059188283
_cell_angle_beta     89.99847516010325
_cell_angle_gamma    90.00048563198196

_space_group_name_H-M_alt    "P 1"
_space_group_IT_number       1

loop_
  _space_group_symop_operation_xyz
  'x, y, z'

loop_
  _atom_site_type_symbol
  _atom_site_label
  _atom_site_symmetry_multiplicity
  _atom_site_fract_x
  _atom_site_fract_y
  _atom_site_fract_z
  _atom_site_occupancy
  Al  Al1       1.0  0.9988648321902647  0.5000066549126602  0.5000077464491568  1.0000
  Al  Al2       1.0  0.9759346521810529  0.1666631208676251  0.8333314636298185  1.0000
  H   H1        1.0  0.26202154849816855  0.18742197490170298  0.6989259779499477  1.0000
  H   H2        1.0  0.29852842635157373  0.24210106230759015  0.6502460491502832  1.0000
  H   H3        1.0  0.43604296376202  0.28676289478683253  0.5401220502737232  1.0000
  H   H4        1.0  0.46648039557828  0.4366897719930521  0.6978938397960235  1.0000
  H   H5        1.0  0.2620088446713709  0.011500055899730946  0.812571966353147  1.0000
  H   H6        1.0  0.2985638951721725  0.90814068583542  0.7578969098637528  1.0000
  H   H7        1.0  0.43594593195085457  0.7533704270509177  0.7132465694016831  1.0000
  H   H8        1.0  0.46642086282837164  0.7611934554619424  0.5633122634458019  1.0000
  H   H9        1.0  0.2620180741139961  0.3010779456062169  0.9884959614862298  1.0000
  H   H10       1.0  0.2985454198308731  0.3497525147033258  0.09185454697077937  1.0000
  H   H11       1.0  0.4359623766646905  0.45987876995758376  0.2466435174484261  1.0000
  H   H12       1.0  0.4665339104962173  0.3021034595514324  0.23879903371576464  1.0000
  H   H13       1.0  0.3477543663280684  0.33922080920336123  0.8925719955622212  1.0000
  H   H14       1.0  0.721018736175161  0.40070637439244206  0.7452126194872548  1.0000
  H   H15       1.0  0.04375166694756421  0.38315222621081096  0.4885217516272249  1.0000
  H   H16       1.0  0.8444009706385034  0.5343626453515498  0.6675768110984848  1.0000
  H   H17       1.0  0.347804780813064  0.053344673938156006  0.6607677520871462  1.0000
  H   H18       1.0  0.720987328426645  0.8444933295278504  0.5992855821540743  1.0000
  H   H19       1.0  0.043748965930824106  0.6053847138638703  0.6168653340478585  1.0000
  H   H20       1.0  0.8445379730598929  0.6332175738840605  0.46565211908102805  1.0000
  H   H21       1.0  0.3476694200481631  0.10742397706945876  0.9466489670322958  1.0000
  H   H22       1.0  0.7209553678417748  0.2547916868455786  0.15549586171265156  1.0000
  H   H23       1.0  0.043732789589675705  0.5114733754158179  0.3946257496906326  1.0000
  H   H24       1.0  0.8446022760142426  0.3324331976789026  0.366785684870564  1.0000
  C   C1        1.0  0.4952210131907577  0.4599793961800458  0.4141918359487917  1.0000
  C   C2        1.0  0.4952144335357931  0.45421044921854303  0.5400225402305523  1.0000
  C   C3        1.0  0.49522952372962  0.585813264196304  0.5458012565204271  1.0000
  C   C4        1.0  0.47458835090352386  0.2152146115594036  0.7988531028018073  1.0000
  C   C5        1.0  0.47459298259811084  0.08362826057464193  0.7847725053940878  1.0000
  C   C6        1.0  0.47456091540207274  0.20113947404094995  0.9163627516430636  1.0000
  C   C7        1.0  0.4837139375377077  0.2506519399082023  0.7729815069835128  1.0000
  C   C8        1.0  0.3634387085680472  0.2287654341236162  0.7192628518284891  1.0000
  C   C9        1.0  0.3808559151571558  0.2589019644437441  0.6925088985182909  1.0000
  C   C10       1.0  0.5085218799350814  0.31248595719966943  0.7202614490729005  1.0000
  C   C11       1.0  0.6130062490240461  0.33665444785091125  0.7758219242081877  1.0000
  C   C12       1.0  0.6075282649345439  0.304550660107502  0.801494764103147  1.0000
  C   C13       1.0  0.4596760080947675  0.3314911864706573  0.5644614929253677  1.0000
  C   C14       1.0  0.4805907235772295  0.35755846439864314  0.6220120793774839  1.0000
  C   C15       1.0  0.4841825218793759  0.4153849637746916  0.6530382690451191  1.0000
  C   C16       1.0  0.4868555176939324  0.4462392148632475  0.6264777061392834  1.0000
  C   C17       1.0  0.4845034323546998  0.42020804245332505  0.568250710365433  1.0000
  C   C18       1.0  0.4548855486530172  0.3621906183098532  0.537659899626469  1.0000
  C   C19       1.0  0.48371666966420424  0.02232287380859779  0.7493449278051898  1.0000
  C   C20       1.0  0.3634462375063237  0.990493301284353  0.771228687192604  1.0000
  C   C21       1.0  0.38087076532304565  0.9335997837518022  0.7410908880620397  1.0000
  C   C22       1.0  0.5085393168246315  0.9077689122868691  0.6875080074383957  1.0000
  C   C23       1.0  0.6130404559009507  0.9391679198944304  0.6633435700007766  1.0000
  C   C24       1.0  0.6075549612149941  0.9969464899547233  0.695448121149809  1.0000
  C   C25       1.0  0.45961410473662306  0.7329769503417796  0.66851434120467  1.0000
  C   C26       1.0  0.4805268992928974  0.7644540137410729  0.6424420667099682  1.0000
  C   C27       1.0  0.4842024890626462  0.7376491623210697  0.5846171617153928  1.0000
  C   C28       1.0  0.4868899706741131  0.6802360274757859  0.5537671071331332  1.0000
  C   C29       1.0  0.4845231167118202  0.6480461476028692  0.5797989960847685  1.0000
  C   C30       1.0  0.45486657504527983  0.6754745584653036  0.6378221628852216  1.0000
  C   C31       1.0  0.48367612405831306  0.22701558561887236  0.9776695177170184  1.0000
  C   C32       1.0  0.36340110138863224  0.2807334289999943  0.009496101445790744  1.0000
  C   C33       1.0  0.3808107917696262  0.30748530389513457  0.06638925087865023  1.0000
  C   C34       1.0  0.5084817368136143  0.279739734713047  0.09222027359352578  1.0000
  C   C35       1.0  0.612962061819374  0.2241802715297823  0.060837497458294386  1.0000
  C   C36       1.0  0.6074940363072657  0.1985017733881023  0.003056006822156088  1.0000
  C   C37       1.0  0.459624660736779  0.43553251299183426  0.2670296872928261  1.0000
  C   C38       1.0  0.4805638845131315  0.37797816280128427  0.2355462071278893  1.0000
  C   C39       1.0  0.48422947442466585  0.3469574155518771  0.26234827933431143  1.0000
  C   C40       1.0  0.48690676467131766  0.37352723496086077  0.31976651796745154  1.0000
  C   C41       1.0  0.4844920961967532  0.43175399639576273  0.35195950790730984  1.0000
  C   C42       1.0  0.45485983613038883  0.4623430234082094  0.3245330971399055  1.0000
  C   C43       1.0  0.7570163776308688  0.3264754287543923  0.8581791207898561  1.0000
  C   C44       1.0  0.7235900132281613  0.3958935224772802  0.8105736993482253  1.0000
  C   C45       1.0  0.3794863783519205  0.3294904913373101  0.47709424347141993  1.0000
  C   C46       1.0  0.4137002654257388  0.5067010966816667  0.6611497638710587  1.0000
  C   C47       1.0  0.7570457455805837  0.031696995652609326  0.6735173281000897  1.0000
  C   C48       1.0  0.7236111956502854  0.9146785285116367  0.6040982564231854  1.0000
  C   C49       1.0  0.37949249219109754  0.6476177347583346  0.670527666818522  1.0000
  C   C50       1.0  0.4138285133884452  0.6544453590113335  0.49330829787559327  1.0000
  C   C51       1.0  0.7569349179377625  0.1418154167148415  0.968298396566496  1.0000
  C   C52       1.0  0.7234823661776347  0.18941835989888034  0.08532235183604799  1.0000
  C   C53       1.0  0.3794364851749704  0.5229020365891441  0.3523932329071258  1.0000
  C   C54       1.0  0.41383503112339787  0.3388523197954569  0.3455561402650673  1.0000
  N   N1        1.0  0.5402180992875714  0.3448703136798983  0.6950061006465731  1.0000
  N   N2        1.0  0.4599035760531436  0.3227711636765138  0.6447662724522872  1.0000
  N   N3        1.0  0.5402169996039915  0.8501291755423354  0.6551309266565681  1.0000
  N   N4        1.0  0.4598246943050484  0.8219923129847545  0.6772293250286907  1.0000
  N   N5        1.0  0.5402083698207818  0.3049965895279385  0.14986597480036323  1.0000
  N   N6        1.0  0.4598557240781247  0.35523354471671104  0.178007119447109  1.0000
  O   O1        1.0  0.7377045102747674  0.5617572546738501  0.5521047020940841  1.0000
  O   O2        1.0  0.7376769853402722  0.49034371239600455  0.438248222254188  1.0000
  O   O3        1.0  0.7376860572073625  0.44790353385412374  0.5096607622608502  1.0000
  O   O4        1.0  0.26610196472662306  0.5613456196731761  0.5128819624787296  1.0000
  O   O5        1.0  0.2660753420150571  0.4871280035068252  0.5484710891865204  1.0000
  O   O6        1.0  0.2660555948950075  0.4515338513505682  0.4386586618193816  1.0000
  O   O7        1.0  0.7067463671545584  0.1699865528421326  0.8899545818700075  1.0000
  O   O8        1.0  0.7067768357348995  0.21996165955639674  0.830002441888972  1.0000
  O   O9        1.0  0.7067923853211867  0.11003628035982874  0.7800351499268743  1.0000
  O   O10       1.0  0.2374999359991108  0.21293157259614753  0.8958377933514469  1.0000
  O   O11       1.0  0.23751569833692804  0.10414823025190856  0.8170853926697318  1.0000
  O   O12       1.0  0.23751110508609946  0.18290508902467917  0.7870681406918081  1.0000
  O   O13       1.0  0.5832741745216551  0.3407913613165477  0.9020565912379866  1.0000
  O   O14       1.0  0.04939838838667751  0.32495440246699997  0.8592097467026816  1.0000
  O   O15       1.0  0.794502030122274  0.4238929847167939  0.7846154339014859  1.0000
  O   O16       1.0  0.7485846534262566  0.41652471016323017  0.8604537824246847  1.0000
  O   O17       1.0  0.1603639652339055  0.352288538437854  0.45864340515372953  1.0000
  O   O18       1.0  0.49517515333020173  0.2846768871532391  0.4470160038105533  1.0000
  O   O19       1.0  0.6126634384092  0.5450793569073726  0.667462728237645  1.0000
  O   O20       1.0  0.145094437282431  0.5171379108975529  0.6815543922013632  1.0000
  O   O21       1.0  0.5833423615262986  0.061253995852474916  0.6591973989050218  1.0000
  O   O22       1.0  0.0494610521295797  0.03424263165712918  0.6750373587642429  1.0000
  O   O23       1.0  0.7944356336375051  0.8607133473239018  0.5760982493757255  1.0000
  O   O24       1.0  0.7486455590317221  0.9439181755850047  0.5834653770759813  1.0000
  O   O25       1.0  0.1603259288944514  0.6063766869417577  0.647741346028546  1.0000
  O   O26       1.0  0.4952783592473295  0.6623578033342453  0.7153407472645268  1.0000
  O   O27       1.0  0.6128055150791241  0.6223806036151062  0.45494054214172047  1.0000
  O   O28       1.0  0.145182692797384  0.6644119474212218  0.4828572038563194  1.0000
  O   O29       1.0  0.5831975771315073  0.09793929055634719  0.9387340370906826  1.0000
  O   O30       1.0  0.0492935290114218  0.1407861658573851  0.96574888153377  1.0000
  O   O31       1.0  0.7943824898070986  0.2153838646417867  0.13928168773550448  1.0000
  O   O32       1.0  0.7484535457416328  0.1395454258074835  0.05607704289592157  1.0000
  O   O33       1.0  0.1603133990408807  0.5413554574620036  0.3936432018536067  1.0000
  O   O34       1.0  0.49514738432124267  0.5529787586384529  0.337653544196705  1.0000
  O   O35       1.0  0.6128183820408637  0.33255829986450175  0.3776248324517296  1.0000
  O   O36       1.0  0.1452215289407093  0.31843151597256997  0.3355829038747444  1.0000
