data_image0
_chemical_formula_structural       Zn8H108C156N36O26
_chemical_formula_sum              "Zn8 H108 C156 N36 O26"
_cell_length_a       17.809156484002486
_cell_length_b       19.138797974751903
_cell_length_c       19.138782483907438
_cell_angle_alpha    120.00024185782978
_cell_angle_beta     90.00006050229939
_cell_angle_gamma    89.9999660286053

_space_group_name_H-M_alt    "P 1"
_space_group_IT_number       1

loop_
  _space_group_symop_operation_xyz
  'x, y, z'

loop_
  _atom_site_type_symbol
  _atom_site_label
  _atom_site_symmetry_multiplicity
  _atom_site_fract_x
  _atom_site_fract_y
  _atom_site_fract_z
  _atom_site_occupancy
  Zn  Zn1       1.0  0.40009978024948367  0.6666666070422593  0.3333343258537055  1.0000
  Zn  Zn2       1.0  0.9000990514473839  0.33333418159437406  0.6666664602665264  1.0000
  Zn  Zn3       1.0  0.03478458499684219  0.259400834920342  0.5520664212556524  1.0000
  Zn  Zn4       1.0  0.034785804572294396  0.29266682620338696  0.7405980395740099  1.0000
  Zn  Zn5       1.0  0.5347849446813413  0.740598706505338  0.29266773844222627  1.0000
  Zn  Zn6       1.0  0.03478629777048779  0.44793191489219436  0.7073336409573229  1.0000
  Zn  Zn7       1.0  0.534785547276499  0.5520660078666496  0.2593999438360228  1.0000
  Zn  Zn8       1.0  0.5347844819944569  0.7073318150778647  0.4479304001453031  1.0000
  H   H1        1.0  0.25856359515154986  0.849259980634294  0.4287991199778957  1.0000
  H   H2        1.0  0.2585635229568694  0.5795379232341915  0.15073950835564165  1.0000
  H   H3        1.0  0.7585628787866269  0.15074063148426825  0.5795387536259539  1.0000
  H   H4        1.0  0.25856367889374343  0.571200448094622  0.42046145636968635  1.0000
  H   H5        1.0  0.758563505098756  0.4287990435762054  0.8492599070551419  1.0000
  H   H6        1.0  0.7585633497298969  0.42046093723878636  0.5712003805876192  1.0000
  H   H7        1.0  0.18268858438764105  0.9764270050823214  0.5059393087901399  1.0000
  H   H8        1.0  0.18268957548626463  0.5295116213474813  0.02357204959579202  1.0000
  H   H9        1.0  0.6826895612112976  0.023573321752209598  0.5295124275967069  1.0000
  H   H10       1.0  0.18268871773265966  0.4940601174128218  0.47048719186104637  1.0000
  H   H11       1.0  0.6826885386843101  0.505939779049001  0.9764275108339077  1.0000
  H   H12       1.0  0.682688837343484  0.47048744005736853  0.4940601217088626  1.0000
  H   H13       1.0  0.3593322429538118  0.11002307376893569  0.4711008670359929  1.0000
  H   H14       1.0  0.35933352413271535  0.3610780748424247  0.8899768970362699  1.0000
  H   H15       1.0  0.8593325924629268  0.8899783996128291  0.3610790653575008  1.0000
  H   H16       1.0  0.3593327665467427  0.5288991305886697  0.6389221418965149  1.0000
  H   H17       1.0  0.8593320215674749  0.4711011186877485  0.11002245189129665  1.0000
  H   H18       1.0  0.859332767724176  0.6389207093297885  0.5288995543667241  1.0000
  H   H19       1.0  0.4339968841843102  0.9820672035688957  0.39416872492898836  1.0000
  H   H20       1.0  0.4339979747540211  0.4120989285138991  0.017932825990563093  1.0000
  H   H21       1.0  0.933997861390665  0.017933389913153484  0.4120992170431562  1.0000
  H   H22       1.0  0.43399823702057455  0.6058324190119605  0.5878996052593094  1.0000
  H   H23       1.0  0.9339975040755987  0.3941681454032206  0.9820668591799658  1.0000
  H   H24       1.0  0.933997790122788  0.5878988344415532  0.6058323881898176  1.0000
  H   H25       1.0  0.09137060396150788  0.1129170259644923  0.3975781913125473  1.0000
  H   H26       1.0  0.09137138900686637  0.2846612415186271  0.8870822069970641  1.0000
  H   H27       1.0  0.591371515176341  0.8870827634215317  0.28466096915583694  1.0000
  H   H28       1.0  0.09137119029085738  0.6024215223684805  0.7153386074119863  1.0000
  H   H29       1.0  0.5913715733372553  0.39757835917600914  0.11291661158806932  1.0000
  H   H30       1.0  0.5913711889020445  0.7153392190130249  0.6024219872957842  1.0000
  H   H31       1.0  0.1213439778592047  0.02272686633240543  0.3970831671601118  1.0000
  H   H32       1.0  0.12134475720039717  0.3743566465911599  0.9772724058769952  1.0000
  H   H33       1.0  0.6213448829318223  0.9772722947223685  0.37435704100750655  1.0000
  H   H34       1.0  0.12134504614871126  0.6029156698909617  0.6256440782679249  1.0000
  H   H35       1.0  0.6213448677200615  0.39708371323636277  0.022728018539041262  1.0000
  H   H36       1.0  0.6213451247137626  0.6256433441225084  0.6029165815722448  1.0000
  H   H37       1.0  0.18514764110175716  0.07705740281823378  0.37048798927830967  1.0000
  H   H38       1.0  0.18514844772025188  0.29343147332977537  0.922941980600896  1.0000
  H   H39       1.0  0.6851485498747535  0.9229416309588886  0.2934310181763704  1.0000
  H   H40       1.0  0.1851476563029948  0.6295103796006245  0.7065686455386312  1.0000
  H   H41       1.0  0.6851486027034781  0.3704886415934255  0.07705753479518762  1.0000
  H   H42       1.0  0.6851482482127478  0.7065694541273758  0.629511750595455  1.0000
  H   H43       1.0  0.5955375667981356  0.9703287669742763  0.7131767369228185  1.0000
  H   H44       1.0  0.595537250745913  0.7428486793854887  0.02967182529332028  1.0000
  H   H45       1.0  0.09553722276186957  0.029670946214224597  0.7428473637026157  1.0000
  H   H46       1.0  0.5955364021169344  0.28682438141003536  0.25715370503003493  1.0000
  H   H47       1.0  0.09553713454406677  0.7131759862836945  0.9703286745897015  1.0000
  H   H48       1.0  0.09553689121594289  0.2571522535095312  0.2868235766318321  1.0000
  H   H49       1.0  0.5932053675643303  0.12200747700752858  0.7814957272257743  1.0000
  H   H50       1.0  0.5932046898650043  0.6594883275340422  0.8779931678759493  1.0000
  H   H51       1.0  0.09320495895391188  0.8779920727989534  0.6594878095385679  1.0000
  H   H52       1.0  0.593205647754658  0.21850414405926  0.3405116422221184  1.0000
  H   H53       1.0  0.09320524571667478  0.7814957928904747  0.122007174357769  1.0000
  H   H54       1.0  0.09320544088046738  0.3405114117250108  0.2185039627064  1.0000
  H   H55       1.0  0.49082140300478017  0.1066129998969173  0.5706930601435828  1.0000
  H   H56       1.0  0.49082147264365966  0.4640796242600658  0.8933857819499378  1.0000
  H   H57       1.0  0.9908217522819808  0.8933856208961545  0.46408034963548767  1.0000
  H   H58       1.0  0.4908212805597356  0.42930607127270537  0.5359196817314781  1.0000
  H   H59       1.0  0.9908216518148475  0.570693135262033  0.1066123878008085  1.0000
  H   H60       1.0  0.9908212847589722  0.535921013531329  0.4293068712076432  1.0000
  H   H61       1.0  0.49285431863781765  0.9542950112400135  0.5031544247484021  1.0000
  H   H62       1.0  0.4928547491882753  0.5488596564541766  0.04570341210627045  1.0000
  H   H63       1.0  0.9928547324452237  0.04570272394263253  0.5488582385094746  1.0000
  H   H64       1.0  0.4928533116251045  0.49684508277626793  0.451142195634766  1.0000
  H   H65       1.0  0.9928542557828091  0.5031545066940026  0.9542948289812967  1.0000
  H   H66       1.0  0.9928534508545108  0.4511423076743455  0.4968452590558811  1.0000
  H   H67       1.0  0.7071696978288525  0.29504212898979904  0.7391938287639093  1.0000
  H   H68       1.0  0.7071690694163022  0.44415125844523107  0.7049584802768718  1.0000
  H   H69       1.0  0.20716930100340386  0.7049576991447921  0.4441503580202165  1.0000
  H   H70       1.0  0.7071696045278557  0.2608069887390201  0.5558500372705025  1.0000
  H   H71       1.0  0.2071692053707466  0.7391936735496003  0.2950423958315439  1.0000
  H   H72       1.0  0.20716868274757863  0.5558489356220379  0.2608073984081968  1.0000
  H   H73       1.0  0.6797905101144578  0.19727521471794063  0.6608956834848952  1.0000
  H   H74       1.0  0.6797893829457563  0.4636210903101343  0.8027253788414227  1.0000
  H   H75       1.0  0.17978954512157228  0.8027253408632405  0.46362036497622217  1.0000
  H   H76       1.0  0.6797903942206247  0.339104457025627  0.5363798178925733  1.0000
  H   H77       1.0  0.17979056190554127  0.660895353168094  0.19727458014154553  1.0000
  H   H78       1.0  0.17978955911202374  0.5363799193368236  0.3391048668808806  1.0000
  H   H79       1.0  0.6967441992219604  0.21462196622448448  0.7597594921030931  1.0000
  H   H80       1.0  0.6967435470999915  0.5451374035176357  0.785378382629041  1.0000
  H   H81       1.0  0.19674379691957708  0.7853786195356065  0.545137608352995  1.0000
  H   H82       1.0  0.6967440177961918  0.24024056604884692  0.4548628085503168  1.0000
  H   H83       1.0  0.1967441787473518  0.7597590557848265  0.21462130568023938  1.0000
  H   H84       1.0  0.19674429032690446  0.45486323761450365  0.24024062020091455  1.0000
  H   H85       1.0  0.4141059315660342  0.19008904700552176  0.8312861056226026  1.0000
  H   H86       1.0  0.41410689888935076  0.6411995592706604  0.8099103178740491  1.0000
  H   H87       1.0  0.914107409547945  0.8099106833743691  0.6412001799739001  1.0000
  H   H88       1.0  0.4141067928710952  0.16871108446570557  0.3587999613579527  1.0000
  H   H89       1.0  0.9141054618514276  0.8312870287638604  0.19008939015255774  1.0000
  H   H90       1.0  0.9141072845772764  0.35879951371900626  0.16871039369448934  1.0000
  H   H91       1.0  0.28518799079255064  0.1356267859130754  0.8224463102479618  1.0000
  H   H92       1.0  0.28518840073481744  0.6868220148866512  0.8643739209337153  1.0000
  H   H93       1.0  0.7851883420466945  0.864374318171869  0.6868225895386714  1.0000
  H   H94       1.0  0.2851888110503964  0.17755164922929367  0.31317731860394815  1.0000
  H   H95       1.0  0.7851880421413211  0.8224473602602628  0.13562588332724332  1.0000
  H   H96       1.0  0.7851882280214325  0.3131777342062136  0.17755227339209506  1.0000
  H   H97       1.0  0.19393712272191976  0.1337220538342052  0.7236848419460883  1.0000
  H   H98       1.0  0.19393762008810708  0.5899652981216832  0.8662797113292339  1.0000
  H   H99       1.0  0.6939374738460558  0.8662806233817407  0.5899662430728368  1.0000
  H   H100      1.0  0.19393746060832479  0.27631467686526895  0.4100344353769927  1.0000
  H   H101      1.0  0.6939361369174576  0.7236852199942804  0.13372093501348553  1.0000
  H   H102      1.0  0.6939391253040694  0.4100354497187766  0.27631470537406233  1.0000
  H   H103      1.0  0.3637283507862179  0.23312001677716424  0.636094277461531  1.0000
  H   H104      1.0  0.36372893257140493  0.40297772347093297  0.7668804652047355  1.0000
  H   H105      1.0  0.8637292701897719  0.7668805534946586  0.402977260382272  1.0000
  H   H106      1.0  0.3637294099835414  0.36390352422903766  0.5970231386742525  1.0000
  H   H107      1.0  0.8637280922581638  0.6360952393974486  0.23311966179002735  1.0000
  H   H108      1.0  0.863729863542474  0.5970233891926355  0.363903110638901  1.0000
  C   C1        1.0  0.39245367712779  0.8310126118003964  0.361430541666479  1.0000
  C   C2        1.0  0.39245085586996703  0.5304155001933138  0.16898850570662194  1.0000
  C   C3        1.0  0.8924518365007754  0.16898846919295352  0.5304152911555207  1.0000
  C   C4        1.0  0.3924521153013102  0.6385700617488227  0.4695834777347158  1.0000
  C   C5        1.0  0.8924525076038278  0.36142963552195784  0.8310124024853848  1.0000
  C   C6        1.0  0.8924523638237928  0.4695841393499194  0.6385719780438066  1.0000
  C   C7        1.0  0.349588088117045  0.9084594395840356  0.406526868012541  1.0000
  C   C8        1.0  0.3495863551731873  0.4980648455379041  0.09154075057715966  1.0000
  C   C9        1.0  0.8495856912564078  0.0915413245996318  0.49806514397359786  1.0000
  C   C10       1.0  0.3495871195494544  0.5934737539153048  0.5019328960944377  1.0000
  C   C11       1.0  0.8495875087810559  0.4065259769052005  0.908459267604904  1.0000
  C   C12       1.0  0.849586737905632  0.5019339028616869  0.5934741546763006  1.0000
  C   C13       1.0  0.2792961756787449  0.9067893170071031  0.4383776889153806  1.0000
  C   C14       1.0  0.2792955374020423  0.5315869566268888  0.09321006924837856  1.0000
  C   C15       1.0  0.7792949017226646  0.09321182131847656  0.5315871735829276  1.0000
  C   C16       1.0  0.27929517956426503  0.5616215532633005  0.46841183326431945  1.0000
  C   C17       1.0  0.779295566626196  0.438377320961976  0.9067896126082926  1.0000
  C   C18       1.0  0.7792953609091666  0.46841176911818383  0.5616219826386127  1.0000
  C   C19       1.0  0.23768724455791093  0.9769883548091232  0.48109629676068266  1.0000
  C   C20       1.0  0.23768713470115435  0.5041049348396671  0.023010481327737836  1.0000
  C   C21       1.0  0.7376870984007481  0.023011712267298024  0.5041057420836026  1.0000
  C   C22       1.0  0.23768627571514858  0.5189058082345  0.495894623851953  1.0000
  C   C23       1.0  0.7376866598673357  0.4810942935263896  0.976988240176837  1.0000
  C   C24       1.0  0.7376863948279037  0.4958929607580344  0.5189045879060713  1.0000
  C   C25       1.0  0.2671010667009881  0.049143116193057695  0.4912968347789216  1.0000
  C   C26       1.0  0.2671028873374296  0.44215310820575837  0.9508548727023507  1.0000
  C   C27       1.0  0.7671019735715987  0.9508567829667599  0.44215267872692005  1.0000
  C   C28       1.0  0.26710208130451457  0.5087054128781078  0.557848811806963  1.0000
  C   C29       1.0  0.7671007734404751  0.4912964755930887  0.049142973898661034  1.0000
  C   C30       1.0  0.7671015749425932  0.5578470613092961  0.5087041631409334  1.0000
  C   C31       1.0  0.3375614322776669  0.05258251177966858  0.4612569176536566  1.0000
  C   C32       1.0  0.3375615952529358  0.4086737238170882  0.9474164827145016  1.0000
  C   C33       1.0  0.8375612163650457  0.9474182617794116  0.4086744219070724  1.0000
  C   C34       1.0  0.33756359753153475  0.5387414337925804  0.5913238624049484  1.0000
  C   C35       1.0  0.8375611686964105  0.4612571600577908  0.052581822094623414  1.0000
  C   C36       1.0  0.8375619651038946  0.5913251909789494  0.5387433694275287  1.0000
  C   C37       1.0  0.37886683069635296  0.9815942210810179  0.4186506237903557  1.0000
  C   C38       1.0  0.37886733802136513  0.4370547043139936  0.018406084196499285  1.0000
  C   C39       1.0  0.8788666848530793  0.01840668925595423  0.4370549913412773  1.0000
  C   C40       1.0  0.37886760156786176  0.5813497133484163  0.5629432446437334  1.0000
  C   C41       1.0  0.8788663054471754  0.4186505682676298  0.9815943572905893  1.0000
  C   C42       1.0  0.8788671550897929  0.5629433398916532  0.5813498622287908  1.0000
  C   C43       1.0  0.1378944410313778  0.08348707116112307  0.41020874875381697  1.0000
  C   C44       1.0  0.13789521287483097  0.3267222117905035  0.9165119198599285  1.0000
  C   C45       1.0  0.6378953502422178  0.9165116192768394  0.32672177188283746  1.0000
  C   C46       1.0  0.13789499093425658  0.5897905011440159  0.6732784026925457  1.0000
  C   C47       1.0  0.637894811611545  0.4102090841594617  0.08348746615225616  1.0000
  C   C48       1.0  0.6378950156349956  0.6732787274252487  0.5897913005835775  1.0000
  C   C49       1.0  0.15985227961881776  0.1335267928810494  0.4958751085400549  1.0000
  C   C50       1.0  0.15985241741780945  0.3623480766020322  0.8664722832189398  1.0000
  C   C51       1.0  0.6598526307280392  0.8664713013065112  0.362346366704706  1.0000
  C   C52       1.0  0.15985224226529476  0.5041234035741482  0.6376532188249797  1.0000
  C   C53       1.0  0.6598526186160427  0.4958755881097829  0.1335280310340251  1.0000
  C   C54       1.0  0.6598522226039945  0.6376534437217529  0.5041252668387982  1.0000
  C   C55       1.0  0.21888544759626427  0.17734525624408803  0.6119284423068477  1.0000
  C   C56       1.0  0.21888548549798506  0.4345843539344898  0.8226558102890349  1.0000
  C   C57       1.0  0.7188869247081654  0.8226567536420646  0.43458404165742326  1.0000
  C   C58       1.0  0.21888760014474676  0.38807195223574803  0.5654173245532518  1.0000
  C   C59       1.0  0.7188857225564504  0.6119282676004473  0.1773459867290724  1.0000
  C   C60       1.0  0.7188864186222687  0.56541731376727  0.38807293524643416  1.0000
  C   C61       1.0  0.5443891097639408  0.8635982672113087  0.566938335688519  1.0000
  C   C62       1.0  0.5443900391019695  0.7033395499431664  0.13640184663326954  1.0000
  C   C63       1.0  0.04438988147684599  0.1364012180333702  0.7033408820397751  1.0000
  C   C64       1.0  0.5443885316556134  0.4330615444477744  0.29666135031241936  1.0000
  C   C65       1.0  0.044389835550966  0.5669386164120169  0.8635972074229982  1.0000
  C   C66       1.0  0.04438911537159378  0.2966618303856521  0.43306211586751425  1.0000
  C   C67       1.0  0.5437085537447357  0.9539544359996839  0.6048205834523299  1.0000
  C   C68       1.0  0.5437094556538112  0.6508653397158  0.04604515935277926  1.0000
  C   C69       1.0  0.043709893120372094  0.046044379461243054  0.650865839430395  1.0000
  C   C70       1.0  0.543708024735075  0.3951793651344887  0.3491349647037508  1.0000
  C   C71       1.0  0.0437093260510082  0.6048202690744516  0.9539540562647344  1.0000
  C   C72       1.0  0.0437074053316238  0.34913566971353305  0.3951795653381467  1.0000
  C   C73       1.0  0.5732072101462576  0.0010339368257916352  0.6826510265213414  1.0000
  C   C74       1.0  0.5732071733429221  0.6816181406598714  0.9989670382489774  1.0000
  C   C75       1.0  0.07320679329652789  0.9989653122762763  0.6816170485375892  1.0000
  C   C76       1.0  0.5732057794605011  0.31734944109190616  0.31838401186493565  1.0000
  C   C77       1.0  0.07320650717245059  0.6826508421334125  0.0010338484040344148  1.0000
  C   C78       1.0  0.07320680284777129  0.31838334631545  0.31734884563515203  1.0000
  C   C79       1.0  0.5720448813899708  0.08482932312392683  0.7202127237781042  1.0000
  C   C80       1.0  0.5720448169950741  0.6353849043940512  0.9151716959515139  1.0000
  C   C81       1.0  0.07204390873907579  0.9151705585576623  0.6353843295045178  1.0000
  C   C82       1.0  0.5720434942482839  0.2797858045287853  0.3646149619329364  1.0000
  C   C83       1.0  0.0720436578930048  0.7202129271612847  0.08482787677598215  1.0000
  C   C84       1.0  0.07204444335103229  0.3646152718127382  0.2797861879901403  1.0000
  C   C85       1.0  0.5415021309679062  0.12179209568364516  0.6794805532007686  1.0000
  C   C86       1.0  0.5415021051999817  0.5576888029207937  0.8782081133250016  1.0000
  C   C87       1.0  0.04150172234344039  0.8782072103406334  0.5576889726817951  1.0000
  C   C88       1.0  0.5415024944565943  0.32051853389229024  0.4423112754111783  1.0000
  C   C89       1.0  0.041502099366518094  0.6794810569397144  0.12179151976452103  1.0000
  C   C90       1.0  0.041502849281847894  0.44231153903164966  0.3205189037717701  1.0000
  C   C91       1.0  0.5133530980035272  0.07579693882956208  0.6010702795837162  1.0000
  C   C92       1.0  0.5133531386137375  0.5252735775045281  0.9242021454847275  1.0000
  C   C93       1.0  0.013355493790292897  0.92420209474912  0.5252727680783876  1.0000
  C   C94       1.0  0.5133540463971753  0.3989292213095935  0.4747271755222328  1.0000
  C   C95       1.0  0.013354779665966996  0.6010699525181878  0.07579724619441908  1.0000
  C   C96       1.0  0.0133544419970306  0.4747277625271025  0.3989293422659727  1.0000
  C   C97       1.0  0.5146891766765406  0.9918205380702646  0.5640451198559047  1.0000
  C   C98       1.0  0.5146901173125896  0.5722240385351186  0.008179213673436329  1.0000
  C   C99       1.0  0.0146916416484828  0.00817852786789078  0.5722233331492673  1.0000
  C   C100      1.0  0.5146887146060093  0.43595539200008193  0.4277765539071864  1.0000
  C   C101      1.0  0.0146905802086792  0.5640437589233542  0.991820287203417  1.0000
  C   C102      1.0  0.014689746160946997  0.42777803504814216  0.4359557997735663  1.0000
  C   C103      1.0  0.6738267464982852  0.24157569084196961  0.7252743788746158  1.0000
  C   C104      1.0  0.6738266882928556  0.48369883802287467  0.7584254762582461  1.0000
  C   C105      1.0  0.1738274690492929  0.7584251983090907  0.4836984568827487  1.0000
  C   C106      1.0  0.6738277402075353  0.2747264547630762  0.5163018408458909  1.0000
  C   C107      1.0  0.17382734199874508  0.7252740060343328  0.24157506628436204  1.0000
  C   C108      1.0  0.17382630431716709  0.5163017114268272  0.2747259787608414  1.0000
  C   C109      1.0  0.5935843193196815  0.26363134172157043  0.7433269102081538  1.0000
  C   C110      1.0  0.5935836851029491  0.4796957199601906  0.7363682866761464  1.0000
  C   C111      1.0  0.09358335884677868  0.7363685938878177  0.47969582788868326  1.0000
  C   C112      1.0  0.5935847562980214  0.2566732693644411  0.520303913478159  1.0000
  C   C113      1.0  0.09358379535110829  0.7433265708030775  0.26363069020894864  1.0000
  C   C114      1.0  0.09358330085512989  0.5203041126767403  0.2566724290383533  1.0000
  C   C115      1.0  0.4711186692232019  0.2523326960344007  0.7442643189676799  1.0000
  C   C116      1.0  0.47111859491544533  0.4919335410569305  0.7476690812530719  1.0000
  C   C117      1.0  0.9711179054079577  0.7476685800644347  0.4919338425611953  1.0000
  C   C118      1.0  0.4711196569258788  0.2557344107707138  0.5080652358373996  1.0000
  C   C119      1.0  0.9711183318337218  0.7442642954745226  0.25233213746040645  1.0000
  C   C120      1.0  0.9711178474183765  0.5080646449291635  0.2557337625034108  1.0000
  C   C121      1.0  0.39585682910149694  0.2167939198098382  0.7354312567407106  1.0000
  C   C122      1.0  0.39585676020320176  0.518640543385075  0.7832075949749465  1.0000
  C   C123      1.0  0.8958571858841394  0.78320793247957  0.5186410369005116  1.0000
  C   C124      1.0  0.3958577925281545  0.26456619397856684  0.4813596782457806  1.0000
  C   C125      1.0  0.8958559065282968  0.7354331312371868  0.21679455501690362  1.0000
  C   C126      1.0  0.8958571375434516  0.4813582544017123  0.26456643618099207  1.0000
  C   C127      1.0  0.37422922897423655  0.18787033641171996  0.7869133530517373  1.0000
  C   C128      1.0  0.37422967397515805  0.5990464258934906  0.8121308105534977  1.0000
  C   C129      1.0  0.8742295837873967  0.8121308696266851  0.59904728118682  1.0000
  C   C130      1.0  0.374229563117744  0.21308450087278172  0.4009537325379853  1.0000
  C   C131      1.0  0.8742276736121752  0.7869159107694373  0.18787224823154958  1.0000
  C   C132      1.0  0.874230056792335  0.4009532029075444  0.213084940689427  1.0000
  C   C133      1.0  0.30210622422099925  0.15745395084147162  0.7819616373142111  1.0000
  C   C134      1.0  0.3021061100306284  0.6245098340350168  0.8425457197840415  1.0000
  C   C135      1.0  0.8021065769617975  0.8425469224692108  0.6245105827014682  1.0000
  C   C136      1.0  0.3021070969615706  0.218036442222953  0.37548939237084505  1.0000
  C   C137      1.0  0.8021052077927208  0.7819626533233048  0.15745422813901647  1.0000
  C   C138      1.0  0.8021070560918345  0.3754899747612868  0.21803790926374228  1.0000
  C   C139      1.0  0.25104874945512273  0.1551033271433795  0.7255339706606136  1.0000
  C   C140      1.0  0.2510492466373151  0.5704333268763976  0.8448967442019324  1.0000
  C   C141      1.0  0.7510491020360703  0.8448984637638618  0.5704345123162183  1.0000
  C   C142      1.0  0.2510502278004764  0.2744641827252039  0.4295653593016268  1.0000
  C   C143      1.0  0.7510477809665373  0.7255345498966221  0.1551030837582629  1.0000
  C   C144      1.0  0.7510507505241079  0.4295670657109697  0.2744655745556486  1.0000
  C   C145      1.0  0.27292285177934156  0.18202747633364416  0.6725568225499571  1.0000
  C   C146      1.0  0.27292283625192226  0.49053205289876434  0.8179737910835312  1.0000
  C   C147      1.0  0.772923206193738  0.8179741387340727  0.49053243447925604  1.0000
  C   C148      1.0  0.2729243973502307  0.3274419673157212  0.5094679638643312  1.0000
  C   C149      1.0  0.772922515632608  0.6725572414740386  0.18202647761185625  1.0000
  C   C150      1.0  0.7729248962049127  0.5094687772849227  0.3274431635444656  1.0000
  C   C151      1.0  0.3453838847211727  0.21284612363810862  0.6774281369081336  1.0000
  C   C152      1.0  0.3453838669739183  0.4645855235034516  0.7871547966597062  1.0000
  C   C153      1.0  0.8453842412348392  0.7871562523602408  0.46458584992307533  1.0000
  C   C154      1.0  0.3453848921174938  0.32257044377039523  0.5354151427484267  1.0000
  C   C155      1.0  0.8453830100682821  0.6774290526702417  0.21284571508667222  1.0000
  C   C156      1.0  0.8453853636505854  0.5354151451620409  0.322570311108869  1.0000
  N   N1        1.0  0.12468218135606428  0.19753879189700288  0.5531063052241335  1.0000
  N   N2        1.0  0.12468339579660889  0.3555681856190843  0.8024605456878857  1.0000
  N   N3        1.0  0.624683659843832  0.8024598680130737  0.35556730914015583  1.0000
  N   N4        1.0  0.12468327692899084  0.4468922048854155  0.6444328050990932  1.0000
  N   N5        1.0  0.624683087873727  0.5531064738863023  0.19754035193584935  1.0000
  N   N6        1.0  0.6246832005211685  0.644433311433204  0.44689368308402067  1.0000
  N   N7        1.0  0.16057330180526458  0.22474180493351528  0.625690580530488  1.0000
  N   N8        1.0  0.16057445375246718  0.400951209133062  0.7752594677364896  1.0000
  N   N9        1.0  0.6605753436549264  0.7752591272293543  0.40095011299389677  1.0000
  N   N10       1.0  0.16057660812627716  0.3743080330612329  0.5990509241794085  1.0000
  N   N11       1.0  0.6605741680914716  0.6256912705212941  0.22474277017430921  1.0000
  N   N12       1.0  0.6605742615679657  0.5990497736422712  0.37430903408890975  1.0000
  N   N13       1.0  0.22082487167798348  0.11940425986258418  0.530771301141442  1.0000
  N   N14       1.0  0.22082610059702287  0.41136740880487116  0.8805951017420527  1.0000
  N   N15       1.0  0.7208257833342414  0.8805957482068295  0.4113662170276696  1.0000
  N   N16       1.0  0.22082703928070654  0.4692293710060369  0.5886346544990957  1.0000
  N   N17       1.0  0.7208246057099215  0.5307712625898234  0.11940384677458832  1.0000
  N   N18       1.0  0.7208259091227518  0.5886333147977822  0.4692296867289086  1.0000
  N   N19       1.0  0.5648490982725249  0.337128122321367  0.7797141323183394  1.0000
  N   N20       1.0  0.5648478752961735  0.44258513816048867  0.6628726852919583  1.0000
  N   N21       1.0  0.06484870431374651  0.6628727648185588  0.44258553267928846  1.0000
  N   N22       1.0  0.5648495706266203  0.22028729495598054  0.5574130764097944  1.0000
  N   N23       1.0  0.06485029172844038  0.7797127629935546  0.3371264708026088  1.0000
  N   N24       1.0  0.0648469270119492  0.5574142756114497  0.22028742564766182  1.0000
  N   N25       1.0  0.4874389215318187  0.33012079088647545  0.7806290756137599  1.0000
  N   N26       1.0  0.4874376972675022  0.4505084789477465  0.669881343447919  1.0000
  N   N27       1.0  0.9874381630134295  0.6698811971773678  0.45050848440205726  1.0000
  N   N28       1.0  0.4874393869247056  0.21937181768168298  0.5494898883343139  1.0000
  N   N29       1.0  0.9874391823732439  0.7806280015114524  0.33011925997898556  1.0000
  N   N30       1.0  0.9874369469490957  0.5494892247532661  0.21937111615584112  1.0000
  N   N31       1.0  0.5363474750317677  0.2077827413817417  0.7202987653793897  1.0000
  N   N32       1.0  0.5363468574261389  0.5125167359873685  0.7922177702318648  1.0000
  N   N33       1.0  0.0363470722637658  0.7922175416367382  0.5125162974397454  1.0000
  N   N34       1.0  0.5363478813457263  0.27970138325930083  0.48748301656546994  1.0000
  N   N35       1.0  0.036347483475971394  0.7202995757723515  0.20778193193860509  1.0000
  N   N36       1.0  0.03634759843149029  0.48748246870419365  0.27970033540697864  1.0000
  O   O1        1.0  0.508454715628666  0.6666664625650967  0.3333324267729481  1.0000
  O   O2        1.0  0.008454350910660898  0.3333338358737309  0.6666674687779803  1.0000
  O   O3        1.0  0.35670691020307993  0.7678121207749983  0.34916728776931183  1.0000
  O   O4        1.0  0.35670465702163767  0.5813510304158386  0.23218912809080183  1.0000
  O   O5        1.0  0.8567039422523306  0.2321893707933284  0.5813505223044898  1.0000
  O   O6        1.0  0.3567030563502698  0.6508359103202608  0.41864935551850374  1.0000
  O   O7        1.0  0.8567056955228195  0.34916690152415  0.7678123540993339  1.0000
  O   O8        1.0  0.8567044839183777  0.4186503178325083  0.6508386732348369  1.0000
  O   O9        1.0  0.4589885387671941  0.8340634961433437  0.3396804008722681  1.0000
  O   O10       1.0  0.4589857369999919  0.5056149449027245  0.16593980515272475  1.0000
  O   O11       1.0  0.9589861368385254  0.16594054870154895  0.5056149655892525  1.0000
  O   O12       1.0  0.4589869974451516  0.6603191211359984  0.4943830162068251  1.0000
  O   O13       1.0  0.9589873912293566  0.33968113416955953  0.8340637775403079  1.0000
  O   O14       1.0  0.9589889277893346  0.4943804937812575  0.660317946522369  1.0000
  O   O15       1.0  0.5120428007832345  0.8234264870710036  0.49718527787612016  1.0000
  O   O16       1.0  0.5120443507311518  0.673757649280958  0.17657383965627088  1.0000
  O   O17       1.0  0.012044692777763499  0.17657338910616013  0.6737597354046585  1.0000
  O   O18       1.0  0.5120439286746999  0.5028149275877355  0.326242671169119  1.0000
  O   O19       1.0  0.012044114303776597  0.4971850254045267  0.8234260083685712  1.0000
  O   O20       1.0  0.012044548003913696  0.32624287182986234  0.5028158434557213  1.0000
  O   O21       1.0  0.5767213844427985  0.8320519087847134  0.6025539999335621  1.0000
  O   O22       1.0  0.5767222800588242  0.7705014814745398  0.16794869434342974  1.0000
  O   O23       1.0  0.07672159249796809  0.16794939808271173  0.7705036288931025  1.0000
  O   O24       1.0  0.5767201877107411  0.3974465706715762  0.22949828060604452  1.0000
  O   O25       1.0  0.0767209276713885  0.6025537669951789  0.8320491639231875  1.0000
  O   O26       1.0  0.0767213609028019  0.22949940074614256  0.3974465530974526  1.0000
