data_image0
_chemical_formula_structural       Zn2H24C38Br2N2O12
_chemical_formula_sum              "Zn2 H24 C38 Br2 N2 O12"
_cell_length_a       11.24183081618435
_cell_length_b       16.402274460004076
_cell_length_c       17.788496631518406
_cell_angle_alpha    95.19378219062061
_cell_angle_beta     90.44626832185716
_cell_angle_gamma    92.19034663642373

_space_group_name_H-M_alt    "P 1"
_space_group_IT_number       1

loop_
  _space_group_symop_operation_xyz
  'x, y, z'

loop_
  _atom_site_type_symbol
  _atom_site_label
  _atom_site_symmetry_multiplicity
  _atom_site_fract_x
  _atom_site_fract_y
  _atom_site_fract_z
  _atom_site_occupancy
  Zn  Zn1       1.0  0.4951983952460211  0.4141632062743951  0.49692897199523856  1.0000
  Zn  Zn2       1.0  0.5046700879034065  0.5853722815780742  0.503081077733988  1.0000
  H   H1        1.0  0.38014092876839817  0.7127643849548592  0.4266864424784628  1.0000
  H   H2        1.0  0.38344171428256874  0.8638508034792878  0.4279813197238695  1.0000
  H   H3        1.0  0.6623370164893603  0.869209334918935  0.6000274753438859  1.0000
  H   H4        1.0  0.6459007295602391  0.7205468768416028  0.5890615190641669  1.0000
  H   H5        1.0  0.33971288162511837  0.13055282201803206  0.3985121091314525  1.0000
  H   H6        1.0  0.6145566452646208  0.1362177802272839  0.5733332167265175  1.0000
  H   H7        1.0  0.61613473944378  0.28705866675012714  0.5756481764555872  1.0000
  H   H8        1.0  0.3577838341578641  0.2788702019566642  0.4082779138378072  1.0000
  H   H9        1.0  0.5065872477041468  0.6169872142340297  0.2640225435842964  1.0000
  H   H10       1.0  0.5070523124409335  0.6110291153458789  0.1252856942407661  1.0000
  H   H11       1.0  0.49115471198136623  0.34525049858267204  0.11791262391714237  1.0000
  H   H12       1.0  0.4908753499619111  0.3550217942858893  0.253736899177639  1.0000
  H   H13       1.0  0.5089631517941129  0.6553486252687648  0.8809413771680638  1.0000
  H   H14       1.0  0.49319158756405584  0.3898083216250612  0.8760424746614816  1.0000
  H   H15       1.0  0.49356663791451894  0.382278150325412  0.7374257919539317  1.0000
  H   H16       1.0  0.5090084395142541  0.6440824181156015  0.7448581690382807  1.0000
  H   H17       1.0  0.8991524300224116  0.687996875942204  0.5572461321434757  1.0000
  H   H18       1.0  0.8964332043428698  0.6823215934460974  0.4566428783716744  1.0000
  H   H19       1.0  0.12100263424222393  0.6826723809658334  0.4559158471523899  1.0000
  H   H20       1.0  0.1236628997619675  0.6880927884510443  0.5564621916539848  1.0000
  H   H21       1.0  0.6553056933589974  0.9690882445712818  0.5956019567916612  1.0000
  H   H22       1.0  0.34459907912523857  0.03099556551661922  0.40469295751827156  1.0000
  H   H23       1.0  0.4911664906186248  0.3535048368185443  0.029775723048977895  1.0000
  H   H24       1.0  0.5090112691286209  0.6478245573021724  0.970230665144186  1.0000
  C   C1        1.0  0.4970237398204064  0.48917943561010446  0.3525398410825318  1.0000
  C   C2        1.0  0.2647088083047535  0.5029323324737548  0.4995272953773479  1.0000
  C   C3        1.0  0.5026827156343147  0.5057826184702281  0.6472937588144275  1.0000
  C   C4        1.0  0.7355999623709978  0.5027548372730095  0.5005879475128481  1.0000
  C   C5        1.0  0.4412121600026353  0.7511487484576663  0.4638508683851512  1.0000
  C   C6        1.0  0.4434122933625704  0.835862163272786  0.46500792115603656  1.0000
  C   C7        1.0  0.5229016714540223  0.8843500708571312  0.5140785529005356  1.0000
  C   C8        1.0  0.596668605146384  0.8401862412815008  0.5594637978519827  1.0000
  C   C9        1.0  0.5892079854838954  0.7552742140970921  0.5546752569571041  1.0000
  C   C10       1.0  0.5325504816323419  0.9741111297191907  0.5201912850222142  1.0000
  C   C11       1.0  0.4673174637739735  0.025710461703702902  0.4799078858557876  1.0000
  C   C12       1.0  0.40471008684674115  0.1595150777955823  0.4395559224343089  1.0000
  C   C13       1.0  0.4770800469886965  0.11552730350850031  0.48589297837531115  1.0000
  C   C14       1.0  0.5552063440804107  0.16401115977294006  0.5357919805014504  1.0000
  C   C15       1.0  0.5568156170032169  0.2487599457366088  0.5372766917494189  1.0000
  C   C16       1.0  0.41273358949688804  0.24440888221895563  0.44390515265649805  1.0000
  C   C17       1.0  0.4977087478976614  0.48646877353247936  0.2683446526639557  1.0000
  C   C18       1.0  0.5027305697410683  0.5578291230313467  0.23062252799206817  1.0000
  C   C19       1.0  0.5031562986803807  0.5544002797841826  0.15226581426787078  1.0000
  C   C20       1.0  0.4986188966892158  0.478520666911777  0.10708626239746619  1.0000
  C   C21       1.0  0.4942728594808302  0.4072033520810265  0.1467075386314747  1.0000
  C   C22       1.0  0.49382800834501966  0.4108748000580604  0.22490850979286137  1.0000
  C   C23       1.0  0.49816339134994797  0.46983945808814553  0.0241479421782458  1.0000
  C   C24       1.0  0.5020551928105662  0.5315132259462203  0.9759493465805703  1.0000
  C   C25       1.0  0.5058874884628752  0.5931850265584302  0.8525685979381237  1.0000
  C   C26       1.0  0.5016167390685098  0.5224368657768392  0.8930095367641471  1.0000
  C   C27       1.0  0.4970893370561528  0.4460897954955385  0.8485920304563166  1.0000
  C   C28       1.0  0.4974860480576952  0.44170521722745804  0.770323993154065  1.0000
  C   C29       1.0  0.5023367664642677  0.5124008169859664  0.7316328028033323  1.0000
  C   C30       1.0  0.5061942892431618  0.5885382144220943  0.774173789988005  1.0000
  C   C31       1.0  0.8690471726187285  0.49522415835363626  0.499786055692212  1.0000
  C   C32       1.0  0.1304266557356257  0.4953874504986402  0.49958087505240906  1.0000
  C   C33       1.0  0.9417132931443177  0.5661644208573693  0.5023954377190945  1.0000
  C   C34       1.0  0.058832398607592  0.42161337139366134  0.49738966818078006  1.0000
  C   C35       1.0  0.06554337488492482  0.5662537829163979  0.5019744996631914  1.0000
  C   C36       1.0  0.9324918164195782  0.4214590315252735  0.4967244339166825  1.0000
  C   C37       1.0  0.9383634726653373  0.6586832578592022  0.5057845368784655  1.0000
  C   C38       1.0  0.0788900871549245  0.6587997258725692  0.505365434501627  1.0000
  Br  Br1       1.0  0.1308611917759848  0.31787378209501327  0.4964558933205154  1.0000
  Br  Br2       1.0  0.8489829047272013  0.31742087071715014  0.49055530343911596  1.0000
  N   N1        1.0  0.5125185051198927  0.7109542282119674  0.5076575279319541  1.0000
  N   N2        1.0  0.4874740242753718  0.2887920450823316  0.4921850269624742  1.0000
  O   O1        1.0  0.49225386733280635  0.4208212578147226  0.3811025262414915  1.0000
  O   O2        1.0  0.501536965427853  0.5599497155684787  0.38943999313742944  1.0000
  O   O3        1.0  0.31188680442541283  0.5749324396515332  0.5018154917534545  1.0000
  O   O4        1.0  0.32077085635885544  0.4371479939052847  0.4971739821666573  1.0000
  O   O5        1.0  0.5061502384167014  0.5728098372676271  0.6154686261088357  1.0000
  O   O6        1.0  0.4992205582092524  0.4340353993827862  0.613551172245046  1.0000
  O   O7        1.0  0.6721743908773306  0.4369436437282986  0.4979183077545812  1.0000
  O   O8        1.0  0.6964894746990852  0.5748097978866228  0.5038862415880843  1.0000
  O   O9        1.0  0.6148621565936027  0.0110080016190324  0.5710814954878032  1.0000
  O   O10       1.0  0.38513414602880397  0.9888871423896218  0.4289489088262711  1.0000
  O   O11       1.0  0.49318395125002473  0.390713837219586  0.9902034994127645  1.0000
  O   O12       1.0  0.5069138080488216  0.610691502604986  0.009865193261461479  1.0000
