data_image0
_chemical_formula_structural       Zn16H24C96S16Br8O56
_chemical_formula_sum              "Zn16 H24 C96 S16 Br8 O56"
_cell_length_a       19.666660872084904
_cell_length_b       19.696521231751902
_cell_length_c       33.36906475441938
_cell_angle_alpha    79.1089735969919
_cell_angle_beta     79.1938316152
_cell_angle_gamma    63.95153104477005

_space_group_name_H-M_alt    "P 1"
_space_group_IT_number       1

loop_
  _space_group_symop_operation_xyz
  'x, y, z'

loop_
  _atom_site_type_symbol
  _atom_site_label
  _atom_site_symmetry_multiplicity
  _atom_site_fract_x
  _atom_site_fract_y
  _atom_site_fract_z
  _atom_site_occupancy
  Zn  Zn1       1.0  0.05689337872379951  0.39938439292600264  0.4783867829293342  1.0000
  Zn  Zn2       1.0  0.9846670670878908  0.4834324797615824  0.5602573998871848  1.0000
  Zn  Zn3       1.0  0.05784086352294789  0.5612956208690463  0.4824859890364337  1.0000
  Zn  Zn4       1.0  0.9008307812448776  0.5543763919465122  0.4799485455682557  1.0000
  Zn  Zn5       1.0  0.6942554630714568  0.3504318294713757  0.27155200851039757  1.0000
  Zn  Zn6       1.0  0.6892229565417126  0.19013716258987037  0.2670147296947789  1.0000
  Zn  Zn7       1.0  0.7693472823293348  0.2655369159571279  0.1907942495406516  1.0000
  Zn  Zn8       1.0  0.8477453713360178  0.19547315379266905  0.2732367065062107  1.0000
  Zn  Zn9       1.0  0.2667381519505838  0.7666841989449938  0.6892770354945698  1.0000
  Zn  Zn10      1.0  0.3487560859374597  0.6960882097172174  0.7713794135879937  1.0000
  Zn  Zn11      1.0  0.1928663499863106  0.8475257564683506  0.771428544085552  1.0000
  Zn  Zn12      1.0  0.1914508491957463  0.6871916465159345  0.7661883056831797  1.0000
  Zn  Zn13      1.0  0.5607066263565199  0.06010619988728664  0.9833267688638401  1.0000
  Zn  Zn14      1.0  0.401207022864611  0.055069441949584096  0.9781583165798439  1.0000
  Zn  Zn15      1.0  0.5544648805203566  0.901482877097216  0.9779309976469507  1.0000
  Zn  Zn16      1.0  0.4841137954658805  0.9834105125164715  0.06038045612571348  1.0000
  H   H1        1.0  0.9538022947573452  0.24885364734706883  0.35118215989555784  1.0000
  H   H2        1.0  0.7466967775336216  0.45551214363779013  0.350904441398491  1.0000
  H   H3        1.0  0.0008662660500249002  0.29785098609194455  0.3992698977816787  1.0000
  H   H4        1.0  0.09786290042772089  0.5976752316781458  0.6999693710544436  1.0000
  H   H5        1.0  0.2017611724586814  0.7013635969540745  0.5966410682848249  1.0000
  H   H6        1.0  0.0501108104269434  0.5505463511517449  0.6512405633462279  1.0000
  H   H7        1.0  0.4631365484259007  0.24014883484460378  0.34105998872074395  1.0000
  H   H8        1.0  0.4792765668547432  0.702898085822824  0.6012445263383412  1.0000
  H   H9        1.0  0.2030448314614972  0.9788904944509229  0.6016906729176698  1.0000
  H   H10       1.0  0.9486570532151504  0.9701143943610333  0.34797101829916954  1.0000
  H   H11       1.0  0.5497691415405797  0.04982864983018944  0.15271291610253002  1.0000
  H   H12       1.0  0.6529640539103384  0.1532968330245907  0.048920433861418575  1.0000
  H   H13       1.0  0.5984826531781309  0.09834367875001251  0.20019754307111984  1.0000
  H   H14       1.0  0.5475511118043173  0.770545145183185  0.14833746263266787  1.0000
  H   H15       1.0  0.1629551569955012  0.1413269561690811  0.04058229040534661  1.0000
  H   H16       1.0  0.5011862715353743  0.7961763040109988  0.8988811544403106  1.0000
  H   H17       1.0  0.2946641761158304  0.003462761894134305  0.8990520695023748  1.0000
  H   H18       1.0  0.4517320931003327  0.7497413786273341  0.8507427519981619  1.0000
  H   H19       1.0  0.3009092634890322  0.27974132177877914  0.9021667470213545  1.0000
  H   H20       1.0  0.7867842610481546  0.009593957774733063  0.9089716097878693  1.0000
  H   H21       1.0  0.8097181720222865  0.5275633485176241  0.41863649227766336  1.0000
  H   H22       1.0  0.13613246130412904  0.6363687333932191  0.5265437088692266  1.0000
  H   H23       1.0  0.7232247754299408  0.22301025264943783  0.11427055606069557  1.0000
  H   H24       1.0  0.22182273251488735  0.9408100260513451  0.8314553070943874  1.0000
  C   C1        1.0  0.061721057983490396  0.3159814476513674  0.561731421294482  1.0000
  C   C2        1.0  0.06969727177226298  0.5704953385565474  0.5694463160788175  1.0000
  C   C3        1.0  0.18369194995631943  0.43963568957891397  0.4387603318408964  1.0000
  C   C4        1.0  0.9369648500264204  0.6840641422482607  0.4388997647709729  1.0000
  C   C5        1.0  0.9303408077983661  0.4300411896777944  0.43059304335386633  1.0000
  C   C6        1.0  0.8165490043434074  0.5609406808640501  0.562102323815104  1.0000
  C   C7        1.0  0.5655648638986577  0.3114549849357573  0.31130492021579675  1.0000
  C   C8        1.0  0.6807562552701681  0.1799207722214222  0.18053396846685388  1.0000
  C   C9        1.0  0.6893520069069439  0.43332400422271194  0.1881464809501452  1.0000
  C   C10       1.0  0.9348859001472081  0.187485452051959  0.18974627613243197  1.0000
  C   C11       1.0  0.8185687664003326  0.320617302093865  0.3198146969220588  1.0000
  C   C12       1.0  0.8110867131909741  0.06603708956299681  0.3117166621276867  1.0000
  C   C13       1.0  0.4338184704312056  0.6895834443916441  0.6881954215745836  1.0000
  C   C14       1.0  0.31903998248882454  0.8204312884633328  0.8195420606120295  1.0000
  C   C15       1.0  0.18896502700535217  0.9336794865481295  0.6885336001351734  1.0000
  C   C16       1.0  0.0661439684929519  0.8096919466420761  0.8112086668888807  1.0000
  C   C17       1.0  0.1815540342909969  0.6804498488582881  0.6797328051225549  1.0000
  C   C18       1.0  0.312679301069231  0.5658567191354964  0.8111089041887496  1.0000
  C   C19       1.0  0.43837866560051003  0.1839201411429557  0.938631615810742  1.0000
  C   C20       1.0  0.4296028054340866  0.9311904632639454  0.9304061650950787  1.0000
  C   C21       1.0  0.6839474567993804  0.9386440302123235  0.9385544937588932  1.0000
  C   C22       1.0  0.5613799900472571  0.8161834493066141  0.06140539137725647  1.0000
  C   C23       1.0  0.5700809441325277  0.06979814865888295  0.06932629052558777  1.0000
  C   C24       1.0  0.31615907864389203  0.06151966518100956  0.06132142576327481  1.0000
  C   C25       1.0  0.9008850137692547  0.40342865934224675  0.4020814407887201  1.0000
  C   C26       1.0  0.84742233637634  0.3494451750868778  0.3483296904807176  1.0000
  C   C27       1.0  0.8281893423093224  0.4486923561018942  0.38822055760957863  1.0000
  C   C28       1.0  0.9195668483006474  0.3043335105886981  0.36181685861472346  1.0000
  C   C29       1.0  0.802413189722415  0.4207194356324778  0.36134170641813057  1.0000
  C   C30       1.0  0.9453444924753  0.3315544813017938  0.3883443205440286  1.0000
  C   C31       1.0  0.09884459220891978  0.5991689231054382  0.5970211658783242  1.0000
  C   C32       1.0  0.1525961291102291  0.6521988313220604  0.6510003226900594  1.0000
  C   C33       1.0  0.1422320458442101  0.6422530137567861  0.5812866229588425  1.0000
  C   C34       1.0  0.1096852614030794  0.6095533295390897  0.6668462136850621  1.0000
  C   C35       1.0  0.1686136981774453  0.668380860856189  0.6087714540930165  1.0000
  C   C36       1.0  0.0834258228310816  0.5836686823231078  0.6398982768602155  1.0000
  C   C37       1.0  0.3047088035283352  0.45509571764456086  0.40100895924221897  1.0000
  C   C38       1.0  0.4460277905139093  0.2969164525274126  0.3489971736203615  1.0000
  C   C39       1.0  0.25850843047739147  0.4161854368368483  0.4140251134397985  1.0000
  C   C40       1.0  0.49082328899589805  0.336861083569417  0.33643177827849513  1.0000
  C   C41       1.0  0.3779492610491317  0.33998857671983285  0.3725964079374435  1.0000
  C   C42       1.0  0.37272398290848224  0.4117944315188496  0.3773992631510695  1.0000
  C   C43       1.0  0.7258838111414434  0.5756024035920932  0.6301799466009969  1.0000
  C   C44       1.0  0.5240780921342817  0.6738041292364513  0.6212246178736791  1.0000
  C   C45       1.0  0.7426628107041324  0.5850338887600517  0.5876300268026498  1.0000
  C   C46       1.0  0.5089890283548542  0.6638316815754237  0.6636081373099927  1.0000
  C   C47       1.0  0.6033335786039019  0.6415355315884101  0.6089153049330635  1.0000
  C   C48       1.0  0.646543024445279  0.6077516225770766  0.6423646408318505  1.0000
  C   C49       1.0  0.07595073741619271  0.22544943104944798  0.6299627217928006  1.0000
  C   C50       1.0  0.17399705084431363  0.023774417083728797  0.6215217994770157  1.0000
  C   C51       1.0  0.0855416553922126  0.24208998617910285  0.587386158256919  1.0000
  C   C52       1.0  0.16378101529465994  0.008838567956573194  0.6639131526546862  1.0000
  C   C53       1.0  0.1419126983415424  0.10290572015643563  0.6090272473529977  1.0000
  C   C54       1.0  0.1080425517596169  0.14621782591751042  0.6423388150803079  1.0000
  C   C55       1.0  0.8425329671814197  0.8008592491423414  0.39696919520610413  1.0000
  C   C56       1.0  0.9043342467640443  0.9496324223354479  0.3525070520696545  1.0000
  C   C57       1.0  0.9109610880972664  0.7583031857920732  0.41366718809601377  1.0000
  C   C58       1.0  0.8356371450274623  0.9908959425264358  0.336423847354105  1.0000
  C   C59       1.0  0.9070961699974163  0.8800608285065086  0.3746144928296856  1.0000
  C   C60       1.0  0.8402308351880521  0.8702026101020833  0.37474808984696034  1.0000
  C   C61       1.0  0.6527855373071957  0.15263132338515126  0.1515860670099372  1.0000
  C   C62       1.0  0.5986603636949042  0.09871998325180442  0.0980120883408233  1.0000
  C   C63       1.0  0.6683163178478608  0.16848063539573843  0.10830701917237211  1.0000
  C   C64       1.0  0.582871511397073  0.08294169304389247  0.14085014375961447  1.0000
  C   C65       1.0  0.6408002623740856  0.1410404166390366  0.08200155382301942  1.0000
  C   C66       1.0  0.6098431572974121  0.10981625377370108  0.16696833385535112  1.0000
  C   C67       1.0  0.6740597365327047  0.5240186492698484  0.11985042566359991  1.0000
  C   C68       1.0  0.5764842368724103  0.7257484713449711  0.12844267983108895  1.0000
  C   C69       1.0  0.6648335351232076  0.5072227597127823  0.1624229751236044  1.0000
  C   C70       1.0  0.5865216359079071  0.7409153884912456  0.08605482065095059  1.0000
  C   C71       1.0  0.6083782171256759  0.6465432658295284  0.140869090583422  1.0000
  C   C72       1.0  0.6419915779394644  0.6033097788841172  0.10751564099754773  1.0000
  C   C73       1.0  0.08253403723021789  0.12332710788520271  0.1783512300926873  1.0000
  C   C74       1.0  0.17042790831432336  0.12480567119177272  0.0729944460041878  1.0000
  C   C75       1.0  0.010276296222336598  0.1621565854591367  0.1655151862372577  1.0000
  C   C76       1.0  0.2415547957185709  0.08607902949394493  0.0866544065606405  1.0000
  C   C77       1.0  0.1121464436846509  0.13850875804504173  0.1064378083452056  1.0000
  C   C78       1.0  0.1405879210044532  0.1097539886712227  0.1448014954532439  1.0000
  C   C79       1.0  0.34615083759448584  0.8497990758565667  0.8478843492335598  1.0000
  C   C80       1.0  0.40069471069243423  0.9026506210701019  0.9017296817071028  1.0000
  C   C81       1.0  0.30113977471904013  0.9223501071144328  0.8617163422075153  1.0000
  C   C82       1.0  0.4456078780128294  0.8306315051292757  0.8882415022147327  1.0000
  C   C83       1.0  0.32934922323343596  0.9478694501770523  0.8886091354028521  1.0000
  C   C84       1.0  0.41814709037802084  0.805168516599068  0.8616558875303325  1.0000
  C   C85       1.0  0.4072208186839886  0.44879304755157545  0.8529312547829806  1.0000
  C   C86       1.0  0.34527616858207466  0.3001737244825194  0.8975872777064283  1.0000
  C   C87       1.0  0.33878456177752975  0.4913988305470697  0.8362539066804686  1.0000
  C   C88       1.0  0.41394986096990743  0.25887270890290653  0.9137028697082812  1.0000
  C   C89       1.0  0.3426751969105766  0.3695839526263711  0.8753076469036074  1.0000
  C   C90       1.0  0.4095823676000876  0.3793790665187657  0.8751326317166104  1.0000
  C   C91       1.0  0.9451055976258754  0.7943872971678662  0.8491928384339573  1.0000
  C   C92       1.0  0.803836254738968  0.9528051679308976  0.9010743920065777  1.0000
  C   C93       1.0  0.9914027656109425  0.8331550395391221  0.8360942034648389  1.0000
  C   C94       1.0  0.7589187268857813  0.912984917128611  0.9136295795313174  1.0000
  C   C95       1.0  0.8719234042461181  0.9096093328453494  0.8775086620251572  1.0000
  C   C96       1.0  0.8770858473889545  0.8378013990722907  0.872757490125082  1.0000
  S   S1        1.0  0.2988836970437844  0.32644603284664725  0.3972422983414603  1.0000
  S   S2        1.0  0.451019523810352  0.42651383355556066  0.3530134910745844  1.0000
  S   S3        1.0  0.6609163382916279  0.633282658282923  0.5626850016465996  1.0000
  S   S4        1.0  0.5901795982122593  0.6154421522702407  0.6887952996428268  1.0000
  S   S5        1.0  0.13386592410913065  0.1602855748244779  0.5626910543663473  1.0000
  S   S6        1.0  0.1154225019522244  0.09008435474223121  0.6888711343864031  1.0000
  S   S7        1.0  0.9723742641361923  0.803585590274409  0.4019122264269868  1.0000
  S   S8        1.0  0.774158053954423  0.9459728455868089  0.34783997844877507  1.0000
  S   S9        1.0  0.6165716814635828  0.5890228446365243  0.1871774213276893  1.0000
  S   S10       1.0  0.6344994792632974  0.6596632833933497  0.06102666775554163  1.0000
  S   S11       1.0  0.0139451724892581  0.18199965203110224  0.1121291352892797  1.0000
  S   S12       1.0  0.2384443998358634  0.06599733657090212  0.13988577002223218  1.0000
  S   S13       1.0  0.27740274842352625  0.44609871214837693  0.8480053016206668  1.0000
  S   S14       1.0  0.4755870978309886  0.3036357023797294  0.9021033271330836  1.0000
  S   S15       1.0  0.9510908103971899  0.9229712928684891  0.8528168488061709  1.0000
  S   S16       1.0  0.7986773270568577  0.8232724388789306  0.8971200917997707  1.0000
  Br  Br1       1.0  0.2848306505573532  0.5526464281669946  0.4118378110504111  1.0000
  Br  Br2       1.0  0.7954779693358205  0.5271589751570855  0.6691467932276184  1.0000
  Br  Br3       1.0  0.027630893547808497  0.2950278478445514  0.6688088855157802  1.0000
  Br  Br4       1.0  0.7602230015294253  0.7745886498829649  0.40154125419103787  1.0000
  Br  Br5       1.0  0.7218591525430895  0.4544551485002802  0.08098827101304812  1.0000
  Br  Br6       1.0  0.1062552105410006  0.09046331771952511  0.23265398674992352  1.0000
  Br  Br7       1.0  0.4896928739656658  0.4748570666966289  0.8483536305936354  1.0000
  Br  Br8       1.0  0.9652066215101268  0.6966413981940678  0.8385385010312162  1.0000
  O   O1        1.0  0.0007155903799401  0.4985938883071484  0.49988721114465307  1.0000
  O   O2        1.0  0.07869880813130689  0.3140434153642957  0.5227947679402477  1.0000
  O   O3        1.0  0.031708638939669194  0.53184197836471  0.5853122796133122  1.0000
  O   O4        1.0  0.1544487508345682  0.5057577098039587  0.4503499215704352  1.0000
  O   O5        1.0  0.026574086067157096  0.37515309983914596  0.5802663687240255  1.0000
  O   O6        1.0  0.1544698430754394  0.3910820006094369  0.44643675278015144  1.0000
  O   O7        1.0  0.08486541931953438  0.5867903477271812  0.5302049599708453  1.0000
  O   O8        1.0  0.0036722627400394  0.6587035031043982  0.4501121821910631  1.0000
  O   O9        1.0  0.8865264131695128  0.49639047677037246  0.4424960320370772  1.0000
  O   O10       1.0  0.8918134372900539  0.6513421207189368  0.4475981697997042  1.0000
  O   O11       1.0  0.9957877423805926  0.3874881434227292  0.44190728225928666  1.0000
  O   O12       1.0  0.8760949881975223  0.5264319356273078  0.5804599311011316  1.0000
  O   O13       1.0  0.8142323246348013  0.5771720875864124  0.5231091673887178  1.0000
  O   O14       1.0  0.7494119223912676  0.2504704459985517  0.2507567440394567  1.0000
  O   O15       1.0  0.5963092323823104  0.3585871262477556  0.3030309430798824  1.0000
  O   O16       1.0  0.6646622021412655  0.16456829628663167  0.21892613787878187  1.0000
  O   O17       1.0  0.7255155454501434  0.3738499182655418  0.16985801236697287  1.0000
  O   O18       1.0  0.5926402445481926  0.24503779969548856  0.3001305408602448  1.0000
  O   O19       1.0  0.6719947300199179  0.43552672305811796  0.22704089250397172  1.0000
  O   O20       1.0  0.7206703713152011  0.21840962612510154  0.16468297550262886  1.0000
  O   O21       1.0  0.8776105912265492  0.22238417970751823  0.16907868732361922  1.0000
  O   O22       1.0  0.86189133578614  0.2543633381172015  0.3094416220953633  1.0000
  O   O23       1.0  0.9325350718979095  0.1729592871620227  0.22869103254786444  1.0000
  O   O24       1.0  0.7532693094356872  0.36420268715608745  0.3082004488182832  1.0000
  O   O25       1.0  0.744617831436848  0.09351753225450224  0.3001487435995429  1.0000
  O   O26       1.0  0.8580883892112042  0.09672065563654532  0.3041547998873355  1.0000
  O   O27       1.0  0.2498710082261582  0.7497279574136969  0.7495959728565396  1.0000
  O   O28       1.0  0.3757926102228737  0.7252399273942347  0.6685285037159616  1.0000
  O   O29       1.0  0.36210318146252957  0.755425066510647  0.8079644773243616  1.0000
  O   O30       1.0  0.1722963801805761  0.9334945357719637  0.7275377035505742  1.0000
  O   O31       1.0  0.4339399183540564  0.6736795128530275  0.7272072636309944  1.0000
  O   O32       1.0  0.2248697568673492  0.8758681119595055  0.6688623535907398  1.0000
  O   O33       1.0  0.25205201791072074  0.8634368578447962  0.8080661599418875  1.0000
  O   O34       1.0  0.0952561770955924  0.8584401493371774  0.8037405529453991  1.0000
  O   O35       1.0  0.16610559957988608  0.6631412716166738  0.7181255393243904  1.0000
  O   O36       1.0  0.0955069328999727  0.7439671303419219  0.799252419880915  1.0000
  O   O37       1.0  0.2193746352204684  0.7194971315646798  0.6635613754504066  1.0000
  O   O38       1.0  0.3578865245006497  0.5985249934067128  0.8027258691149299  1.0000
  O   O39       1.0  0.2460961593706941  0.5912342794247466  0.7998166204911783  1.0000
  O   O40       1.0  0.5000629437979001  3.955880320209246e-05  0.9999882786508322  1.0000
  O   O41       1.0  0.505282441556183  0.15608687897986337  0.9496588904291274  1.0000
  O   O42       1.0  0.38626789468982997  0.996797764909616  0.9415992422940321  1.0000
  O   O43       1.0  0.6529500837862514  0.8917016565270759  0.9466443237320803  1.0000
  O   O44       1.0  0.3909041307247278  0.1537500098972302  0.9469095579485228  1.0000
  O   O45       1.0  0.6568935003074614  0.005021955868798393  0.9497241817351493  1.0000
  O   O46       1.0  0.4954258595937944  0.8875367375158021  0.9413894644208797  1.0000
  O   O47       1.0  0.5772550396731828  0.8162347645800452  0.02240856503967594  1.0000
  O   O48       1.0  0.5317169940943954  0.031350017598988755  0.0857053438750981  1.0000
  O   O49       1.0  0.5262267525927341  0.87413580254691  0.08105753791743099  1.0000
  O   O50       1.0  0.5863490608836486  0.0857634895510913  0.030862076477816906  1.0000
  O   O51       1.0  0.3155754841379519  0.07823396329183656  0.0224839349193999  1.0000
  O   O52       1.0  0.3746593226209711  0.025579299449212597  0.08080693009525672  1.0000
  O   O53       1.0  0.7819161239987904  0.5180656040961723  0.3996900911440023  1.0000
  O   O54       1.0  0.15969894515610863  0.6595280822005167  0.5407549923780479  1.0000
  O   O55       1.0  0.7087106628789499  0.20906573144498697  0.09090828882989405  1.0000
  O   O56       1.0  0.23169050964770582  0.9686996313496651  0.850159628608374  1.0000
