data_image0
_chemical_formula_structural       Zn2H24C42N6O8
_chemical_formula_sum              "Zn2 H24 C42 N6 O8"
_cell_length_a       11.913693081582078
_cell_length_b       14.68696063875229
_cell_length_c       15.66096918104988
_cell_angle_alpha    99.41894910423605
_cell_angle_beta     89.74263735864466
_cell_angle_gamma    106.94333701202054

_space_group_name_H-M_alt    "P 1"
_space_group_IT_number       1

loop_
  _space_group_symop_operation_xyz
  'x, y, z'

loop_
  _atom_site_type_symbol
  _atom_site_label
  _atom_site_symmetry_multiplicity
  _atom_site_fract_x
  _atom_site_fract_y
  _atom_site_fract_z
  _atom_site_occupancy
  Zn  Zn1       1.0  0.5326982968120647  0.5950132264315332  0.48300233953951727  1.0000
  Zn  Zn2       1.0  0.4657313777803936  0.40408005020676563  0.516853802249102  1.0000
  H   H1        1.0  0.46835916142933354  0.7529328297740037  0.05746388102613049  1.0000
  H   H2        1.0  0.3826117491241448  0.3605413465639843  0.8475820625858501  1.0000
  H   H3        1.0  0.31114264144039083  0.9787367777366925  0.6808741106597436  1.0000
  H   H4        1.0  0.6940185565904289  0.02203986301105231  0.32134649639754537  1.0000
  H   H5        1.0  0.4649350495978979  0.7664570659198946  0.5390039008660564  1.0000
  H   H6        1.0  0.5442464710348958  0.23578966204452467  0.46569333624199055  1.0000
  H   H7        1.0  0.6710412776427505  0.6892975993546886  0.3451273273784707  1.0000
  H   H8        1.0  0.32420265414917543  0.3079318239369685  0.6509743130574179  1.0000
  H   H9        1.0  0.5585392695244595  0.8727381083401372  0.8790995517221559  1.0000
  H   H10       1.0  0.5488478134827732  0.8460297513211333  0.9796027123363585  1.0000
  H   H11       1.0  0.3623733274205065  0.12688702974376306  0.12029184442299369  1.0000
  H   H12       1.0  0.3453661494289264  0.23835463630499737  0.9386074079872271  1.0000
  H   H13       1.0  0.3701626012634663  0.15262319168053304  0.0192639648947832  1.0000
  H   H14       1.0  0.21937413729908434  0.192460602901491  0.7365470157179885  1.0000
  H   H15       1.0  0.2202640047585973  0.07608499240747342  0.7207239044170493  1.0000
  H   H16       1.0  0.7778821345782134  0.8052470420331237  0.2604347307684307  1.0000
  H   H17       1.0  0.7831666880927202  0.9232146820791273  0.27989223200101776  1.0000
  H   H18       1.0  0.3953897282317627  0.8615548286753951  0.601723893505621  1.0000
  H   H19       1.0  0.6115875870806138  0.1399112432230113  0.40161137768971134  1.0000
  H   H20       1.0  0.4705150344929906  0.5407869095953759  0.22076725737956338  1.0000
  H   H21       1.0  0.45441549642801254  0.4598593870752553  0.7772113119398014  1.0000
  H   H22       1.0  0.3957690137084668  0.24449519922734456  0.24747611475731895  1.0000
  H   H23       1.0  0.5336731353626263  0.7565947690053181  0.7514775723675412  1.0000
  H   H24       1.0  0.4402710355008282  0.6312031918429145  0.14881329682423683  1.0000
  C   C1        1.0  0.5078631148058222  0.5761006028411374  0.6622370287320861  1.0000
  C   C2        1.0  0.3735304661228867  0.31404335037959197  0.9695022477570631  1.0000
  C   C3        1.0  0.3370459843890998  0.16299958236231055  0.6492887378453813  1.0000
  C   C4        1.0  0.6652233351901061  0.8368265872507126  0.3511716158411176  1.0000
  C   C5        1.0  0.36269441737811553  0.25194673035234433  0.6216570300452346  1.0000
  C   C6        1.0  0.6371683164028852  0.7469466355310034  0.3773247858247402  1.0000
  C   C7        1.0  0.4857849605015191  0.2105346604844059  0.5159828561321262  1.0000
  C   C8        1.0  0.5201082359802811  0.7905991671268355  0.4867019398723187  1.0000
  C   C9        1.0  0.46476360923610127  0.11748656471787201  0.5369332010425083  1.0000
  C   C10       1.0  0.5416615441156125  0.883804371925635  0.46605864147797854  1.0000
  C   C11       1.0  0.3888649681254323  0.09272448971231745  0.6056868751066417  1.0000
  C   C12       1.0  0.4654704350258571  0.4276763574128143  0.33633131951192746  1.0000
  C   C13       1.0  0.616303292245128  0.9081150877338833  0.3965623624941514  1.0000
  C   C14       1.0  0.5163843673917016  0.04730947884959143  0.4902459210886859  1.0000
  C   C15       1.0  0.49093472877420674  0.9542809763694823  0.5132914781948159  1.0000
  C   C16       1.0  0.2757785473589678  0.490086000397362  0.5023906314474755  1.0000
  C   C17       1.0  0.7193760249602834  0.5034915528470452  0.49928944400534186  1.0000
  C   C18       1.0  0.41559706109460165  0.9325702081357794  0.583006113543199  1.0000
  C   C19       1.0  0.5913722265275396  0.068881791892295  0.42030674515723376  1.0000
  C   C20       1.0  0.366982623763768  0.9990178095514042  0.6275746206238607  1.0000
  C   C21       1.0  0.6389148537542297  0.0020568995451454995  0.3750871933680456  1.0000
  C   C22       1.0  0.15511655814437125  0.4919604053523445  0.5030455225655857  1.0000
  C   C23       1.0  0.47082031520577783  0.6560330494807404  0.9360607659218514  1.0000
  C   C24       1.0  0.8407490332719973  0.5033820165993178  0.49979181769873543  1.0000
  C   C25       1.0  0.05390884802989864  0.4959004597461247  0.502285675955754  1.0000
  C   C26       1.0  0.9421466293615737  0.4998427912726697  0.5010901166051481  1.0000
  C   C27       1.0  0.4930589888100557  0.6047694587125607  0.7568752313818761  1.0000
  C   C28       1.0  0.43544829144975244  0.39598526084584773  0.24129159069393313  1.0000
  C   C29       1.0  0.5000917995377991  0.7286817127809049  0.8819353865582044  1.0000
  C   C30       1.0  0.3801911642572975  0.2681780604887508  0.11590102439142667  1.0000
  C   C31       1.0  0.5099816048958062  0.7020953031989878  0.793480630795038  1.0000
  C   C32       1.0  0.4019394881633431  0.29743150055122686  0.2048286323571844  1.0000
  C   C33       1.0  0.4636541497826415  0.5335521499339608  0.8082677150773276  1.0000
  C   C34       1.0  0.3898929295513299  0.33921348811085056  0.06127226781813282  1.0000
  C   C35       1.0  0.4429342453819062  0.46556500039232435  0.18959711758891729  1.0000
  C   C36       1.0  0.45160182003591137  0.5569877713199178  0.8979539708036413  1.0000
  C   C37       1.0  0.41958240539928954  0.43913809096761725  0.09946590088959077  1.0000
  C   C38       1.0  0.4250730668258954  0.4836918414628218  0.9529148093113873  1.0000
  C   C39       1.0  0.43020948303992423  0.5110880867330111  0.044181612180757696  1.0000
  C   C40       1.0  0.4453892904076684  0.6100611664416608  0.0792818480065023  1.0000
  C   C41       1.0  0.3933536692732603  0.38328104530847196  0.9175629529279872  1.0000
  C   C42       1.0  0.4622249340812701  0.6791021246931663  0.027312619489016775  1.0000
  N   N1        1.0  0.4352642126884947  0.2739439624187271  0.5568904987600618  1.0000
  N   N2        1.0  0.5669841668723167  0.7258557032957857  0.44359039499978076  1.0000
  N   N3        1.0  0.5157619818641097  0.82551270173412  0.917526423545361  1.0000
  N   N4        1.0  0.3459990522883772  0.1700319325051113  0.0805071999908904  1.0000
  N   N5        1.0  0.2665536591407616  0.14551943499638045  0.7188215692593259  1.0000
  N   N6        1.0  0.7344994321738413  0.8542561670205446  0.281131241617274  1.0000
  O   O1        1.0  0.5209475798322459  0.6399491370408444  0.6136714770598317  1.0000
  O   O2        1.0  0.4329720121233721  0.3645321214847571  0.38561406771513856  1.0000
  O   O3        1.0  0.5057950692768503  0.4886429071471882  0.6366164863125476  1.0000
  O   O4        1.0  0.5216053796376628  0.5164176416347674  0.3610525890940223  1.0000
  O   O5        1.0  0.34873279770901183  0.5603456356852095  0.4752554973710658  1.0000
  O   O6        1.0  0.6436145738854648  0.4216487286477034  0.4980314750860514  1.0000
  O   O7        1.0  0.29702183491028233  0.41892941679045514  0.5286487914555025  1.0000
  O   O8        1.0  0.7004166476928334  0.5845681056943451  0.5002348346528436  1.0000
