data_image0
_chemical_formula_structural       Zn2H17C36S2BrN2O8F4
_chemical_formula_sum              "Zn2 H17 C36 S2 Br1 N2 O8 F4"
_cell_length_a       12.768316792968658
_cell_length_b       16.360349918704777
_cell_length_c       17.71591873806535
_cell_angle_alpha    95.5327552119674
_cell_angle_beta     90.24766502433432
_cell_angle_gamma    92.89955297899783

_space_group_name_H-M_alt    "P 1"
_space_group_IT_number       1

loop_
  _space_group_symop_operation_xyz
  'x, y, z'

loop_
  _atom_site_type_symbol
  _atom_site_label
  _atom_site_symmetry_multiplicity
  _atom_site_fract_x
  _atom_site_fract_y
  _atom_site_fract_z
  _atom_site_occupancy
  Zn  Zn1       1.0  0.4970968951187941  0.4138427967005995  0.498273793927552  1.0000
  Zn  Zn2       1.0  0.5046624559375416  0.5854624156456012  0.5014819797757821  1.0000
  H   H1        1.0  0.39594625378101966  0.7119466017133008  0.4267676102395014  1.0000
  H   H2        1.0  0.39705768700788713  0.864450694784111  0.4275528151000571  1.0000
  H   H3        1.0  0.6409805738928468  0.8786197536113962  0.6009556964158873  1.0000
  H   H4        1.0  0.3604167043101539  0.12132086154309721  0.398039559111531  1.0000
  H   H5        1.0  0.6016832351168873  0.13493832814751985  0.5734000557410324  1.0000
  H   H6        1.0  0.6039606728085616  0.28737745757214833  0.5738596232128399  1.0000
  H   H7        1.0  0.5859831070114935  0.004191348941397199  0.5616403111899329  1.0000
  H   H8        1.0  0.4132805989470326  0.9955505601217284  0.43868784827142077  1.0000
  H   H9        1.0  0.5060649524013029  0.6166704239543535  0.26288094971550174  1.0000
  H   H10       1.0  0.5057201138042656  0.6117599584747282  0.12288640536909405  1.0000
  H   H11       1.0  0.4915725645801031  0.34574129885287874  0.11163120505030828  1.0000
  H   H12       1.0  0.5082837525294579  0.6545481783268418  0.8881106819607323  1.0000
  H   H13       1.0  0.49396867845986486  0.388539230564554  0.877094116179492  1.0000
  H   H14       1.0  0.49433883358292247  0.3834893249958  0.7370954822649975  1.0000
  H   H15       1.0  0.4947719198899207  0.40580407833956395  0.9969794089438717  1.0000
  H   H16       1.0  0.5050385187786901  0.5945433546506182  0.002897764548116314  1.0000
  H   H17       1.0  0.8647406387990698  0.6281924990017489  0.5030262416043171  1.0000
  C   C1        1.0  0.49992366126115667  0.4952711697132699  0.35208739032060515  1.0000
  C   C2        1.0  0.2959928596356177  0.502335547313983  0.5003034845686469  1.0000
  C   C3        1.0  0.501397667125559  0.5045260586917166  0.6477419925797034  1.0000
  C   C4        1.0  0.705680619529268  0.49680017220471473  0.499824096546888  1.0000
  C   C5        1.0  0.4486386314532639  0.7523307288692254  0.46387723995658087  1.0000
  C   C6        1.0  0.4500494250670001  0.8370442504990265  0.4650678307213879  1.0000
  C   C7        1.0  0.5198005966549956  0.8861534317163092  0.5147019634915677  1.0000
  C   C8        1.0  0.5851078801527406  0.8455055867587619  0.5610033403086091  1.0000
  C   C9        1.0  0.577617876180298  0.7601287860068524  0.5551221239547741  1.0000
  C   C10       1.0  0.5278955100431871  0.9756970449132895  0.5204439461864324  1.0000
  C   C11       1.0  0.47130713761945486  0.0240023619182992  0.4799537729661123  1.0000
  C   C12       1.0  0.4160339619696882  0.1542883299383533  0.43827552718927604  1.0000
  C   C13       1.0  0.47997055658051113  0.11355000232606473  0.4854429185263383  1.0000
  C   C14       1.0  0.549481029680905  0.1624537023695964  0.5354030362701678  1.0000
  C   C15       1.0  0.5516765909289488  0.24714642525605512  0.5362928874766479  1.0000
  C   C16       1.0  0.4249033014305326  0.23964349211298244  0.4433826680473273  1.0000
  C   C17       1.0  0.49917400045488586  0.486565923812293  0.2671557144190685  1.0000
  C   C18       1.0  0.5027529499626766  0.5578198070889402  0.22826037901410243  1.0000
  C   C19       1.0  0.5025774918319142  0.5545733930326192  0.14988495198402768  1.0000
  C   C20       1.0  0.4985415198235614  0.4781127830799079  0.10528952794280848  1.0000
  C   C21       1.0  0.4947999148351272  0.40644328820017955  0.14323694739677245  1.0000
  C   C22       1.0  0.4952404117160609  0.4111663531025158  0.22192404140790956  1.0000
  C   C23       1.0  0.49815576083916113  0.4693323402198574  0.02277380761260871  1.0000
  C   C24       1.0  0.5016279541712335  0.5310277834340056  0.9770801248374633  1.0000
  C   C25       1.0  0.5051820546082338  0.5938236215717512  0.8565439387311924  1.0000
  C   C26       1.0  0.5013113504592964  0.5221960949989324  0.894568048969283  1.0000
  C   C27       1.0  0.4973255500364003  0.44569298630992904  0.8500526171763308  1.0000
  C   C28       1.0  0.49753943053116956  0.4423650539035293  0.7716806953006663  1.0000
  C   C29       1.0  0.5014922469819609  0.5135708132490394  0.7326872858207165  1.0000
  C   C30       1.0  0.5051514495958287  0.5889951282242764  0.7778442228515484  1.0000
  C   C31       1.0  0.10819467360951761  0.43214318385459904  0.4993439761596575  1.0000
  C   C32       1.0  0.8909616635082003  0.5658858937910766  0.5015071007748089  1.0000
  C   C33       1.0  0.18019888746148638  0.498709738961672  0.5004111335940634  1.0000
  C   C34       1.0  0.8214374170770923  0.49821566188927596  0.5000198806534185  1.0000
  C   C35       1.0  0.9958274114711614  0.5419388592225047  0.5011165130188358  1.0000
  C   C36       1.0  0.0034563674042971016  0.4562150393166178  0.4995464018710647  1.0000
  S   S1        1.0  0.1184534919975988  0.5915441804693842  0.5020083784327908  1.0000
  S   S2        1.0  0.8822986792558466  0.40521902742997906  0.4983522743136957  1.0000
  Br  Br1       1.0  0.1375028937621039  0.32031568995378734  0.4977527868184025  1.0000
  N   N1        1.0  0.5124338371589515  0.7136580844002866  0.5086515934873787  1.0000
  N   N2        1.0  0.48936903485647315  0.28591551546760746  0.4905951803588449  1.0000
  O   O1        1.0  0.5016852448398907  0.4299635961920957  0.3852822812738309  1.0000
  O   O2        1.0  0.49898659944931717  0.5683562691486728  0.3846708807715159  1.0000
  O   O3        1.0  0.3411426938569163  0.5736170780937401  0.49851575840317935  1.0000
  O   O4        1.0  0.3405297711828581  0.4347800606218969  0.5020734811761044  1.0000
  O   O5        1.0  0.5000279385552843  0.5697491949489618  0.6142088583745886  1.0000
  O   O6        1.0  0.5024993546968091  0.4313932673697282  0.6155414441281122  1.0000
  O   O7        1.0  0.658599286729007  0.42622514799980854  0.5014553329612139  1.0000
  O   O8        1.0  0.6632484491804007  0.5653283285667641  0.49801005861129954  1.0000
  F   F1        1.0  0.6402921106295308  0.7207353026425452  0.598662453989334  1.0000
  F   F2        1.0  0.3650515078228409  0.27909985251011454  0.39813868921859796  1.0000
  F   F3        1.0  0.4913851351922246  0.338382526907111  0.2530560683352262  1.0000
  F   F4        1.0  0.509218882466527  0.6617526256546641  0.746585128291464  1.0000
