data_image0
_chemical_formula_structural       Hg2H32C44N8Cl4
_chemical_formula_sum              "Hg2 H32 C44 N8 Cl4"
_cell_length_a       5.077191831146448
_cell_length_b       7.418359392858187
_cell_length_c       26.599496307000056
_cell_angle_alpha    91.90190599186846
_cell_angle_beta     89.99921861143542
_cell_angle_gamma    89.99963337273402

_space_group_name_H-M_alt    "P 1"
_space_group_IT_number       1

loop_
  _space_group_symop_operation_xyz
  'x, y, z'

loop_
  _atom_site_type_symbol
  _atom_site_label
  _atom_site_symmetry_multiplicity
  _atom_site_fract_x
  _atom_site_fract_y
  _atom_site_fract_z
  _atom_site_occupancy
  Hg  Hg1       1.0  0.8943695954275485  0.7500000960858272  0.749996941125886  1.0000
  Hg  Hg2       1.0  0.10563096393309483  0.24999457548169346  0.25000389815065927  1.0000
  H   H1        1.0  0.61566290766109  0.36953647072333234  0.7876470501428303  1.0000
  H   H2        1.0  0.6156529689619035  0.13045194454450382  0.7123508306387905  1.0000
  H   H3        1.0  0.3843356820949283  0.6304458327169585  0.212355831355346  1.0000
  H   H4        1.0  0.3843810735330564  0.8695442705304969  0.2876481548279487  1.0000
  H   H5        1.0  0.25955712762117145  0.25810444406511823  0.8438051555978988  1.0000
  H   H6        1.0  0.259542208643353  0.2418853321465377  0.6561959243810521  1.0000
  H   H7        1.0  0.7404355532743596  0.7418830958040558  0.15619932110459445  1.0000
  H   H8        1.0  0.7405016818322566  0.7581150446967158  0.3438020049055197  1.0000
  H   H9        1.0  0.015625875977406202  0.48463095339521073  0.8998779038441287  1.0000
  H   H10       1.0  0.015607316359407302  0.015367887538637609  0.6001250910879606  1.0000
  H   H11       1.0  0.9843727136498543  0.5153674110098834  0.10012638439681613  1.0000
  H   H12       1.0  0.9844089996649787  0.9846457367245449  0.39987532451681324  1.0000
  H   H13       1.0  0.5178898184790982  0.8960400683636818  0.8409551506934393  1.0000
  H   H14       1.0  0.51788983743198  0.6039524122919955  0.6590391933148612  1.0000
  H   H15       1.0  0.48210483224757184  0.1039454394896921  0.1590428969971498  1.0000
  H   H16       1.0  0.4820989043632338  0.39604634293278446  0.3409613406651318  1.0000
  H   H17       1.0  0.20696327522962582  0.9827941414163136  0.9049425505499472  1.0000
  H   H18       1.0  0.2069549056448636  0.5172046951164473  0.5950568431853541  1.0000
  H   H19       1.0  0.7930274362275187  0.0171993383086431  0.09505676365836283  1.0000
  H   H20       1.0  0.7930200489177965  0.4828116256067432  0.4049436192178178  1.0000
  H   H21       1.0  0.8759456974103588  0.16200579284328137  0.8958036994016538  1.0000
  H   H22       1.0  0.875921713843404  0.3379946255458536  0.6041967266323455  1.0000
  H   H23       1.0  0.12405289241141304  0.8379767059958283  0.10419730495950573  1.0000
  H   H24       1.0  0.12405717995950032  0.6620287096452131  0.3958012246323293  1.0000
  H   H25       1.0  0.6136011973254443  0.41165282487792604  0.935353314590671  1.0000
  H   H26       1.0  0.6135745952393634  0.08835285249345756  0.5646475035177759  1.0000
  H   H27       1.0  0.3863914837445038  0.5883297521339443  0.0646469389235307  1.0000
  H   H28       1.0  0.3864200553858269  0.9116679816937746  0.4353485238455122  1.0000
  H   H29       1.0  0.31606249308400447  0.3533665119800843  0.0071616182700253985  1.0000
  H   H30       1.0  0.3160403389791356  0.1466386169853635  0.4928387660162203  1.0000
  H   H31       1.0  0.6839439751497735  0.6466133686335453  0.9928385884824282  1.0000
  H   H32       1.0  0.6839484029371617  0.8533769417196949  0.5071560415858585  1.0000
  C   C1        1.0  0.5073674403316701  0.46165512653305274  0.8129650663183838  1.0000
  C   C2        1.0  0.5073523263436499  0.038340632085166214  0.6870320929253567  1.0000
  C   C3        1.0  0.4926272101942787  0.5383352660181089  0.18703795541530616  1.0000
  C   C4        1.0  0.49266595943991837  0.9616597838952002  0.3129654609678454  1.0000
  C   C5        1.0  0.30842397031968716  0.4010369995938348  0.8443926258527698  1.0000
  C   C6        1.0  0.3084026168974532  0.09896088128152768  0.6556062118991977  1.0000
  C   C7        1.0  0.691572649742902  0.5989587075280838  0.15561124021995454  1.0000
  C   C8        1.0  0.6916196079913918  0.9010516292633212  0.34439192776159194  1.0000
  C   C9        1.0  0.17440921158678446  0.5252417555414792  0.8751265614804142  1.0000
  C   C10       1.0  0.17439620395749963  0.9747598450569369  0.624873716396863  1.0000
  C   C11       1.0  0.8255933172018146  0.47476338885292074  0.1248774681864475  1.0000
  C   C12       1.0  0.8256240513066333  0.025251200069362798  0.37512552617703687  1.0000
  C   C13       1.0  0.24673374716594057  0.7077337281656711  0.874650904113068  1.0000
  C   C14       1.0  0.24672052637122735  0.7922607684095267  0.6253494400749844  1.0000
  C   C15       1.0  0.7532707513520762  0.29226360068061297  0.1253503573290686  1.0000
  C   C16       1.0  0.7532741241140357  0.20774183595422357  0.3746530411493084  1.0000
  C   C17       1.0  0.4533980971671241  0.7559602920911244  0.8427787180706902  1.0000
  C   C18       1.0  0.4533988410494275  0.7440362484889105  0.6572184954801871  1.0000
  C   C19       1.0  0.5466044317862214  0.24403437947198373  0.1572221212032403  1.0000
  C   C20       1.0  0.5466056575080317  0.2559611975966547  0.3427816396797425  1.0000
  C   C21       1.0  0.11152932084731051  0.8492483732132357  0.903940922059981  1.0000
  C   C22       1.0  0.11152744849843543  0.6507443844246552  0.5960563559331791  1.0000
  C   C23       1.0  0.8884889648476886  0.15074629831457287  0.09605991719300991  1.0000
  C   C24       1.0  0.8884868980265354  0.3492571843494047  0.4039430984739951  1.0000
  C   C25       1.0  0.751697988687802  0.9650362732688507  0.9482012395138144  1.0000
  C   C26       1.0  0.7516866106442635  0.5349640110033888  0.5517982779967809  1.0000
  C   C27       1.0  0.24831044902257565  0.0349501137801695  0.05180133665900401  1.0000
  C   C28       1.0  0.24830016150316683  0.4650592460105044  0.4482004241122298  1.0000
  C   C29       1.0  0.7578419446859997  0.13770053183901607  0.9291349070423467  1.0000
  C   C30       1.0  0.7578299396448787  0.3623033074132779  0.5708640025341226  1.0000
  C   C31       1.0  0.24214876669224597  0.8622927134073706  0.0708666597303846  1.0000
  C   C32       1.0  0.24216077180233953  0.6377161785991061  0.4291320014626906  1.0000
  C   C33       1.0  0.6045904159552222  0.2776895622566117  0.9508812924551507  1.0000
  C   C34       1.0  0.6045675426041159  0.22231226724419878  0.5491179777767031  1.0000
  C   C35       1.0  0.395406204228685  0.7222914320841837  0.0491211902465238  1.0000
  C   C36       1.0  0.395411351365766  0.77770745327323  0.45087577367139187  1.0000
  C   C37       1.0  0.43815266258177843  0.24620363589497174  0.9907086547599989  1.0000
  C   C38       1.0  0.43813231098889827  0.2538030228989072  0.5092907525931807  1.0000
  C   C39       1.0  0.561851835980896  0.7537856038492662  0.0092924664518677  1.0000
  C   C40       1.0  0.5618564308678486  0.7462233212755436  0.4907042419825984  1.0000
  C   C41       1.0  0.5790816005276298  0.9280982982042045  0.989413315179391  1.0000
  C   C42       1.0  0.5790826371063034  0.5719149712020339  0.5105861206667514  1.0000
  C   C43       1.0  0.4209209283599692  0.0718961779600988  0.0105894012315559  1.0000
  C   C44       1.0  0.42091792219230945  0.4281151439386334  0.48941157200028584  1.0000
  N   N1        1.0  0.5771689711989583  0.6363808244679561  0.8123359731257624  1.0000
  N   N2        1.0  0.577164408769903  0.8636150834509946  0.6876616622702373  1.0000
  N   N3        1.0  0.422825679422509  0.3636043707473178  0.1876650779840574  1.0000
  N   N4        1.0  0.42284599851705473  0.13638632901283634  0.3123392938517853  1.0000
  N   N5        1.0  0.8911781553481148  0.8206518245511205  0.9262135641591132  1.0000
  N   N6        1.0  0.8911598591349518  0.6793426765868913  0.5737832365330818  1.0000
  N   N7        1.0  0.10883028234911052  0.17933452341814157  0.07378938744111  1.0000
  N   N8        1.0  0.1088111564395433  0.32067423034155235  0.4262115944642702  1.0000
  Cl  Cl1       1.0  0.978693877703215  0.03815646557600159  0.789735764671079  1.0000
  Cl  Cl2       1.0  0.9786709888364344  0.4618318668661275  0.710259297327113  1.0000
  Cl  Cl3       1.0  0.021318499192574305  0.9618299214641863  0.21026681149650986  1.0000
  Cl  Cl4       1.0  0.021300026776017902  0.5381563764873006  0.2897384217109078  1.0000
