data_image0
_chemical_formula_structural       Zn2H15C30N2Cl3O9
_chemical_formula_sum              "Zn2 H15 C30 N2 Cl3 O9"
_cell_length_a       9.88168404455097
_cell_length_b       10.840831029926969
_cell_length_c       11.034363456444218
_cell_angle_alpha    94.32397839234069
_cell_angle_beta     90.57736950849068
_cell_angle_gamma    93.3798660208477

_space_group_name_H-M_alt    "P 1"
_space_group_IT_number       1

loop_
  _space_group_symop_operation_xyz
  'x, y, z'

loop_
  _atom_site_type_symbol
  _atom_site_label
  _atom_site_symmetry_multiplicity
  _atom_site_fract_x
  _atom_site_fract_y
  _atom_site_fract_z
  _atom_site_occupancy
  Zn  Zn1       1.0  0.6465098223771335  0.5074639234970775  0.4991257058785835  1.0000
  Zn  Zn2       1.0  0.3580211292103073  0.4928841657808789  0.4968706116119821  1.0000
  H   H1        1.0  0.9761303361026563  0.5108942055294249  0.9035529271639365  1.0000
  H   H2        1.0  0.7619689558974231  0.4763553724575615  0.7845796392040614  1.0000
  H   H3        1.0  0.289051908103339  0.4936121734983416  0.8795988948934127  1.0000
  H   H4        1.0  0.1527958668218474  0.6395996849106423  0.614985025429647  1.0000
  H   H5        1.0  0.23844883763264593  0.3123605712797469  0.33886960477163813  1.0000
  H   H6        1.0  0.09660464822027141  0.17142404938820732  0.1946322192414628  1.0000
  H   H7        1.0  0.8456794037352395  0.1864252903288133  0.18821145069220796  1.0000
  H   H8        1.0  0.7356075636581992  0.3411727252706029  0.323002865489464  1.0000
  H   H9        1.0  0.624113657744978  0.06254770674473062  0.327343185667374  1.0000
  H   H10       1.0  0.7353670488056778  0.9317688335423713  0.5165625623385568  1.0000
  H   H11       1.0  0.6191076328990165  0.10272089894673542  0.6902856449431314  1.0000
  H   H12       1.0  0.2697715736114645  0.06772022865933992  0.49639360055509507  1.0000
  H   H13       1.0  0.2841701386327458  0.4947349449878332  0.10682131981052834  1.0000
  H   H14       1.0  0.7502940625668089  0.5764008411608117  0.2304632948372572  1.0000
  H   H15       1.0  0.33468270367857406  0.9941497993476673  0.7561529499751248  1.0000
  C   C1        1.0  0.48763525813586034  0.5037819044577462  0.26299154731795943  1.0000
  C   C2        1.0  0.4356641082209904  0.9669115371771113  0.6082231629224071  1.0000
  C   C3        1.0  0.3729927449490873  0.03730379485663351  0.5028763528931892  1.0000
  C   C4        1.0  0.5039472788742857  0.1251673901656574  0.5048714408046068  1.0000
  C   C5        1.0  0.7518413731688156  0.5527306157060039  0.13329138482419725  1.0000
  C   C6        1.0  0.8733536307889624  0.5516140583080897  0.07356048976009791  1.0000
  C   C7        1.0  0.8785650979209337  0.5181786801950564  0.9478221875185188  1.0000
  C   C8        1.0  0.7591346130505842  0.4981857348180086  0.8820385048947162  1.0000
  C   C9        1.0  0.6302877537754341  0.5072398270944234  0.937638157908275  1.0000
  C   C10       1.0  0.6273713128003992  0.5238548094895136  0.06849886323986003  1.0000
  C   C11       1.0  0.4992875516206965  0.5130341433065624  0.12841300305475303  1.0000
  C   C12       1.0  0.509840589915733  0.262020561582041  0.498909852371412  1.0000
  C   C13       1.0  0.38041865109963885  0.5013280978778313  0.05969421281810842  1.0000
  C   C14       1.0  0.38319088278345964  0.49803435883405456  0.9324161237240108  1.0000
  C   C15       1.0  0.5045128878972065  0.4992885245663246  0.8702526534530508  1.0000
  C   C16       1.0  0.12901546850992673  0.31773351564463326  0.3346565884453626  1.0000
  C   C17       1.0  0.04927947164551941  0.23963453494047832  0.2554357897474589  1.0000
  C   C18       1.0  0.9072807390939843  0.2481354776367866  0.2522021230414283  1.0000
  C   C19       1.0  0.84451004903935  0.3337070860260526  0.3278880346348673  1.0000
  C   C20       1.0  0.9233217760491855  0.41595481062152123  0.4095009381243103  1.0000
  C   C21       1.0  0.0678109158288436  0.4074095380419323  0.41212740443848633  1.0000
  C   C22       1.0  0.0883250298045937  0.5741435064050721  0.5569052987086709  1.0000
  C   C23       1.0  0.4959758899759948  0.500439782034178  0.7338587383101116  1.0000
  C   C24       1.0  0.9453863975995491  0.5820148604445308  0.5540807570402893  1.0000
  C   C25       1.0  0.5028052254469841  0.7374760510232647  0.5095312560446674  1.0000
  C   C26       1.0  0.5718526848618737  0.0339034592398448  0.4083506983248812  1.0000
  C   C27       1.0  0.44020873724998216  0.9465070292787632  0.4083134132134349  1.0000
  C   C28       1.0  0.5035420256245686  0.875016622368392  0.5135187920294444  1.0000
  C   C29       1.0  0.6330503396527691  0.9646138150865226  0.5134278033977326  1.0000
  C   C30       1.0  0.5680784269038953  0.0560566038492283  0.6095704224569689  1.0000
  N   N1        1.0  0.14640128618594156  0.48782700438413684  0.4886907511636524  1.0000
  N   N2        1.0  0.8639814873895446  0.5045672272709255  0.4844448088254085  1.0000
  Cl  Cl1       1.0  0.3586817288380928  0.8732737881672604  0.2786003175524244  1.0000
  Cl  Cl2       1.0  0.8802389985174275  0.6965068568279094  0.6466366507256966  1.0000
  Cl  Cl3       1.0  0.024117136681098796  0.5903255459528154  0.15394723221261594  1.0000
  O   O1        1.0  0.5920223470359858  0.47229521966855265  0.3198512225861806  1.0000
  O   O2        1.0  0.37399634795450254  0.5218699943165603  0.3120199801049638  1.0000
  O   O3        1.0  0.6240566182434933  0.3196587685680754  0.523279732330771  1.0000
  O   O4        1.0  0.40099324716860013  0.3103531239027363  0.4688749309574123  1.0000
  O   O5        1.0  0.6028586923892548  0.5354006087910862  0.6788040838685065  1.0000
  O   O6        1.0  0.38148553397927293  0.46993170577874105  0.6825261311557826  1.0000
  O   O7        1.0  0.6134039082301328  0.6896711050289355  0.47877386332148586  1.0000
  O   O8        1.0  0.3915689686681675  0.6795848528053128  0.5333072243849417  1.0000
  O   O9        1.0  0.3686264657175401  0.9236987357770803  0.7079987612146541  1.0000
