data_image0
_chemical_formula_structural       Cu4H28C28I4N8
_chemical_formula_sum              "Cu4 H28 C28 I4 N8"
_cell_length_a       8.895687905896454
_cell_length_b       10.403648242088904
_cell_length_c       10.479614557755067
_cell_angle_alpha    105.87978051547304
_cell_angle_beta     90.02409385949352
_cell_angle_gamma    115.30811087146161

_space_group_name_H-M_alt    "P 1"
_space_group_IT_number       1

loop_
  _space_group_symop_operation_xyz
  'x, y, z'

loop_
  _atom_site_type_symbol
  _atom_site_label
  _atom_site_symmetry_multiplicity
  _atom_site_fract_x
  _atom_site_fract_y
  _atom_site_fract_z
  _atom_site_occupancy
  Cu  Cu1       1.0  0.6442865733447006  0.06707482456854312  0.9656945182384644  1.0000
  Cu  Cu2       1.0  0.5773289024840834  0.9331166762042501  0.5343783431671411  1.0000
  Cu  Cu3       1.0  0.35571626125575756  0.9329235129614943  0.03430895521776028  1.0000
  Cu  Cu4       1.0  0.4226632664533908  0.06687606750959668  0.46562548397036346  1.0000
  H   H1        1.0  0.2248191812055111  0.4278028242466832  0.9237061678004395  1.0000
  H   H2        1.0  0.7969192409443124  0.5723113356857112  0.5764265303482645  1.0000
  H   H3        1.0  0.7751741490765268  0.5721944972160458  0.07628461657403562  1.0000
  H   H4        1.0  0.20309036263500957  0.42768930250762344  0.4235689947019736  1.0000
  H   H5        1.0  0.06971326580190863  0.5651605439126685  0.30655118778850016  1.0000
  H   H6        1.0  0.5047208629377663  0.43530129677575513  0.19335474517804843  1.0000
  H   H7        1.0  0.9302901481927677  0.4348457027663031  0.6934420761796644  1.0000
  H   H8        1.0  0.49527018297599323  0.5646959477229246  0.8066455599907769  1.0000
  H   H9        1.0  0.805018658110697  0.3219297524192299  0.23341371229247435  1.0000
  H   H10       1.0  0.48333449037920667  0.6785591861674122  0.2665488126844622  1.0000
  H   H11       1.0  0.19498865380014507  0.6780775408402349  0.7665884312187143  1.0000
  H   H12       1.0  0.5166514589089175  0.32144135110839045  0.7334590855249629  1.0000
  H   H13       1.0  0.279250445997441  0.6187537199085329  0.14323343810862357  1.0000
  H   H14       1.0  0.6604912856163309  0.38150399673574503  0.3567706514423818  1.0000
  H   H15       1.0  0.7207552247648863  0.38125029566600693  0.8567592068558056  1.0000
  H   H16       1.0  0.3395104283324599  0.618501095838532  0.6432270631053143  1.0000
  H   H17       1.0  0.9931053061146996  0.09272012781457312  0.6309597158892258  1.0000
  H   H18       1.0  0.9005487792030278  0.9072949522201411  0.8692251617629124  1.0000
  H   H19       1.0  0.006889670151977618  0.9072782324476948  0.36904089972878046  1.0000
  H   H20       1.0  0.0994602280096188  0.09270898662520471  0.1307770050484436  1.0000
  H   H21       1.0  0.1566644362628722  0.152998746980316  0.7636278603008221  1.0000
  H   H22       1.0  0.0036257691329880633  0.8469502881878983  0.7365500518373906  1.0000
  H   H23       1.0  0.8433322220292749  0.847000728951592  0.2363730653453402  1.0000
  H   H24       1.0  0.996377623237187  0.1530559123690125  0.2634489248600075  1.0000
  H   H25       1.0  0.11176019755504998  0.2855505561565721  0.7167202929294942  1.0000
  H   H26       1.0  0.8262051224124249  0.7144490672509038  0.7834393693867767  1.0000
  H   H27       1.0  0.888236471549355  0.71444894283637  0.28327777635205825  1.0000
  H   H28       1.0  0.17380724885116897  0.2855571029337369  0.2165634174808844  1.0000
  C   C1        1.0  0.9807877453636845  0.27818383163612037  0.9592557614028291  1.0000
  C   C2        1.0  0.7026198944826305  0.7220119069930392  0.5408297358830509  1.0000
  C   C3        1.0  0.019211731161952572  0.72181453650105  0.04074390293570224  1.0000
  C   C4        1.0  0.2973812424439757  0.27798753069171067  0.4591759512128561  1.0000
  C   C5        1.0  0.9332779604774473  0.16451879892810692  0.8282801281309347  1.0000
  C   C6        1.0  0.7687633546842604  0.835555349257021  0.6718703120464581  1.0000
  C   C7        1.0  0.06671645071930504  0.8354784303374744  0.17172208191250612  1.0000
  C   C8        1.0  0.2312349712170274  0.16444521159649383  0.3281347321140089  1.0000
  C   C9        1.0  0.1339464031012625  0.40791949160007596  0.9942854803618744  1.0000
  C   C10       1.0  0.7260074689169046  0.5922318396252848  0.5057766335484786  1.0000
  C   C11       1.0  0.8660496960970931  0.5920811152815662  0.005713850648334156  1.0000
  C   C12       1.0  0.27399315823308257  0.4077643357955267  0.4942176509681104  1.0000
  C   C13       1.0  0.0473437104048314  0.4850049708609773  0.207839423677548  1.0000
  C   C14       1.0  0.5624943085679631  0.5153785881028484  0.29211970230714  1.0000
  C   C15       1.0  0.9526540600067436  0.5149967286292708  0.7921630737254333  1.0000
  C   C16       1.0  0.4375040522341678  0.4846175487889682  0.7078793423961116  1.0000
  C   C17       1.0  0.9001451538522571  0.35200269823865693  0.1673816529561591  1.0000
  C   C18       1.0  0.5483223490335477  0.6484204241497339  0.33258977210612534  1.0000
  C   C19       1.0  0.0998576915604588  0.6479956623524075  0.832618964135456  1.0000
  C   C20       1.0  0.45167542261006594  0.3515790287681143  0.6674140101151664  1.0000
  C   C21       1.0  0.1653781012481375  0.5135273321278788  0.11849784978763014  1.0000
  C   C22       1.0  0.6518571938491603  0.48675084773488203  0.3814999434125283  1.0000
  C   C23       1.0  0.8346247789733707  0.4864733519056871  0.881491961270285  1.0000
  C   C24       1.0  0.3481450768213746  0.5132508596302685  0.6185016027109711  1.0000
  C   C25       1.0  0.05442538779683301  0.1738077730329266  0.7290018329017228  1.0000
  C   C26       1.0  0.880631035299551  0.8261993381690261  0.7711842078542759  1.0000
  C   C27       1.0  0.9455723982631167  0.8261917106329691  0.27099814083341306  1.0000
  C   C28       1.0  0.11937740684317791  0.1738034696796262  0.22881955338252166  1.0000
  I   I1        1.0  0.42081836704259246  0.16490198329168496  0.9558929523710659  1.0000
  I   I2        1.0  0.255929867201786  0.8349728182142259  0.5440621171923539  1.0000
  I   I3        1.0  0.579193466843755  0.8350986165605365  0.04410733370789203  1.0000
  I   I4        1.0  0.7440606569831019  0.16501664012768202  0.45593316351992286  1.0000
  N   N1        1.0  0.7808698614554144  0.05561775402365041  0.8086725633619096  1.0000
  N   N2        1.0  0.7252824075146123  0.9444636432169631  0.6914683808776231  1.0000
  N   N3        1.0  0.21913072358556454  0.9443828299848464  0.1913296248549728  1.0000
  N   N4        1.0  0.2747120157264362  0.055531362537252  0.30853225761952524  1.0000
  N   N5        1.0  0.865876299550486  0.25170329710754663  0.04618798768764524  1.0000
  N   N6        1.0  0.6143236053854865  0.7486054680515154  0.4538536435799472  1.0000
  N   N7        1.0  0.1341287664969926  0.7482995029131844  0.9538167250391395  1.0000
  N   N8        1.0  0.3856707973710556  0.2513939924124316  0.5461491858882609  1.0000
