data_image0
_chemical_formula_structural       Ni2H12C8O12
_chemical_formula_sum              "Ni2 H12 C8 O12"
_cell_length_a       7.474525796616011
_cell_length_b       7.5998583010961
_cell_length_c       8.058998242594848
_cell_angle_alpha    76.4689570797641
_cell_angle_beta     62.35696543848128
_cell_angle_gamma    60.54306718167667

_space_group_name_H-M_alt    "P 1"
_space_group_IT_number       1

loop_
  _space_group_symop_operation_xyz
  'x, y, z'

loop_
  _atom_site_type_symbol
  _atom_site_label
  _atom_site_symmetry_multiplicity
  _atom_site_fract_x
  _atom_site_fract_y
  _atom_site_fract_z
  _atom_site_occupancy
  Ni  Ni1       1.0  0.8864071889418664  0.7544110407983314  0.20267519593789254  1.0000
  Ni  Ni2       1.0  0.156552536699131  0.25436913586361953  0.7026670006752552  1.0000
  H   H1        1.0  0.6220473768310624  0.7579602790714548  0.5366726499404348  1.0000
  H   H2        1.0  0.0833490269591195  0.2577321010502445  0.036717375115323116  1.0000
  H   H3        1.0  0.8530180855023489  0.5468533580514717  0.4916483079847039  1.0000
  H   H4        1.0  0.10836784189942954  0.04673411313535071  0.9916104664572315  1.0000
  H   H5        1.0  0.4512510645856835  0.8973960306759496  0.24066118544173054  1.0000
  H   H6        1.0  0.41076657895472096  0.397316776581377  0.740549919311263  1.0000
  H   H7        1.0  0.5114060639721173  0.8355442538038461  0.9605478794579693  1.0000
  H   H8        1.0  0.6925618636393696  0.3358023323706406  0.46030602630785467  1.0000
  H   H9        1.0  0.619254078818244  0.09381690582409873  0.8074680807143719  1.0000
  H   H10       1.0  0.4793474662931628  0.5938571877839749  0.3073824537233349  1.0000
  H   H11       1.0  0.8381706492827093  0.8728209772610215  0.6786672687585591  1.0000
  H   H12       1.0  0.6102404199546144  0.3729097633942899  0.17858717040587618  1.0000
  C   C1        1.0  0.8304437060159626  0.6015385541570453  0.9533706537076223  1.0000
  C   C2        1.0  0.6148274661918334  0.10166161801524254  0.453256257816271  1.0000
  C   C3        1.0  0.6579117881378518  0.8237655896992852  0.9711952034595512  1.0000
  C   C4        1.0  0.5472103782923624  0.3238906791685282  0.471053012877327  1.0000
  C   C5        1.0  0.7583654793548291  0.9475647504120134  0.8131774922926098  1.0000
  C   C6        1.0  0.4808480725081522  0.4475804207222326  0.3131503912344228  1.0000
  C   C7        1.0  0.9298946750226094  0.990906025200346  0.8262445591257259  1.0000
  C   C8        1.0  0.2528966881549124  0.4908520497477441  0.32637531732167696  1.0000
  O   O1        1.0  0.9383966267942582  0.5303786561126671  0.05763648062756489  1.0000
  O   O2        1.0  0.4738353906389888  0.030412206327973507  0.5575059453059835  1.0000
  O   O3        1.0  0.7216343617263943  0.6351900276824267  0.4580507890629163  1.0000
  O   O4        1.0  0.1850688488868215  0.13502276010969183  0.9580260826172377  1.0000
  O   O5        1.0  0.8580025338495075  0.5042036604122516  0.8291690171181256  1.0000
  O   O6        1.0  0.8088374034935483  0.004315792683222201  0.32898683390439487  1.0000
  O   O7        1.0  0.585896290096869  0.9101758407799212  0.14671972898413785  1.0000
  O   O8        1.0  0.3572505801585562  0.4102341306006778  0.6466353071567281  1.0000
  O   O9        1.0  0.009076890093190574  0.9070492238701607  0.9501655547707414  1.0000
  O   O10       1.0  0.13359157757869872  0.40704260141267673  0.45025869613537844  1.0000
  O   O11       1.0  0.9833795960847806  0.11700454117791992  0.7044852191479406  1.0000
  O   O12       1.0  0.19509963618367715  0.6170271869615364  0.20460372303085697  1.0000
