data_image0
_chemical_formula_structural       Tl8H4C20O16
_chemical_formula_sum              "Tl8 H4 C20 O16"
_cell_length_a       6.263695747011531
_cell_length_b       7.560313775519888
_cell_length_c       15.336640986303022
_cell_angle_alpha    101.55309689453031
_cell_angle_beta     90.00006339737428
_cell_angle_gamma    89.99977854823624

_space_group_name_H-M_alt    "P 1"
_space_group_IT_number       1

loop_
  _space_group_symop_operation_xyz
  'x, y, z'

loop_
  _atom_site_type_symbol
  _atom_site_label
  _atom_site_symmetry_multiplicity
  _atom_site_fract_x
  _atom_site_fract_y
  _atom_site_fract_z
  _atom_site_occupancy
  Tl  Tl1       1.0  0.5324558335934455  0.15846972354351857  0.4070759815540086  1.0000
  Tl  Tl2       1.0  0.03247855738062099  0.3415250380574619  0.09292413045865537  1.0000
  Tl  Tl3       1.0  0.46753116082105345  0.8415306861427467  0.5929213034843741  1.0000
  Tl  Tl4       1.0  0.9675483495871473  0.6584714375823638  0.9070767059412645  1.0000
  Tl  Tl5       1.0  0.598570537778805  0.6003196530430582  0.2863397681701301  1.0000
  Tl  Tl6       1.0  0.0985741779647782  0.8996735838112854  0.21365434944574696  1.0000
  Tl  Tl7       1.0  0.4014276321480921  0.39967796034532904  0.7136539996000548  1.0000
  Tl  Tl8       1.0  0.9014255884720582  0.10032279541297129  0.7863432175961333  1.0000
  H   H1        1.0  0.5454058167999419  0.3151933773443004  0.08240136843345879  1.0000
  H   H2        1.0  0.045391899343876184  0.18481079322297936  0.4175996127476863  1.0000
  H   H3        1.0  0.4546147041270884  0.6848207436093077  0.9176043487528459  1.0000
  H   H4        1.0  0.9545998845944722  0.8151843711437009  0.5824024074366533  1.0000
  C   C1        1.0  0.6179898769923041  0.07674562834895227  0.1877454934916969  1.0000
  C   C2        1.0  0.11798570803575358  0.4232678226269114  0.31225832527761094  1.0000
  C   C3        1.0  0.3820050999089446  0.9232684733529694  0.8122595698218473  1.0000
  C   C4        1.0  0.8820108653826678  0.5767367139444203  0.687741947115029  1.0000
  C   C5        1.0  0.5579773440354429  0.03401972062934531  0.09060122430986439  1.0000
  C   C6        1.0  0.05797804361451849  0.46598446850312303  0.40940171992018287  1.0000
  C   C7        1.0  0.44201284333626495  0.9660009184285842  0.9093972662000027  1.0000
  C   C8        1.0  0.9420201263378445  0.5340080346143452  0.5906013600947658  1.0000
  C   C9        1.0  0.5289493499933684  0.8546997153932095  0.044450181622948996  1.0000
  C   C10       1.0  0.0289277455904013  0.6453033427822135  0.4555500267125935  1.0000
  C   C11       1.0  0.47107436394877306  0.14530900591054055  0.95555503973884  1.0000
  C   C12       1.0  0.9710608453346552  0.3546930171679037  0.5444468864573507  1.0000
  C   C13       1.0  0.5671891953912293  0.6943868425717026  0.08786017934344409  1.0000
  C   C14       1.0  0.06718107922114311  0.805602481219111  0.41213487056580067  1.0000
  C   C15       1.0  0.4328169570731362  0.30559867947805225  0.912134434435522  1.0000
  C   C16       1.0  0.9328138977344195  0.1943859142949051  0.5878658759665498  1.0000
  C   C17       1.0  0.5288807030791887  0.17630241258259363  0.0455101674758467  1.0000
  C   C18       1.0  0.0288598518983179  0.3236869220309089  0.45448814055918507  1.0000
  C   C19       1.0  0.47114301092180005  0.8236722136919991  0.9544801852982443  1.0000
  C   C20       1.0  0.9711287390069144  0.6763217414529308  0.545515119186703  1.0000
  O   O1        1.0  0.5555023776019039  0.965871435145857  0.2354845586233338  1.0000
  O   O2        1.0  0.055498307212289384  0.5341355318812473  0.2645140629970513  1.0000
  O   O3        1.0  0.4444989853280815  0.03413042088715909  0.7645161197285332  1.0000
  O   O4        1.0  0.9444934766999538  0.465871800977986  0.7354897266641486  1.0000
  O   O5        1.0  0.727720331505111  0.21759744841513395  0.216406637894785  1.0000
  O   O6        1.0  0.2277167432941809  0.28240894867274585  0.28359788135449543  1.0000
  O   O7        1.0  0.2722746454348339  0.7824005122269782  0.7835988995585694  1.0000
  O   O8        1.0  0.772271847610156  0.7175996955195031  0.7164047245201032  1.0000
  O   O9        1.0  0.7617996538568973  0.6537249465795795  0.09906211711844998  1.0000
  O   O10       1.0  0.26179450685796  0.8462666039009717  0.4009377800038506  1.0000
  O   O11       1.0  0.23820330557673938  0.34627554024812907  0.9009377834060286  1.0000
  O   O12       1.0  0.7382036630725038  0.1537353293034158  0.5990655138330181  1.0000
  O   O13       1.0  0.4050567051156406  0.6117780713136939  0.10907194213117319  1.0000
  O   O14       1.0  0.9050552036499511  0.8882169268752518  0.39092311223244985  1.0000
  O   O15       1.0  0.5949414648124643  0.38821815358028283  0.8909203939402345  1.0000
  O   O16       1.0  0.0949413697885717  0.11177814102596528  0.6090756385956693  1.0000
