data_image0
_chemical_formula_structural       Tb2CuH26C22N2O22
_chemical_formula_sum              "Tb2 Cu1 H26 C22 N2 O22"
_cell_length_a       6.072249535707595
_cell_length_b       8.949192666363626
_cell_length_c       13.485133510007206
_cell_angle_alpha    85.4754039113408
_cell_angle_beta     85.82066837489002
_cell_angle_gamma    87.85257629096121

_space_group_name_H-M_alt    "P 1"
_space_group_IT_number       1

loop_
  _space_group_symop_operation_xyz
  'x, y, z'

loop_
  _atom_site_type_symbol
  _atom_site_label
  _atom_site_symmetry_multiplicity
  _atom_site_fract_x
  _atom_site_fract_y
  _atom_site_fract_z
  _atom_site_occupancy
  Tb  Tb1       1.0  0.6083953996282219  0.3449082654721281  0.8928102903871885  1.0000
  Tb  Tb2       1.0  0.3916060542678822  0.6550962930236609  0.10718749204179548  1.0000
  Cu  Cu1       1.0  5.053269248392401e-06  0.9999899680825807  0.5000009623617812  1.0000
  H   H1        1.0  0.9464733990350211  0.22283798630948587  0.7491473704397219  1.0000
  H   H2        1.0  0.05352652715017571  0.7771628903503255  0.25085650147953226  1.0000
  H   H3        1.0  0.08816777702349302  0.1977450465615362  0.848958487942674  1.0000
  H   H4        1.0  0.9118352394560317  0.8022626126268834  0.15104360896417288  1.0000
  H   H5        1.0  0.4030309225995127  0.0911831477981124  0.8106673132288474  1.0000
  H   H6        1.0  0.5969656233329276  0.9088201190734679  0.18933437730799335  1.0000
  H   H7        1.0  0.34444847671898066  0.03951224657429011  0.9241965451221997  1.0000
  H   H8        1.0  0.6555463456445381  0.9604933152967092  0.0758043962072392  1.0000
  H   H9        1.0  0.19657584015990892  0.530120449882901  0.8985205252071605  1.0000
  H   H10       1.0  0.8034270845255804  0.4698898241949648  0.10147482326148348  1.0000
  H   H11       1.0  0.15695307271891318  0.41512330690746785  0.8195956769233914  1.0000
  H   H12       1.0  0.843048274622312  0.5848846550445046  0.18040127210554854  1.0000
  H   H13       1.0  0.7199641614520189  0.4118837820843311  0.4713085199301829  1.0000
  H   H14       1.0  0.280029244552729  0.588114071968718  0.528690456689098  1.0000
  H   H15       1.0  0.4735421914296296  0.42097077963994417  0.3292942685907575  1.0000
  H   H16       1.0  0.526439865770577  0.5790203528438982  0.6707067535717002  1.0000
  H   H17       1.0  0.15075196892370002  0.25133306756539747  0.34333517415630854  1.0000
  H   H18       1.0  0.8492469002371407  0.7486486872387844  0.6566707496205736  1.0000
  H   H19       1.0  0.9242231807291573  0.044806020352631  0.17130157877932106  1.0000
  H   H20       1.0  0.0757681944965114  0.9552041315171993  0.8286978641353142  1.0000
  H   H21       1.0  0.8861081994947356  0.22830904618156472  0.20833200183999875  1.0000
  H   H22       1.0  0.11389454925988932  0.7717068726497802  0.7916624530556146  1.0000
  H   H23       1.0  0.281014931491491  0.13075704081376222  0.20600897432380083  1.0000
  H   H24       1.0  0.7189831421518562  0.8692499078937956  0.7939866267227769  1.0000
  H   H25       1.0  0.28551769177992975  0.11781664951261209  0.07636037743780118  1.0000
  H   H26       1.0  0.7144770065924461  0.8821926063862404  0.923634528507527  1.0000
  C   C1        1.0  0.3610249811183622  0.14332853534209283  0.5573146467356407  1.0000
  C   C2        1.0  0.6389819656400347  0.8566588862766479  0.4426886266562703  1.0000
  C   C3        1.0  0.5326337966127994  0.2421610345574337  0.5595640976708365  1.0000
  C   C4        1.0  0.4673697376957477  0.7578298564114904  0.44043770739276045  1.0000
  C   C5        1.0  0.5789382595736826  0.3395080191752271  0.47458145280012315  1.0000
  C   C6        1.0  0.42105536452260844  0.6604829449449737  0.5254206769004027  1.0000
  C   C7        1.0  0.443641967284968  0.34451208655907106  0.3954045887314023  1.0000
  C   C8        1.0  0.556350044779066  0.6554776860838911  0.6045991114429369  1.0000
  C   C9        1.0  0.26567354461685266  0.24933511319863294  0.4017024170656994  1.0000
  C   C10       1.0  0.7343285857873951  0.750647862401152  0.5983011389906421  1.0000
  C   C11       1.0  0.31424458348309514  0.016227888900957103  0.6350788589257373  1.0000
  C   C12       1.0  0.6857573784629662  0.9837606069215926  0.36492603297931214  1.0000
  C   C13       1.0  0.6655500731983396  0.24718385152295508  0.6493852820268412  1.0000
  C   C14       1.0  0.3344566851747145  0.7528094224004678  0.3506133820891434  1.0000
  C   C15       1.0  0.8492436341830256  0.21185178741928473  0.05482722061720578  1.0000
  C   C16       1.0  0.15075272585497154  0.7881572902467298  0.9451706037842907  1.0000
  C   C17       1.0  0.959955443130191  0.1615050097677013  0.14860859864490544  1.0000
  C   C18       1.0  0.04004252644917021  0.8385053008858068  0.851386912142203  1.0000
  C   C19       1.0  0.21042415965370512  0.17997822986418302  0.1375328169091716  1.0000
  C   C20       1.0  0.7895755656916777  0.8200287066514917  0.8624627300312538  1.0000
  C   C21       1.0  0.27701770614190485  0.3410178228272116  0.12270048453424916  1.0000
  C   C22       1.0  0.722980337795235  0.6589901635085198  0.8772965727070027  1.0000
  N   N1        1.0  0.23175905780347958  0.1487535193847549  0.4796822563184761  1.0000
  N   N2        1.0  0.7682447292846034  0.8512293610026732  0.5203227319128627  1.0000
  O   O1        1.0  0.16177414656713296  0.9280801597040457  0.6168774739648768  1.0000
  O   O2        1.0  0.8382361976957496  0.0719040416259489  0.3831228089118709  1.0000
  O   O3        1.0  0.9598047490632525  0.2517446281727587  0.8200126130838111  1.0000
  O   O4        1.0  0.040199986003408086  0.7482608190367229  0.17998874674927373  1.0000
  O   O5        1.0  0.4272659014382114  0.9979541807756999  0.7095981982432773  1.0000
  O   O6        1.0  0.5727327323793574  0.0020352940383076955  0.2904097443499225  1.0000
  O   O7        1.0  0.3682261153115504  0.1318727037097958  0.8775482345955721  1.0000
  O   O8        1.0  0.6317720104560465  0.8681328337774374  0.12245259852155495  1.0000
  O   O9        1.0  0.27394516971397564  0.47019647736200904  0.8464650141592142  1.0000
  O   O10       1.0  0.7260562470032352  0.5298092432926608  0.15353199504269804  1.0000
  O   O11       1.0  0.86334931937931  0.19806072789555168  0.6425792650293403  1.0000
  O   O12       1.0  0.13665414306235144  0.8019324458809081  0.3574217367207027  1.0000
  O   O13       1.0  0.5686752922480452  0.30913310202206645  0.7233246126983343  1.0000
  O   O14       1.0  0.43132485682595245  0.6908602621791077  0.27667352470169243  1.0000
  O   O15       1.0  0.7234158561756274  0.12657754957641024  0.014082490856161192  1.0000
  O   O16       1.0  0.2765771335731984  0.873433752260425  0.9859161247252499  1.0000
  O   O17       1.0  0.8790205069758342  0.3457692276495337  0.015920783524578014  1.0000
  O   O18       1.0  0.1209807734802979  0.6542409340894934  0.9840768484719644  1.0000
  O   O19       1.0  0.4054983735629278  0.3847242993658143  0.047006320045873885  1.0000
  O   O20       1.0  0.5945028400081115  0.6152880621602748  0.9529919949182709  1.0000
  O   O21       1.0  0.21164619543327493  0.4342642830379403  0.18581844722760366  1.0000
  O   O22       1.0  0.7883551543988433  0.5657436374037843  0.8141792449419182  1.0000
