data_image0
_chemical_formula_structural       Cu2H18C24I2N2O2
_chemical_formula_sum              "Cu2 H18 C24 I2 N2 O2"
_cell_length_a       3.9902952246536088
_cell_length_b       8.161114751201174
_cell_length_c       18.01409687830115
_cell_angle_alpha    92.19335658999488
_cell_angle_beta     89.96447857437373
_cell_angle_gamma    104.4678353030963

_space_group_name_H-M_alt    "P 1"
_space_group_IT_number       1

loop_
  _space_group_symop_operation_xyz
  'x, y, z'

loop_
  _atom_site_type_symbol
  _atom_site_label
  _atom_site_symmetry_multiplicity
  _atom_site_fract_x
  _atom_site_fract_y
  _atom_site_fract_z
  _atom_site_occupancy
  Cu  Cu1       1.0  0.964093636466785  0.4770586727886581  0.5454780309121077  1.0000
  Cu  Cu2       1.0  0.4881020342240703  0.5227641241689727  0.4551302648464669  1.0000
  H   H1        1.0  0.8744997957181795  0.4849021979498788  0.7054406366368298  1.0000
  H   H2        1.0  0.3757792793113028  0.5159774353531648  0.2958700931290323  1.0000
  H   H3        1.0  0.11489331899107923  0.13538695059819622  0.555785560408701  1.0000
  H   H4        1.0  0.9860477171869632  0.8653432753943805  0.4436306955291157  1.0000
  H   H5        1.0  0.7976553393249828  0.48246044348601913  0.9580416081421886  1.0000
  H   H6        1.0  0.31018214506709524  0.5126737091172514  0.04128104979575649  1.0000
  H   H7        1.0  0.25684286188804617  0.9630689621568393  0.6576867801321027  1.0000
  H   H8        1.0  0.2971935952296859  0.036759889848376304  0.3407401478678551  1.0000
  H   H9        1.0  0.2048018234441642  0.06333306774843091  0.7909288722359447  1.0000
  H   H10       1.0  0.13319475916740944  0.9357433745008095  0.20791097817757276  1.0000
  H   H11       1.0  0.43170670541375966  0.6028415375783  0.7639799455351691  1.0000
  H   H12       1.0  0.8203973265105873  0.4010988668780159  0.23706665353238773  1.0000
  H   H13       1.0  0.6221015674503648  0.9008511774714167  0.8101161131333184  1.0000
  H   H14       1.0  0.7286668082554753  0.10367356759935831  0.19090331188073856  1.0000
  H   H15       1.0  0.40170514843708827  0.9936492285471276  0.9279729668417358  1.0000
  H   H16       1.0  0.42926259169697534  0.0077719443268478  0.0717165937439432  1.0000
  H   H17       1.0  0.9778908704413142  0.7838142912678453  0.003043807121294203  1.0000
  H   H18       1.0  0.20559804480313196  0.21223238428457586  0.9961732739301751  1.0000
  C   C1        1.0  0.9636447303452654  0.36939230523697836  0.6979043955298392  1.0000
  C   C2        1.0  0.5841799913562086  0.6311927252239685  0.3027287918621439  1.0000
  C   C3        1.0  0.9959140569051071  0.3396954228655106  0.8369138261241742  1.0000
  C   C4        1.0  0.6385010038665372  0.6592072866666144  0.16351913753009478  1.0000
  C   C5        1.0  0.09930448569969742  0.5224723789222169  0.8584626241708049  1.0000
  C   C6        1.0  0.5691604492488763  0.4769257206723837  0.14172858182217138  1.0000
  C   C7        1.0  0.0927172183905611  0.17254697706589184  0.6140664522546045  1.0000
  C   C8        1.0  0.9211625966306798  0.828070459889837  0.3855457374082646  1.0000
  C   C9        1.0  0.04068773297082376  0.28300014403442475  0.7584557037034186  1.0000
  C   C10       1.0  0.7454839247586377  0.7170289853652323  0.24166178155613235  1.0000
  C   C11       1.0  0.976444298666955  0.5759834418547882  0.92601492168707  1.0000
  C   C12       1.0  0.39861214254789706  0.4212687404942059  0.07365009142257148  1.0000
  C   C13       1.0  0.1719473405819798  0.07759650064443241  0.671248790130434  1.0000
  C   C14       1.0  0.09353487081912008  0.9225804795754444  0.32780602997064523  1.0000
  C   C15       1.0  0.14393046985725996  0.13269731688806985  0.7444026099701445  1.0000
  C   C16       1.0  0.004089576253491801  0.8670454259118687  0.2548802415328666  1.0000
  C   C17       1.0  0.32827750076255313  0.6415845079086396  0.8159374618396311  1.0000
  C   C18       1.0  0.6832161233396619  0.36044855823143973  0.18463424790209607  1.0000
  C   C19       1.0  0.4350552708043055  0.8097675754289856  0.8416095688423082  1.0000
  C   C20       1.0  0.6311455994080077  0.19280462685495794  0.1589215722378441  1.0000
  C   C21       1.0  0.3118690696320599  0.8616015679714978  0.9088578271489565  1.0000
  C   C22       1.0  0.46252788286253826  0.13902497635537975  0.0910418501083612  1.0000
  C   C23       1.0  0.07945601368354722  0.7445234611231797  0.9509202886002296  1.0000
  C   C24       1.0  0.3430983136446315  0.25335404187627836  0.04861308011054889  1.0000
  I   I1        1.0  0.8964527606379987  0.3064253222574109  0.4191738878102597  1.0000
  I   I2        1.0  0.5957792419435606  0.6940198511143761  0.5811924928569638  1.0000
  N   N1        1.0  0.9876039210037462  0.31558680467020395  0.6269577457275232  1.0000
  N   N2        1.0  0.6689063976088933  0.6850450543522159  0.3734347674465396  1.0000
  O   O1        1.0  0.8747675936538852  0.2308638085135969  0.8825353802900933  1.0000
  O   O2        1.0  0.6156538566106278  0.7668373253824968  0.11827980013266168  1.0000
