data_image0
_chemical_formula_structural       Cu4H24C36N16O16
_chemical_formula_sum              "Cu4 H24 C36 N16 O16"
_cell_length_a       9.33332185791082
_cell_length_b       9.066892218829198
_cell_length_c       13.659103673687866
_cell_angle_alpha    90.00013014457855
_cell_angle_beta     89.99930746196692
_cell_angle_gamma    90.35292328027872

_space_group_name_H-M_alt    "P 1"
_space_group_IT_number       1

loop_
  _space_group_symop_operation_xyz
  'x, y, z'

loop_
  _atom_site_type_symbol
  _atom_site_label
  _atom_site_symmetry_multiplicity
  _atom_site_fract_x
  _atom_site_fract_y
  _atom_site_fract_z
  _atom_site_occupancy
  Cu  Cu1       1.0  0.5719279155774758  0.6318190856068354  0.5827156315988874  1.0000
  Cu  Cu2       1.0  0.92807933781976  0.3681811563424374  0.0827092925675359  1.0000
  Cu  Cu3       1.0  0.42806764130937586  0.3681856305809745  0.4172851077942639  1.0000
  Cu  Cu4       1.0  0.07192671032267839  0.6318176743935664  0.9172951073356119  1.0000
  H   H1        1.0  0.9762463236596801  0.25133089034019207  0.6007550608998145  1.0000
  H   H2        1.0  0.5237429093190898  0.7486586561145641  0.1007571506662828  1.0000
  H   H3        1.0  0.02374837489325189  0.7486517798732847  0.399240553602752  1.0000
  H   H4        1.0  0.4762629266794606  0.25136225805380974  0.8992435887805641  1.0000
  H   H5        1.0  0.81747627793321  0.4272925517328119  0.5097114942190828  1.0000
  H   H6        1.0  0.6825153280034401  0.5726994632410792  0.0097104382586437  1.0000
  H   H7        1.0  0.1825142241362272  0.5726924726723723  0.4902811918545709  1.0000
  H   H8        1.0  0.3175027136592803  0.42733206260395207  0.9902924975481471  1.0000
  H   H9        1.0  0.36063907352840374  0.8541717207014654  0.6824953241876985  1.0000
  H   H10       1.0  0.13935507811162748  0.1458408434784531  0.18249112015409713  1.0000
  H   H11       1.0  0.6393522866126488  0.14583534952424768  0.31752298592543576  1.0000
  H   H12       1.0  0.8606557650972205  0.8541434704326106  0.8175074227689479  1.0000
  H   H13       1.0  0.23518631448464333  0.05973433363592309  0.5811440254095928  1.0000
  H   H14       1.0  0.26480499209699104  0.9402777337393144  0.0811446382999605  1.0000
  H   H15       1.0  0.7647921557567302  0.9402720830549568  0.4188662314930697  1.0000
  H   H16       1.0  0.7352010133315686  0.05971999481689489  0.9188436551238865  1.0000
  H   H17       1.0  0.27416845754788  0.027307811258260994  0.4006399892052386  1.0000
  H   H18       1.0  0.2258410509380226  0.972688606272868  0.9006400905851636  1.0000
  H   H19       1.0  0.7258128382312493  0.9726885725779794  0.5993666070806682  1.0000
  H   H20       1.0  0.7741762183618733  0.0273230782760052  0.09934747076693642  1.0000
  H   H21       1.0  0.4612221250782157  0.7915051315737498  0.38372262612987385  1.0000
  H   H22       1.0  0.0388009209688889  0.20849770492126396  0.883722144179643  1.0000
  H   H23       1.0  0.5387825950290833  0.2084871227944801  0.6162759168452254  1.0000
  H   H24       1.0  0.9612131363729547  0.7915140916940968  0.11628005942960583  1.0000
  C   C1        1.0  0.7121890754648846  0.4906792214795459  0.7368843400263714  1.0000
  C   C2        1.0  0.7878035693739632  0.5093201832016873  0.23688365709956835  1.0000
  C   C3        1.0  0.28781072077860154  0.5093242427897309  0.2631229883631718  1.0000
  C   C4        1.0  0.21219626998622937  0.49068438348358245  0.7631082969334673  1.0000
  C   C5        1.0  0.7976225607664417  0.3884092506299907  0.7857353225619408  1.0000
  C   C6        1.0  0.7024022797185765  0.6115948756614812  0.2857323502705498  1.0000
  C   C7        1.0  0.20238271722558918  0.6115973336026027  0.214269077380024  1.0000
  C   C8        1.0  0.29760235462372014  0.3883951741494086  0.7142603357945277  1.0000
  C   C9        1.0  0.8976293659423076  0.3171596599110912  0.640040711327579  1.0000
  C   C10       1.0  0.6023576621929649  0.6828260274625179  0.1400498627367242  1.0000
  C   C11       1.0  0.1023634059644607  0.6828285965513599  0.3599600279933527  1.0000
  C   C12       1.0  0.3976453029855519  0.3171762223792171  0.8599508766275649  1.0000
  C   C13       1.0  0.8112914979560982  0.4167966625174058  0.589030718650257  1.0000
  C   C14       1.0  0.6887078421047121  0.5831971325687986  0.089029734461576  1.0000
  C   C15       1.0  0.1887025591688811  0.5831970680726072  0.41096782435648294  1.0000
  C   C16       1.0  0.3113127246934013  0.41681664433909293  0.9109666122424475  1.0000
  C   C17       1.0  0.6104700214989833  0.5972447587333959  0.7842944903358458  1.0000
  C   C18       1.0  0.8895345145604167  0.4027600995793462  0.2842981769140707  1.0000
  C   C19       1.0  0.38953208763296493  0.4027630399706935  0.2157106417316896  1.0000
  C   C20       1.0  0.11044069874977679  0.5972177321780093  0.715698901835225  1.0000
  C   C21       1.0  0.7946737898824024  0.35913264037153425  0.894964172263343  1.0000
  C   C22       1.0  0.7053131808816316  0.6408500996986531  0.3949578055683176  1.0000
  C   C23       1.0  0.20532142362591796  0.6408632574001769  0.1050380313133843  1.0000
  C   C24       1.0  0.29466635770008764  0.35912868478538923  0.6050400052880178  1.0000
  C   C25       1.0  0.36102863180740025  0.867042291157169  0.6036973885361334  1.0000
  C   C26       1.0  0.1389770000161548  0.13296670969671  0.1036974559374286  1.0000
  C   C27       1.0  0.638982642822981  0.13298064055852873  0.3963157968196427  1.0000
  C   C28       1.0  0.8610368427445464  0.867039575426432  0.8963032834210624  1.0000
  C   C29       1.0  0.31884435275190265  0.9543758847653621  0.4552928504111335  1.0000
  C   C30       1.0  0.1811778060418092  0.04565012844728498  0.9552813702886739  1.0000
  C   C31       1.0  0.6811606246223078  0.045622983258390114  0.5447254596314083  1.0000
  C   C32       1.0  0.8188318403384542  0.954358510927989  0.044708387403829916  1.0000
  C   C33       1.0  0.41200897084051036  0.8384472443102664  0.44840876034504623  1.0000
  C   C34       1.0  0.08799083625687129  0.16155096014189496  0.9484090671382432  1.0000
  C   C35       1.0  0.5879773369203747  0.1615677290574027  0.5515993002430406  1.0000
  C   C36       1.0  0.9120264758224723  0.8384618266252204  0.05158947590593502  1.0000
  N   N1        1.0  0.7192978535955702  0.5006981601647453  0.6383332489577428  1.0000
  N   N2        1.0  0.7806960711237848  0.49929835156990515  0.1383310388266494  1.0000
  N   N3        1.0  0.2807006575140178  0.49929983002640904  0.3616696867338406  1.0000
  N   N4        1.0  0.21931430239322217  0.5007014319532103  0.8616660399464707  1.0000
  N   N5        1.0  0.8903825766602084  0.3016409041539489  0.7371180340527064  1.0000
  N   N6        1.0  0.6096062495795207  0.6983431770066132  0.23711485442132135  1.0000
  N   N7        1.0  0.1096075843274207  0.6983628966773168  0.2628849016858936  1.0000
  N   N8        1.0  0.39039290308917163  0.3016437528849067  0.7628749031916514  1.0000
  N   N9        1.0  0.4375918411119528  0.7850518502869474  0.5417425353911582  1.0000
  N   N10       1.0  0.06241417688404741  0.21495481072882675  0.04174520355904581  1.0000
  N   N11       1.0  0.5623861999858875  0.21494354343048627  0.45826332878505843  1.0000
  N   N12       1.0  0.9375854906557208  0.7850453466714881  0.9582577321402257  1.0000
  N   N13       1.0  0.2875354813294067  0.9696391996226763  0.5532935695044401  1.0000
  N   N14       1.0  0.21244501669325191  0.030352715925459992  0.0532886570046287  1.0000
  N   N15       1.0  0.7124390475110758  0.030348590139162523  0.4467159552058463  1.0000
  N   N16       1.0  0.7875565775488838  0.9696418552588423  0.9467047612015236  1.0000
  O   O1        1.0  0.5382306019530604  0.6774118040229807  0.7229549974179934  1.0000
  O   O2        1.0  0.9617937470504148  0.322594441488718  0.22294440674130564  1.0000
  O   O3        1.0  0.4617840968261007  0.3225889322213291  0.277043545574621  1.0000
  O   O4        1.0  0.03820360777888959  0.6774013815811629  0.7770468151432228  1.0000
  O   O5        1.0  0.6007725256253167  0.6049064516346262  0.8747287410010645  1.0000
  O   O6        1.0  0.8992650280775935  0.3951234106891801  0.3747198637782816  1.0000
  O   O7        1.0  0.3992532223878342  0.3951027290771804  0.1252719983438126  1.0000
  O   O8        1.0  0.1007375509991348  0.604868918551162  0.6252669654027443  1.0000
  O   O9        1.0  0.8904837854111136  0.42980231947012737  0.944289633952998  1.0000
  O   O10       1.0  0.6095184538268088  0.5701912447585044  0.4442954796515863  1.0000
  O   O11       1.0  0.10952783043223491  0.5702018358963912  0.0557030521633806  1.0000
  O   O12       1.0  0.39047226267388174  0.42979929105099757  0.5557103844721994  1.0000
  O   O13       1.0  0.7125451916145097  0.2614778217495369  0.9272244305935262  1.0000
  O   O14       1.0  0.7874333331173061  0.7385289840102087  0.4272134937404318  1.0000
  O   O15       1.0  0.2874479666188776  0.7385203554461269  0.0727726482116111  1.0000
  O   O16       1.0  0.2125482632140674  0.2614751159964257  0.5727843172321202  1.0000
