data_image0
_chemical_formula_structural       Al2H12C20N2O10F2
_chemical_formula_sum              "Al2 H12 C20 N2 O10 F2"
_cell_length_a       6.681861912682819
_cell_length_b       11.141416717109754
_cell_length_c       11.073208269348761
_cell_angle_alpha    82.28151816145154
_cell_angle_beta     73.65744133881827
_cell_angle_gamma    72.50247939213743

_space_group_name_H-M_alt    "P 1"
_space_group_IT_number       1

loop_
  _space_group_symop_operation_xyz
  'x, y, z'

loop_
  _atom_site_type_symbol
  _atom_site_label
  _atom_site_symmetry_multiplicity
  _atom_site_fract_x
  _atom_site_fract_y
  _atom_site_fract_z
  _atom_site_occupancy
  Al  Al1       1.0  0.49444576085841874  0.49759770742269166  0.506056584599115  1.0000
  Al  Al2       1.0  0.992910043593838  0.49958407837192437  0.5066351278143841  1.0000
  H   H1        1.0  0.27954630778150863  0.3511902930536621  0.5848875575259456  1.0000
  H   H2        1.0  0.6991142556775644  0.6491394145036224  0.4423102942782933  1.0000
  H   H3        1.0  0.7565324612646691  0.43100339544233884  0.1368870149466161  1.0000
  H   H4        1.0  0.23192942953882312  0.5665433723425225  0.8743045133918484  1.0000
  H   H5        1.0  0.2628560789150995  0.23938037437355314  0.333887477665087  1.0000
  H   H6        1.0  0.47824616021567573  0.7710607472000106  0.3250825713827368  1.0000
  H   H7        1.0  0.7456721866061643  0.8788647342471946  0.5872385839532795  1.0000
  H   H8        1.0  0.6318946210965705  0.11411543997147786  0.5841320953357753  1.0000
  H   H9        1.0  0.0005098606441720679  0.45028077259287597  0.803191978857285  1.0000
  H   H10       1.0  0.0396174197580237  0.41570189715501016  0.9539943805886253  1.0000
  H   H11       1.0  0.9909793688450536  0.5584450911612534  0.21259914047733017  1.0000
  H   H12       1.0  0.9449728095267103  0.6156841500863804  0.06686449630106495  1.0000
  C   C1        1.0  0.8660442244139473  0.271752322738358  0.49247279923640974  1.0000
  C   C2        1.0  0.6301559029330192  0.5061677307922281  0.7344169194396883  1.0000
  C   C3        1.0  0.13043764167623098  0.7270419133081275  0.49629150548168616  1.0000
  C   C4        1.0  0.35837035479853085  0.4912300113254843  0.2770720261597078  1.0000
  C   C5        1.0  0.5671729140963891  0.5035765714025898  0.8735243888828563  1.0000
  C   C6        1.0  0.4207213753958499  0.4919189291995849  0.13805537359558434  1.0000
  C   C7        1.0  0.723545353750616  0.4634918886213483  0.9464445110832926  1.0000
  C   C8        1.0  0.26415066629056855  0.5299871118597393  0.06513772922177452  1.0000
  C   C9        1.0  0.6423907938672003  0.4597194310138589  0.0779188335890666  1.0000
  C   C10       1.0  0.3451326608577717  0.5361986240957249  0.93391508795915  1.0000
  C   C11       1.0  0.9420068373221326  0.1329860654659569  0.4767673959001186  1.0000
  C   C12       1.0  0.15706110669823656  0.070366419179436  0.40800831342738064  1.0000
  C   C13       1.0  0.7958753556701905  0.0640820813818124  0.5351795631991081  1.0000
  C   C14       1.0  0.3062527437172875  0.1371690651361774  0.33613153597017487  1.0000
  C   C15       1.0  0.5070185052846553  0.0733418540170021  0.2677435552368479  1.0000
  C   C16       1.0  0.06973810086494596  0.8671795705537872  0.4782470184547449  1.0000
  C   C17       1.0  0.859263213361501  0.9322163624081983  0.5365627832413439  1.0000
  C   C18       1.0  0.22109888907221614  0.934510798675568  0.40757638955471986  1.0000
  C   C19       1.0  0.4287263819832673  0.8725978084081518  0.33254496688626733  1.0000
  C   C20       1.0  0.5676068554106524  0.9407603557637497  0.2652220141122328  1.0000
  N   N1        1.0  0.9439352315515278  0.4241919889840275  0.8949884630540267  1.0000
  N   N2        1.0  0.04295593476325621  0.5559976174073212  0.11714276243957758  1.0000
  O   O1        1.0  0.6642408178528925  0.32505104567210447  0.5060605135397792  1.0000
  O   O2        1.0  0.8290898670963358  0.5002241936059092  0.6781046150663386  1.0000
  O   O3        1.0  0.9810652692067948  0.6734409035054438  0.5101769646364502  1.0000
  O   O4        1.0  0.5040099962544602  0.48627399269383886  0.33292340298081063  1.0000
  O   O5        1.0  0.32519862540777195  0.6702069295675345  0.4993692416347812  1.0000
  O   O6        1.0  0.15899646177965113  0.49858068651063536  0.3341229068927376  1.0000
  O   O7        1.0  0.005590743014202808  0.32727261762371995  0.49537228885785106  1.0000
  O   O8        1.0  0.4847758820949151  0.5116366564348098  0.6779979999950143  1.0000
  O   O9        1.0  0.24503864769064174  0.4411908247588911  0.5638747775833721  1.0000
  O   O10       1.0  0.74141484682017  0.5575700395576106  0.4483816460065952  1.0000
  F   F1        1.0  0.6498675590250614  0.13637216621244616  0.19920677080000354  1.0000
  F   F2        1.0  0.7653302166465041  0.881805974357064  0.19296943362989788  1.0000
