data_image0
_chemical_formula_structural       Na4Cu4P4H32C8S4O32
_chemical_formula_sum              "Na4 Cu4 P4 H32 C8 S4 O32"
_cell_length_a       7.514436766901637
_cell_length_b       7.669220761000907
_cell_length_c       14.608429930859204
_cell_angle_alpha    89.99999664453303
_cell_angle_beta     92.90276589565966
_cell_angle_gamma    89.99994484831298

_space_group_name_H-M_alt    "P 1"
_space_group_IT_number       1

loop_
  _space_group_symop_operation_xyz
  'x, y, z'

loop_
  _atom_site_type_symbol
  _atom_site_label
  _atom_site_symmetry_multiplicity
  _atom_site_fract_x
  _atom_site_fract_y
  _atom_site_fract_z
  _atom_site_occupancy
  Na  Na1       1.0  0.07041140722238029  0.6851373162731632  0.9615485667499328  1.0000
  Na  Na2       1.0  0.42958954904854346  0.1851359454429016  0.0384525810092313  1.0000
  Na  Na3       1.0  0.929587404689613  0.3148620585007934  0.03845328220480581  1.0000
  Na  Na4       1.0  0.5704132356688729  0.8148621254159067  0.9615466238414072  1.0000
  Cu  Cu1       1.0  0.9325479097969875  0.1927388009287441  0.5273949526604298  1.0000
  Cu  Cu2       1.0  0.567450186796222  0.6927376219225183  0.47260489714926734  1.0000
  Cu  Cu3       1.0  0.0674495389003482  0.8072631816729229  0.472603441297629  1.0000
  Cu  Cu4       1.0  0.4325486066680852  0.3072617528515664  0.5273948977380059  1.0000
  P   P1        1.0  0.8622087292283422  0.5538837340534997  0.6069354526955095  1.0000
  P   P2        1.0  0.6377908314530669  0.053881293288618806  0.3930637517815755  1.0000
  P   P3        1.0  0.1377900580854501  0.44611824854749926  0.3930636575025375  1.0000
  P   P4        1.0  0.36220796201124017  0.9461180814854655  0.6069360431056977  1.0000
  H   H1        1.0  0.7110753597816598  0.07082560058319844  0.630518852560769  1.0000
  H   H2        1.0  0.7889215191553376  0.5708242252421274  0.36948028786225257  1.0000
  H   H3        1.0  0.288922088915669  0.9291763820184684  0.36947954139729694  1.0000
  H   H4        1.0  0.21107460322593136  0.42917384561982175  0.630518759234249  1.0000
  H   H5        1.0  0.8747171646720489  0.9402593569118523  0.6221492004136735  1.0000
  H   H6        1.0  0.6252806801869752  0.44025692961210433  0.3778499507926441  1.0000
  H   H7        1.0  0.12528162264108997  0.05974392960258261  0.377849909784338  1.0000
  H   H8        1.0  0.37471544219430086  0.5597411412498446  0.6221490963038577  1.0000
  H   H9        1.0  0.6970794655972625  0.6851657216355778  0.7222256901255408  1.0000
  H   H10       1.0  0.8029213095935644  0.18516444273259944  0.2777749079006853  1.0000
  H   H11       1.0  0.3029233375658933  0.3148362609634178  0.2777755687924426  1.0000
  H   H12       1.0  0.1970774777208746  0.8148362359549635  0.7222242022973973  1.0000
  H   H13       1.0  0.919040850360183  0.6313635388784816  0.7631146337244274  1.0000
  H   H14       1.0  0.5809599720641856  0.1313598652049279  0.236885282637175  1.0000
  H   H15       1.0  0.0809606080372944  0.3686384437212241  0.2368852242644266  1.0000
  H   H16       1.0  0.41903881525219316  0.8686369017423203  0.7631138275610141  1.0000
  H   H17       1.0  0.6200597411173235  0.3591534966654635  0.7255251078040317  1.0000
  H   H18       1.0  0.8799421877645982  0.859150742665733  0.2744748273032585  1.0000
  H   H19       1.0  0.37994304359749975  0.6408497898470954  0.2744740970464505  1.0000
  H   H20       1.0  0.12005794431551917  0.14084993602112664  0.7255256838239604  1.0000
  H   H21       1.0  0.8390032915756647  0.3172677797663113  0.7745242579281211  1.0000
  H   H22       1.0  0.660998672715202  0.8172652369047029  0.2254749948445962  1.0000
  H   H23       1.0  0.16099815452334812  0.6827342028334799  0.2254742306824227  1.0000
  H   H24       1.0  0.33900278568356856  0.18273413786813114  0.7745248631443289  1.0000
  H   H25       1.0  0.1404027791345115  0.4094221853630274  0.8554491235940773  1.0000
  H   H26       1.0  0.3595992870721289  0.909420769051188  0.1445520431078364  1.0000
  H   H27       1.0  0.8595986915627094  0.5905771894097215  0.1445521037731581  1.0000
  H   H28       1.0  0.6404048301125086  0.0905773018069951  0.855447193293621  1.0000
  H   H29       1.0  0.29240733948226694  0.5407809625806692  0.8352515740694884  1.0000
  H   H30       1.0  0.20759509863286496  0.0407797859599484  0.16475029804458075  1.0000
  H   H31       1.0  0.7075928048963077  0.459219716106098  0.16475030643603358  1.0000
  H   H32       1.0  0.7924103571675828  0.9592195888110026  0.8352496545968221  1.0000
  C   C1        1.0  0.8006530163531734  0.5838203049574205  0.7237314344269806  1.0000
  C   C2        1.0  0.6993478532421733  0.08381781957471192  0.2762684846072148  1.0000
  C   C3        1.0  0.1993484481928789  0.4161829815556786  0.2762691082509932  1.0000
  C   C4        1.0  0.3006509402214945  0.9161828591128084  0.723731310280023  1.0000
  C   C5        1.0  0.7336860967635063  0.41577979379098906  0.7654739449433238  1.0000
  C   C6        1.0  0.7663144496167362  0.915777151006914  0.2345266401190713  1.0000
  C   C7        1.0  0.26631402916738267  0.584220884895906  0.23452588149474  1.0000
  C   C8        1.0  0.23368702108048464  0.0842222237658348  0.7654745872481642  1.0000
  S   S1        1.0  0.6522073419191302  0.45638499413419  0.8761630162363119  1.0000
  S   S2        1.0  0.8477931580228529  0.9563848951609871  0.1238368818542455  1.0000
  S   S3        1.0  0.3477927840124053  0.5436143806392693  0.1238368102017873  1.0000
  S   S4        1.0  0.15220963284313874  0.043614479611214604  0.8761630076854986  1.0000
  O   O1        1.0  0.8451744075272244  0.0638991491150449  0.6363131806658089  1.0000
  O   O2        1.0  0.6548238168984709  0.5638979003571193  0.3636866763865569  1.0000
  O   O3        1.0  0.1548243859357896  0.9361028334859114  0.3636866142213862  1.0000
  O   O4        1.0  0.3451749765658363  0.4361014744169723  0.6363131185007163  1.0000
  O   O5        1.0  0.9952457289169558  0.3986319145250122  0.6033435024736563  1.0000
  O   O6        1.0  0.5047535020097697  0.8986294990589772  0.3966570520018636  1.0000
  O   O7        1.0  0.004753064545411701  0.6013713719893871  0.39665629241350325  1.0000
  O   O8        1.0  0.4952466177731835  0.10136857180108899  0.6033420897471231  1.0000
  O   O9        1.0  0.9503733632501221  0.7292952569534349  0.5824004729478889  1.0000
  O   O10       1.0  0.5496260233922927  0.22929028838481  0.4175987216685826  1.0000
  O   O11       1.0  0.0496267565296051  0.2707093334738105  0.41759866880090607  1.0000
  O   O12       1.0  0.45037276392407927  0.7707064785624453  0.5824003885296136  1.0000
  O   O13       1.0  0.6924718985499679  0.5095468485561482  0.5467892450281298  1.0000
  O   O14       1.0  0.8075277184183208  0.009548153343629899  0.4532113313195367  1.0000
  O   O15       1.0  0.30752690106292135  0.4904538301313296  0.45321123454826306  1.0000
  O   O16       1.0  0.19247241366115017  0.9904538292566585  0.5467891798076394  1.0000
  O   O17       1.0  0.7996476804441384  0.5250855126653279  0.9363405480849849  1.0000
  O   O18       1.0  0.7003532535747609  0.025085658172919502  0.0636600589400445  1.0000
  O   O19       1.0  0.20035111917004397  0.4749125581952783  0.063659931491479  1.0000
  O   O20       1.0  0.29964953729058413  0.974915020512718  0.9363398305996711  1.0000
  O   O21       1.0  0.5102314636135218  0.5877595559596073  0.862852082224002  1.0000
  O   O22       1.0  0.9897707345400732  0.087758117470436  0.137147868139543  1.0000
  O   O23       1.0  0.48976998863601306  0.41223981881326927  0.13714709107576786  1.0000
  O   O24       1.0  0.010230736157794199  0.9122399533888698  0.8628533592277279  1.0000
  O   O25       1.0  0.5848515563010254  0.2883796892729221  0.9097618879813396  1.0000
  O   O26       1.0  0.9151504427994935  0.7883808347540366  0.0902380511043575  1.0000
  O   O27       1.0  0.4151485634825818  0.7116170776737006  0.0902372537676754  1.0000
  O   O28       1.0  0.08485368668295479  0.211618540017497  0.9097625546753748  1.0000
  O   O29       1.0  0.16152339714560773  0.5288189222475809  0.8338186177723657  1.0000
  O   O30       1.0  0.33847772037153584  0.0288163186419439  0.1661832234633565  1.0000
  O   O31       1.0  0.8384754209143208  0.4711830603532121  0.1661839158714571  1.0000
  O   O32       1.0  0.6615263906638802  0.9711817522162746  0.8338153282489458  1.0000
