data_image0
_chemical_formula_structural       Zn2H42C58N10O8
_chemical_formula_sum              "Zn2 H42 C58 N10 O8"
_cell_length_a       7.62504422507581
_cell_length_b       9.913277971424987
_cell_length_c       16.22233529419944
_cell_angle_alpha    85.13878745653159
_cell_angle_beta     80.179598651405
_cell_angle_gamma    81.27042092642279

_space_group_name_H-M_alt    "P 1"
_space_group_IT_number       1

loop_
  _space_group_symop_operation_xyz
  'x, y, z'

loop_
  _atom_site_type_symbol
  _atom_site_label
  _atom_site_symmetry_multiplicity
  _atom_site_fract_x
  _atom_site_fract_y
  _atom_site_fract_z
  _atom_site_occupancy
  Zn  Zn1       1.0  0.639447319375492  0.44360699098566386  0.24574900923884263  1.0000
  Zn  Zn2       1.0  0.36055357568658764  0.5563929387167262  0.7542504379562018  1.0000
  H   H1        1.0  0.9586173501961283  0.6439631824516069  0.4666407767776449  1.0000
  H   H2        1.0  0.041378042401795816  0.3560377711263242  0.5333584252661794  1.0000
  H   H3        1.0  0.2508466503316599  0.639906412084265  0.5171045868043366  1.0000
  H   H4        1.0  0.7491495313955883  0.3600975920833277  0.4828937566496236  1.0000
  H   H5        1.0  0.539169224914204  0.5626942471692189  0.41837443937774316  1.0000
  H   H6        1.0  0.46082766807169423  0.4373057061956655  0.5816259369715624  1.0000
  H   H7        1.0  0.6033810861150359  0.1658607760136874  0.15938935745256091  1.0000
  H   H8        1.0  0.3966191813583749  0.8341351193524954  0.8406128432189562  1.0000
  H   H9        1.0  0.9398242566749601  0.23736846985060808  0.32663168282046945  1.0000
  H   H10       1.0  0.060178935137301444  0.7626334973598856  0.6733674637956213  1.0000
  H   H11       1.0  0.7938625077671235  0.9141554532336751  0.20936942516560467  1.0000
  H   H12       1.0  0.20613755476825454  0.08584150309005169  0.7906345783867155  1.0000
  H   H13       1.0  0.1592416793550201  0.9465797840699747  0.28916096749718895  1.0000
  H   H14       1.0  0.8407624414285095  0.05342428858912738  0.7108410642993734  1.0000
  H   H15       1.0  0.9844675180648397  0.8463480986247588  0.31642750713540124  1.0000
  H   H16       1.0  0.01553828634599341  0.15365395146924493  0.6835757449695521  1.0000
  H   H17       1.0  0.283599692999644  0.08946721842890068  0.3129836017512916  1.0000
  H   H18       1.0  0.7164049702689964  0.9105338000425434  0.6870191843485642  1.0000
  H   H19       1.0  0.5087360862867314  0.20229607731481983  0.3587533132846303  1.0000
  H   H20       1.0  0.49127633449006686  0.7976987890543297  0.6412492273998538  1.0000
  H   H21       1.0  0.5069569555771025  0.22429748972228222  0.5116455621574117  1.0000
  H   H22       1.0  0.49305316121661485  0.7756953520072613  0.4883578954005828  1.0000
  H   H23       1.0  0.26840635615469216  0.14574456825714316  0.6162701691020659  1.0000
  H   H24       1.0  0.7316001812134872  0.8542533924286526  0.38373326701452026  1.0000
  H   H25       1.0  0.7665059794891392  0.3149134442744668  0.9311029228848327  1.0000
  H   H26       1.0  0.2334949372716367  0.6850864468224244  0.0688946754264919  1.0000
  H   H27       1.0  0.7610081089006044  0.8263455005711079  0.883250033376008  1.0000
  H   H28       1.0  0.23897374814922057  0.17365657568134907  0.11675324700340892  1.0000
  H   H29       1.0  0.5636708443829265  0.007065327396325898  0.8192088072360875  1.0000
  H   H30       1.0  0.43632018689304175  0.9929376816796986  0.18079061566161414  1.0000
  H   H31       1.0  0.568136457026263  0.2520926608039602  0.842292368250277  1.0000
  H   H32       1.0  0.4318635435378298  0.7479123420531905  0.1577050000465121  1.0000
  H   H33       1.0  0.9797560882359378  0.701907147851692  0.9044056339608844  1.0000
  H   H34       1.0  0.020236916708931615  0.2980998662255486  0.0955896985846394  1.0000
  H   H35       1.0  0.13145150177739853  0.6525937405614356  0.9747375983504583  1.0000
  H   H36       1.0  0.8685432084934703  0.34741121234520717  0.025257105619736844  1.0000
  H   H37       1.0  0.9454512836005906  0.6377830549314254  0.1456415729332292  1.0000
  H   H38       1.0  0.05455135295197521  0.36221474925786606  0.8543541642136319  1.0000
  H   H39       1.0  0.5076459620888799  0.4917672056619863  0.07422543903595623  1.0000
  H   H40       1.0  0.4923519104985701  0.5082347630720034  0.9257735084318314  1.0000
  H   H41       1.0  0.7005426673916164  0.6170984937773552  0.9322606473742995  1.0000
  H   H42       1.0  0.2994515912970144  0.3829014153095258  0.0677374723698492  1.0000
  C   C1        1.0  0.9039935566230072  0.5687146616294142  0.31728354265671754  1.0000
  C   C2        1.0  0.09601001613372526  0.431285235139981  0.6827144633760511  1.0000
  C   C3        1.0  0.259252162454068  0.42789836220258337  0.2239085751339474  1.0000
  C   C4        1.0  0.7407464286249311  0.5720995428602007  0.7760917889346075  1.0000
  C   C5        1.0  0.246326380049574  0.5005877114947026  0.30389861563978826  1.0000
  C   C6        1.0  0.7536710698872328  0.4994091619455288  0.6961012824236692  1.0000
  C   C7        1.0  0.08099867789393761  0.5530900748483558  0.3505533272845298  1.0000
  C   C8        1.0  0.9190004773688685  0.4469047374212705  0.649445942203606  1.0000
  C   C9        1.0  0.08436244149857693  0.6041966438194633  0.4281342393062744  1.0000
  C   C10       1.0  0.9156335297489521  0.3958011912283153  0.5718626355679817  1.0000
  C   C11       1.0  0.24765883787107876  0.6052501873892738  0.4554503561329923  1.0000
  C   C12       1.0  0.7523411065210439  0.3947476754700147  0.5445480547652866  1.0000
  C   C13       1.0  0.40623561460609653  0.5598438382631912  0.40284563417134933  1.0000
  C   C14       1.0  0.5937610806746676  0.44015716319074005  0.5971559287641881  1.0000
  C   C15       1.0  0.7019843490947935  0.1418606214857121  0.20106367649981394  1.0000
  C   C16       1.0  0.29801876484680184  0.8581342443324257  0.798938361601479  1.0000
  C   C17       1.0  0.873982515339968  0.18413168437593436  0.2878180603121551  1.0000
  C   C18       1.0  0.126020669239395  0.8158702957030639  0.712181702598514  1.0000
  C   C19       1.0  0.7937261383169771  0.01844207610029969  0.22487787770970868  1.0000
  C   C20       1.0  0.20627659468015494  0.9815548601589366  0.7751253009749065  1.0000
  C   C21       1.0  0.02202996142708009  0.947088042298631  0.3230681342838367  1.0000
  C   C22       1.0  0.977974518602224  0.05291399852486478  0.6769346058131163  1.0000
  C   C23       1.0  0.010103924266168516  0.9761721610353147  0.4136989480734954  1.0000
  C   C24       1.0  0.989893538445216  0.023831929613777395  0.5863036051558908  1.0000
  C   C25       1.0  0.14039070733515763  0.04443604716326629  0.4387321211268827  1.0000
  C   C26       1.0  0.8596097850837624  0.9555659915857219  0.5612703155351897  1.0000
  C   C27       1.0  0.27895047493652925  0.09777573180561207  0.3798550719756122  1.0000
  C   C28       1.0  0.7210532159634512  0.902223258428229  0.6201485267111977  1.0000
  C   C29       1.0  0.40573517673641407  0.16235329247264466  0.4052907949206599  1.0000
  C   C30       1.0  0.5942755531801822  0.8376436093301076  0.5947111417500041  1.0000
  C   C31       1.0  0.4026352097928267  0.17683831700664135  0.49170370008833697  1.0000
  C   C32       1.0  0.5973745332893188  0.8231565822955031  0.5083002817584159  1.0000
  C   C33       1.0  0.2696008125113353  0.1307538366011585  0.5504849258115457  1.0000
  C   C34       1.0  0.7304045837146519  0.869243092462078  0.44951804429994274  1.0000
  C   C35       1.0  0.13205046274278942  0.06593249111776339  0.5266420602739145  1.0000
  C   C36       1.0  0.8679525096656491  0.9340705627872836  0.4733601218121279  1.0000
  C   C37       1.0  0.7677237005423267  0.2071311585577574  0.9222890521858318  1.0000
  C   C38       1.0  0.23227267165715665  0.792871810389286  0.07770872097646733  1.0000
  C   C39       1.0  0.8844286074486833  0.10560065982735267  0.9626530602820722  1.0000
  C   C40       1.0  0.11556847600945022  0.8943982583169824  0.037346745775572315  1.0000
  C   C41       1.0  0.8832293029696247  0.9633830274066921  0.9484003943106458  1.0000
  C   C42       1.0  0.11676473631518292  0.03661796837473469  0.05160076090344749  1.0000
  C   C43       1.0  0.7641284448917744  0.932082888082135  0.895683730972209  1.0000
  C   C44       1.0  0.23586121860527956  0.0679201889343872  0.10431887768491069  1.0000
  C   C45       1.0  0.653588190857299  0.03339560116597799  0.8589805019557846  1.0000
  C   C46       1.0  0.34640567965396946  0.9666063912304993  0.14101937466627126  1.0000
  C   C47       1.0  0.6558646782460401  0.1725853641504357  0.8720353181441141  1.0000
  C   C48       1.0  0.3441358865018601  0.827416545913557  0.12796095557226292  1.0000
  C   C49       1.0  0.999448943734549  0.8602844919299453  0.9855229121641217  1.0000
  C   C50       1.0  0.0005504437066648161  0.1397164508539958  0.014475977020005403  1.0000
  C   C51       1.0  0.0013272315125690485  0.7129695836874248  0.9684086261540087  1.0000
  C   C52       1.0  0.9986676475318392  0.2870343726041681  0.03158735640823809  1.0000
  C   C53       1.0  0.8513656156351248  0.6153086948944162  0.10755855270001291  1.0000
  C   C54       1.0  0.14863185600037102  0.3846881399403158  0.8924394964797316  1.0000
  C   C55       1.0  0.6254549883503986  0.5422108791191248  0.0670617307763592  1.0000
  C   C56       1.0  0.37454174309485216  0.45779005799231226  0.9329367506863308  1.0000
  C   C57       1.0  0.718367912991802  0.6027297876000046  0.9975438699711318  1.0000
  C   C58       1.0  0.2816286496799166  0.39727214612648243  0.0024533328995061943  1.0000
  N   N1        1.0  0.4043273144088886  0.5084081702825001  0.3291308704412615  1.0000
  N   N2        1.0  0.5956724250452013  0.49159075353433923  0.6708693433378201  1.0000
  N   N3        1.0  0.75264789840233  0.24410850564360229  0.241147012059983  1.0000
  N   N4        1.0  0.24735069990956057  0.7558893865506843  0.758852735714008  1.0000
  N   N5        1.0  0.9011792416473912  0.047420200810186885  0.27981522403408127  1.0000
  N   N6        1.0  0.09882428771194898  0.952579773170207  0.720186479766106  1.0000
  N   N7        1.0  0.7090733182075085  0.5505621832318893  0.13549902713120335  1.0000
  N   N8        1.0  0.2909251185637417  0.44943669270895  0.864498825756165  1.0000
  N   N9        1.0  0.8611186785804537  0.6473745408049678  0.02413825491120753  1.0000
  N   N10       1.0  0.13888110427102873  0.3526243058008659  0.9758582611004485  1.0000
  O   O1        1.0  0.8611164891985654  0.6825086328250263  0.2806179709650891  1.0000
  O   O2        1.0  0.1389019434878023  0.31749015054034396  0.7193764687400943  1.0000
  O   O3        1.0  0.8086240083884706  0.4708123457133907  0.3332262418696033  1.0000
  O   O4        1.0  0.19137177069561784  0.5291937675007998  0.6667750910513917  1.0000
  O   O5        1.0  0.11631702334062063  0.4199329354769502  0.19735401373031897  1.0000
  O   O6        1.0  0.8836815677383785  0.5800649695858267  0.8026463503382361  1.0000
  O   O7        1.0  0.4178326127198845  0.3780680169161029  0.19071725929767785  1.0000
  O   O8        1.0  0.5821656191133401  0.6219319199822876  0.8092823964704933  1.0000
