data_image0
_chemical_formula_structural       Zn4H7C44S10N4Cl5O16F4
_chemical_formula_sum              "Zn4 H7 C44 S10 N4 Cl5 O16 F4"
_cell_length_a       11.475037042439526
_cell_length_b       12.749456093060349
_cell_length_c       26.13568318023679
_cell_angle_alpha    90.28269206810582
_cell_angle_beta     88.88918641371184
_cell_angle_gamma    90.00278110463243

_space_group_name_H-M_alt    "P 1"
_space_group_IT_number       1

loop_
  _space_group_symop_operation_xyz
  'x, y, z'

loop_
  _atom_site_type_symbol
  _atom_site_label
  _atom_site_symmetry_multiplicity
  _atom_site_fract_x
  _atom_site_fract_y
  _atom_site_fract_z
  _atom_site_occupancy
  Zn  Zn1       1.0  0.6199527531333331  0.5012294874295689  0.4981240772132478  1.0000
  Zn  Zn2       1.0  0.3777741073189063  0.49825695338834197  0.4994553313953957  1.0000
  Zn  Zn3       1.0  0.38002810742920445  0.5034046776179437  0.0105676419429059  1.0000
  Zn  Zn4       1.0  0.6218769533382159  0.5003267373504627  0.0112847913473857  1.0000
  H   H1        1.0  0.1630832551503971  0.6067593518261629  0.5572809506233298  1.0000
  H   H2        1.0  0.3136503701316967  0.8582681311664188  0.49732102745594614  1.0000
  H   H3        1.0  0.7021704340048062  0.49956147694610553  0.8588403541831582  1.0000
  H   H4        1.0  0.2994469274106848  0.49927189060176147  0.6511129294839506  1.0000
  H   H5        1.0  0.6864505217322687  0.5031620017681675  0.1852658613976246  1.0000
  H   H6        1.0  0.836051900668707  0.6072127873412682  0.9526592113424994  1.0000
  H   H7        1.0  0.6861525271505471  0.8605428028332297  0.011914106719210296  1.0000
  C   C1        1.0  0.49670031771788103  0.7048127613967806  0.5004699348428118  1.0000
  C   C2        1.0  0.49971469283919845  0.5015004044481158  0.5992763017052525  1.0000
  C   C3        1.0  0.49887989116990644  0.2949309082654922  0.49938956741600277  1.0000
  C   C4        1.0  0.493609742481624  0.5005827703597702  0.3988150015984643  1.0000
  C   C5        1.0  0.5025456098775223  0.7069534195797188  0.0091445569756488  1.0000
  C   C6        1.0  0.5013932928996283  0.5022097064892177  0.9105660301188435  1.0000
  C   C7        1.0  0.5001499772883236  0.29698399610522586  0.0100651180198525  1.0000
  C   C8        1.0  0.5059498781445909  0.503734807932517  0.11088060346305888  1.0000
  C   C9        1.0  0.8759651338848542  0.44582155346883917  0.4676291067653935  1.0000
  C   C10       1.0  0.12569118080748612  0.5542540000178562  0.5290106283743086  1.0000
  C   C11       1.0  0.0065843981372140006  0.5368436253339864  0.5185784523872741  1.0000
  C   C12       1.0  0.9948830577735635  0.46361103909223533  0.4786219415794334  1.0000
  C   C13       1.0  0.5963385676240378  0.11075914783172888  0.5021762062745623  1.0000
  C   C14       1.0  0.40265136533768253  0.8870964082406728  0.4990822379763243  1.0000
  C   C15       1.0  0.5023501003994824  0.17941929206461538  0.500130241978276  1.0000
  C   C16       1.0  0.4976114066105596  0.8205074351185004  0.5008310602779744  1.0000
  C   C17       1.0  0.438368702109301  0.9931616840613484  0.4995734629127852  1.0000
  C   C18       1.0  0.5602015411867782  0.004664957245850599  0.5018001787092671  1.0000
  C   C19       1.0  0.4237240282960215  0.5026264802680984  0.8191877788970527  1.0000
  C   C20       1.0  0.6299954410026274  0.5012142229141433  0.8325097049179604  1.0000
  C   C21       1.0  0.6508640130218737  0.5016335517954715  0.7808473756552912  1.0000
  C   C22       1.0  0.559767523482762  0.5022363353746255  0.7447177429156042  1.0000
  C   C23       1.0  0.5779387416016989  0.5024823686844044  0.6906928915607793  1.0000
  C   C24       1.0  0.37163927977648104  0.5008977260660856  0.6774330156317558  1.0000
  C   C25       1.0  0.3507834847325598  0.5015317800898984  0.729091586573233  1.0000
  C   C26       1.0  0.4419528036112368  0.5022121242178912  0.7651728529542011  1.0000
  C   C27       1.0  0.5150336633169915  0.5021779959680898  0.853189641873186  1.0000
  C   C28       1.0  0.4865896294243655  0.5018006546273382  0.6567246102322812  1.0000
  C   C29       1.0  0.399653957963011  0.5007151184703246  0.30917267802515613  1.0000
  C   C30       1.0  0.5968663215559857  0.5027275115421546  0.19957602874783478  1.0000
  C   C31       1.0  0.492877730530985  0.500860263310372  0.34243347238730587  1.0000
  C   C32       1.0  0.5027152100488126  0.5031574752528768  0.16733511502435044  1.0000
  C   C33       1.0  0.5595767767932216  0.5019759487666632  0.2514240207926193  1.0000
  C   C34       1.0  0.43737747483913847  0.5015742630709923  0.2573247457309762  1.0000
  C   C35       1.0  0.12448516863550202  0.448036247145339  0.0415033986752533  1.0000
  C   C36       1.0  0.8737613275906855  0.5551510959661242  0.9807903803491695  1.0000
  C   C37       1.0  0.9930576469172722  0.5379285176119025  0.9908847670183787  1.0000
  C   C38       1.0  0.0054067417873114  0.4652919858703797  0.03069290016615869  1.0000
  C   C39       1.0  0.40324524455743227  0.1126296751231095  0.0068094415433747986  1.0000
  C   C40       1.0  0.5971291613673558  0.8892373022017634  0.010088111007995297  1.0000
  C   C41       1.0  0.49711890787345686  0.1814653888711674  0.009010362145332396  1.0000
  C   C42       1.0  0.5021498197337594  0.8226166284809932  0.008459207822312497  1.0000
  C   C43       1.0  0.5613961823094158  0.9952797189579952  0.009449466404902298  1.0000
  C   C44       1.0  0.4395599005183471  0.006615182415068  0.007204700451829598  1.0000
  S   S1        1.0  0.8706206150203644  0.5764714630492092  0.5395921077012815  1.0000
  S   S2        1.0  0.1288340844622411  0.42204711658194327  0.45735314103369956  1.0000
  S   S3        1.0  0.3695466108781673  0.11334210215559182  0.4980362235165216  1.0000
  S   S4        1.0  0.6306972994182729  0.8857064347708387  0.5030284065969965  1.0000
  S   S5        1.0  0.6268029494589342  0.5020292690422749  0.3099069638665668  1.0000
  S   S6        1.0  0.3684575743299093  0.5026817455440663  0.19946622600041045  1.0000
  S   S7        1.0  0.1287149749723611  0.577676084843226  0.9697252971621991  1.0000
  S   S8        1.0  0.8717022065989823  0.4238145309667657  0.0521645937221749  1.0000
  S   S9        1.0  0.6300007890544138  0.11558473540024748  0.011197564587881497  1.0000
  S   S10       1.0  0.3690765374680325  0.8876818378912644  0.0060463460053839  1.0000
  N   N1        1.0  0.8024754494151907  0.500676291948565  0.4971425175372912  1.0000
  N   N2        1.0  0.19718126308674042  0.49793865001117144  0.4993186928372424  1.0000
  N   N3        1.0  0.19748508297606554  0.5027013276156965  0.0119436528018326  1.0000
  N   N4        1.0  0.8026525128331843  0.499274711676989  0.010568077907194598  1.0000
  Cl  Cl1       1.0  0.8302283994865223  0.363471762199694  0.42122100272905527  1.0000
  Cl  Cl2       1.0  0.7405042008615224  0.1441230234625905  0.5052444793113793  1.0000
  Cl  Cl3       1.0  0.2545599504272075  0.5003035215031061  0.3257148994040903  1.0000
  Cl  Cl4       1.0  0.1708564831927291  0.3667079272662335  0.08780625327739239  1.0000
  Cl  Cl5       1.0  0.2590042525907634  0.1456134315109665  0.003732387119463  1.0000
  O   O1        1.0  0.5964097823374884  0.6598617433683954  0.5007286473845624  1.0000
  O   O2        1.0  0.3977002087762642  0.6597845391912643  0.4998191615497802  1.0000
  O   O3        1.0  0.40297790041385895  0.4993837255094746  0.5758321967035086  1.0000
  O   O4        1.0  0.6003390411914395  0.5031763029983195  0.578472547618496  1.0000
  O   O5        1.0  0.3976061466034436  0.3364504643531774  0.4986078113520378  1.0000
  O   O6        1.0  0.5958332067109994  0.3436023802906832  0.49950881490659066  1.0000
  O   O7        1.0  0.5933430424667135  0.504508444399569  0.41957759828341773  1.0000
  O   O8        1.0  0.3951896059692431  0.49646437400749466  0.4220661733327303  1.0000
  O   O9        1.0  0.40264910451126223  0.662488045386226  0.008463931571611698  1.0000
  O   O10       1.0  0.6012927809607406  0.6614991500450031  0.010492013023075198  1.0000
  O   O11       1.0  0.597496645548567  0.4995840764126171  0.9344451280089954  1.0000
  O   O12       1.0  0.40029346215678174  0.5046797461979721  0.9309641579504981  1.0000
  O   O13       1.0  0.6011241481343604  0.33895681936503047  0.012239921315071496  1.0000
  O   O14       1.0  0.40314133928761464  0.3452775192228329  0.008807119741646798  1.0000
  O   O15       1.0  0.4080883372188708  0.5069952201809613  0.088571849273535  1.0000
  O   O16       1.0  0.6064378766379193  0.5008094811548743  0.08919694051608217  1.0000
  F   F1        1.0  0.23776406806289432  0.5010959325072405  0.7457434670618142  1.0000
  F   F2        1.0  0.3123890429114837  0.5034018130604991  0.8368552509614273  1.0000
  F   F3        1.0  0.7639059861127179  0.5007815536413743  0.7642238848930347  1.0000
  F   F4        1.0  0.6892152287959519  0.5034167714734606  0.6729555460852551  1.0000
