data_image0
_chemical_formula_structural       Cd2H28C28Br2N4O10
_chemical_formula_sum              "Cd2 H28 C28 Br2 N4 O10"
_cell_length_a       8.361223848513982
_cell_length_b       10.167496046599538
_cell_length_c       11.159749118576137
_cell_angle_alpha    73.30220593688948
_cell_angle_beta     74.97451080787941
_cell_angle_gamma    66.42362154004381

_space_group_name_H-M_alt    "P 1"
_space_group_IT_number       1

loop_
  _space_group_symop_operation_xyz
  'x, y, z'

loop_
  _atom_site_type_symbol
  _atom_site_label
  _atom_site_symmetry_multiplicity
  _atom_site_fract_x
  _atom_site_fract_y
  _atom_site_fract_z
  _atom_site_occupancy
  Cd  Cd1       1.0  0.34550427929546873  0.9256639287130285  0.4414209637000611  1.0000
  Cd  Cd2       1.0  0.654498466110482  0.07433515718619081  0.5585819498750979  1.0000
  H   H1        1.0  0.99995779223012  0.10319383809252254  0.3528887138464397  1.0000
  H   H2        1.0  4.4041013410464234e-05  0.8968074828352284  0.6471120340813954  1.0000
  H   H3        1.0  0.03753057211799425  0.9395999351281714  0.36871984354600335  1.0000
  H   H4        1.0  0.9624700260142943  0.06040138232228998  0.6312820425328383  1.0000
  H   H5        1.0  0.9673447350364268  0.24967371766040708  0.7289385202744895  1.0000
  H   H6        1.0  0.032658351459538375  0.7503244804868672  0.2710555832562349  1.0000
  H   H7        1.0  0.9903065092946405  0.6587228342502911  0.7526402854081057  1.0000
  H   H8        1.0  0.009683574152873586  0.3412799279833719  0.2473543340772082  1.0000
  H   H9        1.0  0.3386039514732459  0.4307607895877227  0.4605652998558938  1.0000
  H   H10       1.0  0.6613956822278909  0.5692428673286899  0.5394299238173942  1.0000
  H   H11       1.0  0.44450037887440874  0.2010052843049763  0.24766468235479525  1.0000
  H   H12       1.0  0.5554977176741713  0.7989960888533646  0.7523367819711382  1.0000
  H   H13       1.0  0.5610216817749176  0.24000217542644717  0.09145668997658866  1.0000
  H   H14       1.0  0.4389793515310954  0.7599980662847159  0.9085444802226307  1.0000
  H   H15       1.0  0.6746127671572353  0.15777969742860887  0.22355538361895097  1.0000
  H   H16       1.0  0.32538535029883076  0.8422216339547647  0.776447879410277  1.0000
  H   H17       1.0  0.5377314325110163  0.7014022141154046  0.24588929581834404  1.0000
  H   H18       1.0  0.4622666953987887  0.2985990963804852  0.7541148665625244  1.0000
  H   H19       1.0  0.7468811354837399  0.7506384619672559  0.009811535318228017  1.0000
  H   H20       1.0  0.2531200414084153  0.24935840283634286  0.9901949208546412  1.0000
  H   H21       1.0  0.7196301666409042  0.14480955089857156  0.9395467421253939  1.0000
  H   H22       1.0  0.2803731052561886  0.8551851867912035  0.06045624478556278  1.0000
  H   H23       1.0  0.7606231107235785  0.9998344226377897  0.8658168624396794  1.0000
  H   H24       1.0  0.2393772244160743  0.00016144649916329797  0.1341864185979986  1.0000
  H   H25       1.0  0.036510406101093865  0.8550721705979356  0.962190950795538  1.0000
  H   H26       1.0  0.9634895043185878  0.1449247533908249  0.037813945473409626  1.0000
  H   H27       1.0  0.03911596905764009  0.01933420359171829  0.8545045324398758  1.0000
  H   H28       1.0  0.9608839413620417  0.9806627203970489  0.14550036382907186  1.0000
  C   C1        1.0  0.2440931625709269  0.6787733642839625  0.5445004056151747  1.0000
  C   C2        1.0  0.7559082041376399  0.3212290950455383  0.45549836013734085  1.0000
  C   C3        1.0  0.2389856641848311  0.19276418793356243  0.5327560583141917  1.0000
  C   C4        1.0  0.7610187096911007  0.8072339092535827  0.46724140382374907  1.0000
  C   C5        1.0  0.16212606344817707  0.325853402866258  0.589407937337775  1.0000
  C   C6        1.0  0.8378744406004087  0.6741481025715573  0.41058585457626157  1.0000
  C   C7        1.0  0.02416010936700277  0.3356953425144907  0.6933723367206354  1.0000
  C   C8        1.0  0.9758395947440661  0.6643050837067506  0.306621877464785  1.0000
  C   C9        1.0  0.9656160806525024  0.45487913469973046  0.7511348730909262  1.0000
  C   C10       1.0  0.03438148663865095  0.5451235021852624  0.2488592129498244  1.0000
  C   C11       1.0  0.03640822598816841  0.5663072335113739  0.7062759461923348  1.0000
  C   C12       1.0  0.96359229896791  0.43369423015147385  0.29371964442499626  1.0000
  C   C13       1.0  0.169346972307892  0.5583048613563477  0.5991348646796338  1.0000
  C   C14       1.0  0.8306514158282639  0.4416988129702659  0.40086059779302013  1.0000
  C   C15       1.0  0.2327940117482399  0.4375452498286093  0.5418951093436704  1.0000
  C   C16       1.0  0.7672023308854178  0.5624573626916174  0.458101014199741  1.0000
  C   C17       1.0  0.5668534289148112  0.160713354298089  0.18227776960049616  1.0000
  C   C18       1.0  0.43314592365249627  0.839287980562574  0.8177243552777185  1.0000
  C   C19       1.0  0.5909976673495192  0.013778654771861906  0.16582692673407712  1.0000
  C   C20       1.0  0.4090017765351987  0.9862194076186557  0.8341759873595576  1.0000
  C   C21       1.0  0.577370813648571  0.7948220581589496  0.1960728144797059  1.0000
  C   C22       1.0  0.42263057396748144  0.20518035939557677  0.8039277499761041  1.0000
  C   C23       1.0  0.6795393332848858  0.8181821251666436  0.08009096809496438  1.0000
  C   C24       1.0  0.32045675957616737  0.18181810263537557  0.9199147547083015  1.0000
  C   C25       1.0  0.7811965462494896  0.02552243671346589  0.9481648660796084  1.0000
  C   C26       1.0  0.2188062904738715  0.9744733767156077  0.051838836710977845  1.0000
  C   C27       1.0  0.9786590474414538  0.9754498567735725  0.9495185071364743  1.0000
  C   C28       1.0  0.021343799735660703  0.024545935768010497  0.050486095005759096  1.0000
  Br  Br1       1.0  0.7874259105233108  0.4629455487048304  0.899524000831839  1.0000
  Br  Br2       1.0  0.21256628883662634  0.5370550446400486  0.10046894809484999  1.0000
  N   N1        1.0  0.522999024871403  0.9167596691274155  0.2485334686798453  1.0000
  N   N2        1.0  0.4769978365659355  0.0832417005536428  0.7514691337971016  1.0000
  N   N3        1.0  0.6869516217019581  0.9563904688153354  0.061833444697178705  1.0000
  N   N4        1.0  0.3130490782014874  0.04360755527749659  0.9381701299487303  1.0000
  O   O1        1.0  0.20622031900956725  0.776365755787502  0.6098473148182748  1.0000
  O   O2        1.0  0.793777290096564  0.22363679754755592  0.3901503686290581  1.0000
  O   O3        1.0  0.3395205592369805  0.6820230546993287  0.43623396578973234  1.0000
  O   O4        1.0  0.6604811304204076  0.3179816431359867  0.5637614961644459  1.0000
  O   O5        1.0  0.1506045148262984  0.1084765073720035  0.5557088295857113  1.0000
  O   O6        1.0  0.8493969431996855  0.891522679487345  0.4442907253822383  1.0000
  O   O7        1.0  0.39151901915378307  0.16508831905197502  0.4635022145800037  1.0000
  O   O8        1.0  0.6084861860208977  0.8349107946892999  0.536497523341481  1.0000
  O   O9        1.0  0.0988833726468457  0.011379359810732102  0.3356240399282129  1.0000
  O   O10       1.0  0.9011172359391821  0.9886219367522459  0.6643787455022759  1.0000
