data_image0
_chemical_formula_structural       CuH14PdC16N6O2
_chemical_formula_sum              "Cu1 H14 Pd1 C16 N6 O2"
_cell_length_a       7.375749802686757
_cell_length_b       7.897855467863681
_cell_length_c       8.893568023908525
_cell_angle_alpha    106.28531818155835
_cell_angle_beta     100.43011444316814
_cell_angle_gamma    110.73041289474294

_space_group_name_H-M_alt    "P 1"
_space_group_IT_number       1

loop_
  _space_group_symop_operation_xyz
  'x, y, z'

loop_
  _atom_site_type_symbol
  _atom_site_label
  _atom_site_symmetry_multiplicity
  _atom_site_fract_x
  _atom_site_fract_y
  _atom_site_fract_z
  _atom_site_occupancy
  Cu  Cu1       1.0  0.9999972318330136  0.49999478652387797  0.49999785782271294  1.0000
  H   H1        1.0  0.6921817127690416  0.4841964899592596  0.2252828068078614  1.0000
  H   H2        1.0  0.3078199289153005  0.5157979276296558  0.7747207089296781  1.0000
  H   H3        1.0  0.9033356122566544  0.5234300436348461  0.08470101999071744  1.0000
  H   H4        1.0  0.09665697850593347  0.47657178797879846  0.9152996737618014  1.0000
  H   H5        1.0  0.9480133086800817  0.7694427058311742  0.1792849701127536  1.0000
  H   H6        1.0  0.05198207301386047  0.2305590936963496  0.8207228678607879  1.0000
  H   H7        1.0  0.2868489367331009  0.8303902844818011  0.12435865113601342  1.0000
  H   H8        1.0  0.713146271381639  0.16962324555868943  0.8756509912912737  1.0000
  H   H9        1.0  0.649725035669384  0.9105411111270172  0.2597440724638674  1.0000
  H   H10       1.0  0.3502741254245337  0.08948411149324897  0.7402690891955576  1.0000
  H   H11       1.0  0.7332450759101404  0.8207780613279494  0.5059988041160326  1.0000
  H   H12       1.0  0.2667502609048071  0.17922374584655634  0.49400228269264107  1.0000
  H   H13       1.0  0.44878725326922353  0.6587986327359585  0.6052296482657697  1.0000
  H   H14       1.0  0.5512098194614765  0.34117384804427076  0.3947564345922531  1.0000
  Pd  Pd1       1.0  7.0912795138024476e-06  9.033733256599487e-06  0.9999984738811637  1.0000
  C   C1        1.0  0.028941469358244293  0.8361966527780351  0.80060724474059  1.0000
  C   C2        1.0  0.9710755833723539  0.16381962807845696  0.19939389741239216  1.0000
  C   C3        1.0  0.29057199709144754  0.1887240280175106  0.06841270754964063  1.0000
  C   C4        1.0  0.7094410611351378  0.8112834925688331  0.9315856477831802  1.0000
  C   C5        1.0  0.955487905028029  0.6428056311427354  0.2059498613792101  1.0000
  C   C6        1.0  0.04451093411945098  0.35719174574392537  0.7940517433258523  1.0000
  C   C7        1.0  0.1760153467804598  0.6972741620309505  0.2903086158842498  1.0000
  C   C8        1.0  0.8239807463146677  0.30272323929484185  0.7096925957646507  1.0000
  C   C9        1.0  0.32827950818736434  0.7919691751345111  0.23006673017211193  1.0000
  C   C10       1.0  0.6717143875113862  0.20803850632980667  0.7699378753207146  1.0000
  C   C11       1.0  0.530511333456154  0.8375863369261791  0.3062759264390068  1.0000
  C   C12       1.0  0.46948388626410054  0.16242426590267908  0.6937284827997348  1.0000
  C   C13       1.0  0.5775558534011223  0.7899160722516  0.44343688065990966  1.0000
  C   C14       1.0  0.42244358753269035  0.21008570081319522  0.5565625453447256  1.0000
  C   C15       1.0  0.4196966149881191  0.69740678969584  0.4979409730721757  1.0000
  C   C16       1.0  0.5803016455840506  0.30258033658942907  0.5020523439562298  1.0000
  N   N1        1.0  0.04124944442792601  0.7352775525021042  0.682079073482278  1.0000
  N   N2        1.0  0.9587508706522812  0.264705168459855  0.31790331297299457  1.0000
  N   N3        1.0  0.4611604244874739  0.3020701481637715  0.10975759333839363  1.0000
  N   N4        1.0  0.5388492900260998  0.6979300747464378  0.8902361892560011  1.0000
  N   N5        1.0  0.2237470438779282  0.6521429007191911  0.4225687416098155  1.0000
  N   N6        1.0  0.7762498096230531  0.34784716882076333  0.5774262364966207  1.0000
  O   O1        1.0  0.8293868620971381  0.5882652173256205  0.3019696938509427  1.0000
  O   O2        1.0  0.1706154112928643  0.41173359134344867  0.6980361439627388  1.0000
