data_image0
_chemical_formula_structural       Zr6H40C72O44
_chemical_formula_sum              "Zr6 H40 C72 O44"
_cell_length_a       17.020331646635135
_cell_length_b       17.020314979754403
_cell_length_c       17.020296778103628
_cell_angle_alpha    59.999937477686274
_cell_angle_beta     59.99991359236683
_cell_angle_gamma    59.99987019779614

_space_group_name_H-M_alt    "P 1"
_space_group_IT_number       1

loop_
  _space_group_symop_operation_xyz
  'x, y, z'

loop_
  _atom_site_type_symbol
  _atom_site_label
  _atom_site_symmetry_multiplicity
  _atom_site_fract_x
  _atom_site_fract_y
  _atom_site_fract_z
  _atom_site_occupancy
  Zr  Zr1       1.0  0.8962466244975643  0.3962404695913054  0.6037519798573782  1.0000
  Zr  Zr2       1.0  0.10375049162100693  0.6037500549666959  0.3962434706104716  1.0000
  Zr  Zr3       1.0  0.1037448822237367  0.396242665596418  0.6037552055888469  1.0000
  Zr  Zr4       1.0  0.8962406492373487  0.6037586005945174  0.39623677044227174  1.0000
  Zr  Zr5       1.0  0.8962393692532231  0.6037563220562916  0.6037501761581511  1.0000
  Zr  Zr6       1.0  0.10374750187739315  0.39624393367532207  0.39625010560178714  1.0000
  H   H1        1.0  0.9181756403747343  0.4181766993775683  0.7454680981325695  1.0000
  H   H2        1.0  0.9181740192752486  0.745468017605795  0.4181795635780501  1.0000
  H   H3        1.0  0.24546452679035005  0.41817704393620403  0.4181782706980713  1.0000
  H   H4        1.0  0.9181755390508002  0.4181763196501653  0.41817843865188553  1.0000
  H   H5        1.0  0.6259738802495464  0.39583148066567037  0.8707549274641266  1.0000
  H   H6        1.0  0.6532215997293065  0.6460509732013905  0.8429279021105458  1.0000
  H   H7        1.0  0.3707483505460443  0.6074433860198171  0.12597353727953484  1.0000
  H   H8        1.0  0.3429293406288282  0.357797118904685  0.15322656325759001  1.0000
  H   H9        1.0  0.8958322660981962  0.12597380671591218  0.6074408774451853  1.0000
  H   H10       1.0  0.14605007227360287  0.1532232854479645  0.35779774812736787  1.0000
  H   H11       1.0  0.10744104600716056  0.8707501373614052  0.3958341478668075  1.0000
  H   H12       1.0  0.8577959282700645  0.8429288312118217  0.6460506392879496  1.0000
  H   H13       1.0  0.6259716610511106  0.870753257519013  0.6074420948103736  1.0000
  H   H14       1.0  0.6532223805871523  0.842925971431882  0.35780038101327705  1.0000
  H   H15       1.0  0.3707517101219082  0.12597174395620664  0.39583222198604073  1.0000
  H   H16       1.0  0.34292729085625234  0.153225329677774  0.6460471137238386  1.0000
  H   H17       1.0  0.10743704846924364  0.3958322658499114  0.1259755512808454  1.0000
  H   H18       1.0  0.8577948562545713  0.6460480096669701  0.1532247616228232  1.0000
  H   H19       1.0  0.895832029322499  0.6074407996323362  0.8707517030984846  1.0000
  H   H20       1.0  0.14604768987097572  0.3577973497154829  0.8429295135218169  1.0000
  H   H21       1.0  0.10743850464419334  0.12597264820417559  0.870754215737236  1.0000
  H   H22       1.0  0.8577963493864899  0.15322251411267024  0.842930855407218  1.0000
  H   H23       1.0  0.895830162014171  0.8707513451261099  0.12597508401321283  1.0000
  H   H24       1.0  0.14604618847162257  0.8429273083825707  0.15322739836211247  1.0000
  H   H25       1.0  0.6259719710858531  0.6074379910781147  0.39583412048638433  1.0000
  H   H26       1.0  0.653221214764777  0.3577965292574278  0.6460504436690826  1.0000
  H   H27       1.0  0.37075037194154686  0.3958322931325499  0.6074426600615157  1.0000
  H   H28       1.0  0.3429261316082444  0.6460479754028655  0.3577998978583778  1.0000
  H   H29       1.0  0.5491046030865192  0.3184086650989145  0.9527634001045089  1.0000
  H   H30       1.0  0.45275693213629614  0.6797271895793388  0.049103277640348574  1.0000
  H   H31       1.0  0.8184086724966377  0.04910475567151437  0.6797255205062741  1.0000
  H   H32       1.0  0.17972574093274576  0.9527550809596053  0.3184140055087001  1.0000
  H   H33       1.0  0.5491008096093424  0.9527599072735814  0.679726500903655  1.0000
  H   H34       1.0  0.4527577741153266  0.04909913737321859  0.31841345902381596  1.0000
  H   H35       1.0  0.1797218726250094  0.31841099155035124  0.0491073665422093  1.0000
  H   H36       1.0  0.8184095187727821  0.6797255569179869  0.9527599119749722  1.0000
  H   H37       1.0  0.17972242474915126  0.04910288755181107  0.9527616033102575  1.0000
  H   H38       1.0  0.8184094464716622  0.9527567601748221  0.04910519138572762  1.0000
  H   H39       1.0  0.5491017530877402  0.6797237988950401  0.31841256091477294  1.0000
  H   H40       1.0  0.45275426592509393  0.3184112366711674  0.6797294383923003  1.0000
  C   C1        1.0  0.7326603185541102  0.5101383599705047  0.7624573926134702  1.0000
  C   C2        1.0  0.9947391373152212  0.7624550018884835  0.5101411044682678  1.0000
  C   C3        1.0  0.2624526537067737  0.4947422331730992  0.23266346940381769  1.0000
  C   C4        1.0  0.010137625687811154  0.2326597582238321  0.49474503209908965  1.0000
  C   C5        1.0  0.9947400760004963  0.23265972564938425  0.7624564020718837  1.0000
  C   C6        1.0  0.7326592871103724  0.49473783116526715  0.510141278173947  1.0000
  C   C7        1.0  0.010134218242377828  0.7624549075313071  0.232666212761373  1.0000
  C   C8        1.0  0.26245251475428694  0.5101368996081631  0.49474337952770503  1.0000
  C   C9        1.0  0.010135911697510313  0.494742195837901  0.7624550897943791  1.0000
  C   C10       1.0  0.2624536670359419  0.23266308385545645  0.5101372057652185  1.0000
  C   C11       1.0  0.9947397395619362  0.5101350947517107  0.23266386316409893  1.0000
  C   C12       1.0  0.732658729623651  0.7624568166636151  0.4947427739922148  1.0000
  C   C13       1.0  0.5977462122808105  0.4532240287010582  0.8993045440915992  1.0000
  C   C14       1.0  0.6143754740464046  0.5952567006151457  0.8822734743134647  1.0000
  C   C15       1.0  0.5348566988810219  0.6054731782413683  0.9633309182669834  1.0000
  C   C16       1.0  0.48208999968408506  0.5399278665290979  0.01582447502659797  1.0000
  C   C17       1.0  0.39930229014366597  0.5497272972237399  0.09774787812543906  1.0000
  C   C18       1.0  0.38227316493119184  0.4080926327737944  0.11438215776021829  1.0000
  C   C19       1.0  0.4633314553393361  0.396335818168403  0.034863992984895696  1.0000
  C   C20       1.0  0.5158226619316436  0.46215674398775525  0.9820947164063725  1.0000
  C   C21       1.0  0.6458715908542558  0.5190060504011458  0.8500331394689271  1.0000
  C   C22       1.0  0.3500297223510244  0.4850894681540511  0.14587599182610236  1.0000
  C   C23       1.0  0.9532254153372366  0.09774559718874096  0.5497251624002006  1.0000
  C   C24       1.0  0.09525694137268909  0.11437467694840812  0.40809449367649364  1.0000
  C   C25       1.0  0.10547315657942853  0.034856737663538695  0.39633936538096753  1.0000
  C   C26       1.0  0.03992553019796938  0.9820906636608768  0.4621586044016654  1.0000
  C   C27       1.0  0.04972638245074996  0.899303119759658  0.4532227943215191  1.0000
  C   C28       1.0  0.9080921055153791  0.8822734181877723  0.5952547623113559  1.0000
  C   C29       1.0  0.8963342817143315  0.9633319512356454  0.6054717284210727  1.0000
  C   C30       1.0  0.9621569125205834  0.015823098018920446  0.5399272909332566  1.0000
  C   C31       1.0  0.019006839385262722  0.1458712924083442  0.4850902189135056  1.0000
  C   C32       1.0  0.9850882588532811  0.8500316932765489  0.5190064561392874  1.0000
  C   C33       1.0  0.5977452940859532  0.8993014328385204  0.5497267364378474  1.0000
  C   C34       1.0  0.6143761456565996  0.8822699872381609  0.4080947847428862  1.0000
  C   C35       1.0  0.5348554405428559  0.963328206943331  0.3963414707987171  1.0000
  C   C36       1.0  0.4820905299834948  0.015820857258908926  0.4621586487521938  1.0000
  C   C37       1.0  0.3993021087899322  0.09774525056056399  0.4532242370615052  1.0000
  C   C38       1.0  0.38227159704447183  0.11437938568078482  0.5952545139571085  1.0000
  C   C39       1.0  0.4633294013030777  0.034858266823114596  0.60547064359708  1.0000
  C   C40       1.0  0.5158209175528228  0.982091046826753  0.5399279905143004  1.0000
  C   C41       1.0  0.6458708229340785  0.8500313848390848  0.4850909674636625  1.0000
  C   C42       1.0  0.3500305446324744  0.1458739622564664  0.5190039703808155  1.0000
  C   C43       1.0  0.04972344261491911  0.4532224329127389  0.09774832049950535  1.0000
  C   C44       1.0  0.908090041137413  0.5952532261174998  0.11437993968968398  1.0000
  C   C45       1.0  0.8963343664243408  0.6054700809458358  0.03486042621050705  1.0000
  C   C46       1.0  0.9621557621267696  0.5399267177726089  0.9820929023805932  1.0000
  C   C47       1.0  0.9532231262170894  0.5497269481837608  0.8993020373166233  1.0000
  C   C48       1.0  0.0952537637679923  0.4080922164241371  0.8822743269103199  1.0000
  C   C49       1.0  0.10546840095438623  0.3963378475690575  0.9633339371044941  1.0000
  C   C50       1.0  0.03992398180530908  0.4621581876018866  0.015823824946991683  1.0000
  C   C51       1.0  0.9850868076585896  0.519004686958745  0.14587452453629635  1.0000
  C   C52       1.0  0.01900415746008119  0.4850902667619791  0.8500321499490582  1.0000
  C   C53       1.0  0.04972491712931065  0.09774498504241079  0.8993041687384533  1.0000
  C   C54       1.0  0.9080923644869543  0.11437673158747695  0.8822727355763006  1.0000
  C   C55       1.0  0.8963366970619049  0.03485604059067531  0.9633326059095779  1.0000
  C   C56       1.0  0.962156613500156  0.9820900361087654  0.01582274479477524  1.0000
  C   C57       1.0  0.9532232541563702  0.8993012754512155  0.09774860886123808  1.0000
  C   C58       1.0  0.09525191127504222  0.8822712869958454  0.11438209361579521  1.0000
  C   C59       1.0  0.10546818493739353  0.9633289138632295  0.03486170162344854  1.0000
  C   C60       1.0  0.039924900325814965  0.01582044299151871  0.9820938075592522  1.0000
  C   C61       1.0  0.985089060108386  0.14587016831454502  0.8500318582463819  1.0000
  C   C62       1.0  0.019003163643994164  0.850028760844019  0.14587646994524314  1.0000
  C   C63       1.0  0.5977441664314895  0.5497241668703482  0.45322585099950896  1.0000
  C   C64       1.0  0.6143748987840283  0.4080908485162738  0.5952587918778037  1.0000
  C   C65       1.0  0.534854789186916  0.39633683645055867  0.605474703601118  1.0000
  C   C66       1.0  0.48209055135983897  0.46215572958629986  0.5399297116560717  1.0000
  C   C67       1.0  0.3992996483282595  0.4532224764015922  0.549729288271216  1.0000
  C   C68       1.0  0.38227048675204867  0.5952528869844401  0.40809561149890783  1.0000
  C   C69       1.0  0.46332849275692944  0.6054684658230515  0.39634177699298334  1.0000
  C   C70       1.0  0.5158204757058159  0.5399248997863424  0.46216001499399806  1.0000
  C   C71       1.0  0.6458701937227712  0.4850883474604758  0.5190073119512492  1.0000
  C   C72       1.0  0.3500293044867818  0.5190030129227453  0.4850908375673129  1.0000
  O   O1        1.0  0.7634449209335656  0.4413147257690682  0.7326833708151954  1.0000
  O   O2        1.0  0.06255499250099932  0.732682216915741  0.4413179003374169  1.0000
  O   O3        1.0  0.23267768013049317  0.5625590801526386  0.2634463760760256  1.0000
  O   O4        1.0  0.9413140024913317  0.26344354135223813  0.5625583166717973  1.0000
  O   O5        1.0  0.06255826964986977  0.2634441568442084  0.7326790671435078  1.0000
  O   O6        1.0  0.7634437647375306  0.5625569685881118  0.4413115517584032  1.0000
  O   O7        1.0  0.9413072843492857  0.7326828541098963  0.26344875971869186  1.0000
  O   O8        1.0  0.23268113752154543  0.4413109196307802  0.5625565593765885  1.0000
  O   O9        1.0  0.9413114787943185  0.5625562191002589  0.732685674522571  1.0000
  O   O10       1.0  0.2326808139141149  0.2634473085066773  0.441312070566795  1.0000
  O   O11       1.0  0.0625520460622867  0.4413136442442608  0.2634475835398362  1.0000
  O   O12       1.0  0.7634436836323885  0.7326811688147149  0.5625582366713149  1.0000
  O   O13       1.0  0.22371726997251065  0.2713214282918841  0.5750572107823047  1.0000
  O   O14       1.0  0.9298947116118867  0.5750599221561857  0.271321170751328  1.0000
  O   O15       1.0  0.7713191263148217  0.7237212966997931  0.4298967914385868  1.0000
  O   O16       1.0  0.07505562444753637  0.4298955785235067  0.7237226015977428  1.0000
  O   O17       1.0  0.9298989210404116  0.27131968677611706  0.7237201827222819  1.0000
  O   O18       1.0  0.2237189089508505  0.5750583728846196  0.4298983287564654  1.0000
  O   O19       1.0  0.075050336696286  0.7237218512518242  0.2713250079884304  1.0000
  O   O20       1.0  0.7713204190245049  0.4298954678545783  0.5750588465330396  1.0000
  O   O21       1.0  0.07505631891182667  0.27132042560595687  0.42990116077906754  1.0000
  O   O22       1.0  0.7713204901648111  0.5750578472330689  0.7237253008025419  1.0000
  O   O23       1.0  0.9298943084554381  0.7237213154205551  0.5750596861845167  1.0000
  O   O24       1.0  0.2237161597794567  0.4298991823858956  0.2713213305389814  1.0000
  O   O25       1.0  0.9414221087494706  0.4414229546469104  0.4414231145845662  1.0000
  O   O26       1.0  0.17572624472339982  0.44142305115864394  0.44142393548320774  1.0000
  O   O27       1.0  0.9414207133819872  0.6757291958523839  0.4414242962827259  1.0000
  O   O28       1.0  0.9414208415821717  0.44141953664804856  0.6757304274036287  1.0000
  O   O29       1.0  0.04317840952735006  0.5431826795195603  0.5431835549705185  1.0000
  O   O30       1.0  0.8704514117974609  0.5431815120241483  0.5431801717613497  1.0000
  O   O31       1.0  0.043178684576446254  0.5431839827057205  0.3704500710045053  1.0000
  O   O32       1.0  0.04317984985272719  0.37044658760584775  0.5431850076452562  1.0000
  O   O33       1.0  0.49078913368650495  0.3199444316948573  0.008918399591316135  1.0000
  O   O34       1.0  0.508906563590081  0.6803568842705519  0.9907856037998357  1.0000
  O   O35       1.0  0.8199454285536374  0.9907885834867474  0.6803506006438057  1.0000
  O   O36       1.0  0.1803555423976277  0.00890651143488703  0.31995231930491036  1.0000
  O   O37       1.0  0.490781574721204  0.008910709976937941  0.6803550054506147  1.0000
  O   O38       1.0  0.508907184602869  0.9907796829342034  0.3199539070639545  1.0000
  O   O39       1.0  0.18034901656604074  0.31994726628730774  0.9907889686179273  1.0000
  O   O40       1.0  0.8199450274454065  0.6803484119822018  0.00891525737741716  1.0000
  O   O41       1.0  0.18034924824280565  0.9907843061645351  0.008913386343898815  1.0000
  O   O42       1.0  0.8199475471124842  0.008911312917732079  0.9907873000715242  1.0000
  O   O43       1.0  0.49078395829881305  0.6803508907988276  0.3199517761801757  1.0000
  O   O44       1.0  0.5089096769604923  0.31994718858794613  0.6803540562688611  1.0000
