data_image0
_chemical_formula_structural       Zn8H88C144N8O32
_chemical_formula_sum              "Zn8 H88 C144 N8 O32"
_cell_length_a       16.150735177884442
_cell_length_b       18.167329660728758
_cell_length_c       19.099937036002128
_cell_angle_alpha    89.99995271417261
_cell_angle_beta     89.99997638672916
_cell_angle_gamma    92.61881085831381

_space_group_name_H-M_alt    "P 1"
_space_group_IT_number       1

loop_
  _space_group_symop_operation_xyz
  'x, y, z'

loop_
  _atom_site_type_symbol
  _atom_site_label
  _atom_site_symmetry_multiplicity
  _atom_site_fract_x
  _atom_site_fract_y
  _atom_site_fract_z
  _atom_site_occupancy
  Zn  Zn1       1.0  0.6379415169596712  0.3287241715794664  0.4997375324456073  1.0000
  Zn  Zn2       1.0  0.3620593039754922  0.17127729752274232  0.9997351022288044  1.0000
  Zn  Zn3       1.0  0.3620589411923376  0.6712764414701766  0.5002641513292616  1.0000
  Zn  Zn4       1.0  0.6379405632496005  0.8287238664734105  0.00026448729820320013  1.0000
  Zn  Zn5       1.0  0.811325038900165  0.35777778019988205  0.5002736179145444  1.0000
  Zn  Zn6       1.0  0.1886753692613468  0.14222303487467516  0.0002758284774913  1.0000
  Zn  Zn7       1.0  0.1886760384231891  0.6422228329199343  0.4997244009266596  1.0000
  Zn  Zn8       1.0  0.8113244697207025  0.8577775781071537  0.9997242846116804  1.0000
  H   H1        1.0  0.5701706540186251  0.4930115434574133  0.6494337855437636  1.0000
  H   H2        1.0  0.42982832432386436  0.0069869336134047  0.14943182750803174  1.0000
  H   H3        1.0  0.4298284245778277  0.5069863143842639  0.35056894535628663  1.0000
  H   H4        1.0  0.5701715146584619  0.9930136793688931  0.8505672384572665  1.0000
  H   H5        1.0  0.5536204193906754  0.5868137761570794  0.743560763859577  1.0000
  H   H6        1.0  0.44638028006625763  0.9131879667039016  0.2435600547561307  1.0000
  H   H7        1.0  0.4463794195913736  0.41318683682474955  0.25643934922959494  1.0000
  H   H8        1.0  0.5536207972569617  0.08681264641567311  0.7564384876470174  1.0000
  H   H9        1.0  0.6181794385643755  0.6716093456726924  0.8333390259017719  1.0000
  H   H10       1.0  0.3818204532541998  0.8283895615083595  0.3333394526978211  1.0000
  H   H11       1.0  0.3818216387585667  0.3283912674464133  0.1666605636252427  1.0000
  H   H12       1.0  0.6181805110972577  0.1716088475546229  0.6666596132681377  1.0000
  H   H13       1.0  0.8782709272409478  0.6660150432582626  0.8768653035880831  1.0000
  H   H14       1.0  0.1217282660132497  0.8339827227803269  0.3768616295104509  1.0000
  H   H15       1.0  0.12172944618207282  0.33398391674864303  0.1231374273113133  1.0000
  H   H16       1.0  0.8782739084360572  0.1660151354056154  0.6231374364555081  1.0000
  H   H17       1.0  0.8935229099777829  0.5677098033564861  0.7870378178660503  1.0000
  H   H18       1.0  0.10647635879812613  0.9322885942803584  0.2870351198534706  1.0000
  H   H19       1.0  0.10647619686171343  0.43228860549952236  0.21296438947184274  1.0000
  H   H20       1.0  0.8935246337959627  0.06771036579624481  0.7129649932361418  1.0000
  H   H21       1.0  0.8305801076559121  0.48847466668591716  0.6920364995086814  1.0000
  H   H22       1.0  0.16941887650602183  0.0115243231794153  0.19203567715265282  1.0000
  H   H23       1.0  0.1694184082562558  0.5115242931158903  0.307965184267168  1.0000
  H   H24       1.0  0.830580934232984  0.9884757387880898  0.8079649594986693  1.0000
  H   H25       1.0  0.5783966301893742  0.4642184188444105  0.3262075988659491  1.0000
  H   H26       1.0  0.42160599837670537  0.035780451067296305  0.8262052529676823  1.0000
  H   H27       1.0  0.4216068955717632  0.535781643533994  0.673793561346649  1.0000
  H   H28       1.0  0.5783931367061115  0.964218508803505  0.1737953836841939  1.0000
  H   H29       1.0  0.5620265614529175  0.5526439930263152  0.22741195373379952  1.0000
  H   H30       1.0  0.43797459621683293  0.9473544583062222  0.7274103290901692  1.0000
  H   H31       1.0  0.43797505031127326  0.4473549671183364  0.772589206479566  1.0000
  H   H32       1.0  0.5620239196957401  0.052644501496288895  0.27258978399987654  1.0000
  H   H33       1.0  0.6227657397899408  0.6531507408480691  0.1512776215190428  1.0000
  H   H34       1.0  0.3772330942419588  0.8468499825673491  0.6512755729551927  1.0000
  H   H35       1.0  0.37723418392096875  0.34685152517626255  0.8487219680075312  1.0000
  H   H36       1.0  0.6227659843554604  0.1531478752759767  0.3487234930113062  1.0000
  H   H37       1.0  0.8718935277496058  0.7368845756938428  0.18560383608030412  1.0000
  H   H38       1.0  0.1281059356275946  0.763116668008287  0.6856056056644064  1.0000
  H   H39       1.0  0.1281063677188072  0.263117139317103  0.8143941827606866  1.0000
  H   H40       1.0  0.8718915678876159  0.23688669977013183  0.31439398386216777  1.0000
  H   H41       1.0  0.8878320628525104  0.6490876569639995  0.2850696403215666  1.0000
  H   H42       1.0  0.1121674046587771  0.8509145995356278  0.7850703001379246  1.0000
  H   H43       1.0  0.11216788910144261  0.3509151600746563  0.7149294256428504  1.0000
  H   H44       1.0  0.8878300141279923  0.1490871152009916  0.21492824226543664  1.0000
  H   H45       1.0  0.8273755325438118  0.5480916427736345  0.3610097311985784  1.0000
  H   H46       1.0  0.1726246271400882  0.951912749725217  0.8610092439673667  1.0000
  H   H47       1.0  0.1726276282336556  0.45191337866398823  0.6389893347644175  1.0000
  H   H48       1.0  0.827372706917956  0.0480873119691339  0.13898929843665542  1.0000
  H   H49       1.0  0.9471847347443757  0.3008265105340088  0.5818152461012502  1.0000
  H   H50       1.0  0.052814335673304  0.19917312922515862  0.0818148426061214  1.0000
  H   H51       1.0  0.052815047751998606  0.6991730004198686  0.41818434342642524  1.0000
  H   H52       1.0  0.9471854468233475  0.8008263817291948  0.9181836997976803  1.0000
  H   H53       1.0  0.10223376598307961  0.30811158816363354  0.5830091138742262  1.0000
  H   H54       1.0  0.8977659794623563  0.1918891526211155  0.0830089408198162  1.0000
  H   H55       1.0  0.8977660447560611  0.6918884738041059  0.416990999215166  1.0000
  H   H56       1.0  0.1022344786900717  0.808111460429231  0.9169911722692419  1.0000
  H   H57       1.0  0.22887752057240365  0.4360119962070995  0.4629238291285631  1.0000
  H   H58       1.0  0.7711220531549261  0.0639889547690231  0.9629229083849681  1.0000
  H   H59       1.0  0.7711234720214079  0.5639869638690341  0.5370773310849161  1.0000
  H   H60       1.0  0.2288783767547358  0.9360111072674687  0.03707668114237351  1.0000
  H   H61       1.0  0.21879132702692772  0.2839037199245239  0.5352351232006854  1.0000
  H   H62       1.0  0.7812071769794073  0.21609651256661522  0.0352365432224246  1.0000
  H   H63       1.0  0.7812084272264103  0.7160952400150293  0.4647649898891403  1.0000
  H   H64       1.0  0.21879198634618294  0.7839029983180411  0.9647646169911613  1.0000
  H   H65       1.0  0.3420889672860312  0.21700259369969646  0.5351246558469145  1.0000
  H   H66       1.0  0.6579095650214911  0.2829981899048732  0.03512554387730661  1.0000
  H   H67       1.0  0.6579108434529743  0.7829974682678015  0.4648759808044076  1.0000
  H   H68       1.0  0.3420902739608351  0.7170024230774247  0.9648735220879915  1.0000
  H   H69       1.0  0.49698421117103225  0.21564000764563926  0.5276795782692645  1.0000
  H   H70       1.0  0.5030143250550552  0.2843607826379113  0.027680520013056802  1.0000
  H   H71       1.0  0.5030155713252072  0.7843595033080036  0.4723205348203408  1.0000
  H   H72       1.0  0.4969854856842275  0.7156392793300554  0.9723190695143984  1.0000
  H   H73       1.0  0.5158914454151358  0.43653856196178253  0.4753170127498977  1.0000
  H   H74       1.0  0.484108740959485  0.0634623779646049  0.9753167174697099  1.0000
  H   H75       1.0  0.4841083653235927  0.5634615000052464  0.524684671025291  1.0000
  H   H76       1.0  0.5158910697796628  0.9365376840031345  0.024683395619675304  1.0000
  H   H77       1.0  0.36341319622118123  0.4490825304198509  0.48178826035255184  1.0000
  H   H78       1.0  0.6365869867472895  0.0509184037009476  0.9817884444713274  1.0000
  H   H79       1.0  0.6365865862749233  0.5509169805335645  0.5182123762989904  1.0000
  H   H80       1.0  0.3634128522350366  0.9490822092813502  0.0182106214939708  1.0000
  H   H81       1.0  0.0934516440396962  0.46353270252736684  0.41203100444379714  1.0000
  H   H82       1.0  0.9065480129601087  0.036469396133341506  0.9120295336521806  1.0000
  H   H83       1.0  0.9065518817214411  0.5364673598510379  0.5879701557688009  1.0000
  H   H84       1.0  0.09345179777903921  0.963530665834398  0.08797057943720432  1.0000
  H   H85       1.0  0.9375674362847378  0.44903755065440265  0.41830941556371226  1.0000
  H   H86       1.0  0.0624321609245158  0.0509634403453774  0.9183087555525448  1.0000
  H   H87       1.0  0.06243611771958512  0.5509630627385605  0.581690697524799  1.0000
  H   H88       1.0  0.9375670024016215  0.9490360705402169  0.0816903104133004  1.0000
  C   C1        1.0  0.7121958492588051  0.43539208554783226  0.604474472323993  1.0000
  C   C2        1.0  0.2878075434251032  0.06460753436306992  0.10447461394625182  1.0000
  C   C3        1.0  0.28780947752779446  0.5646068750081951  0.3955261643267818  1.0000
  C   C4        1.0  0.7121916481435235  0.9353925275359101  0.8955260227051839  1.0000
  C   C5        1.0  0.7023081996108047  0.4872477081639344  0.6646144427382339  1.0000
  C   C6        1.0  0.2976901515710964  0.0127507552194785  0.16461305050767552  1.0000
  C   C7        1.0  0.2976890497176968  0.512750700486734  0.33538724103805617  1.0000
  C   C8        1.0  0.702309687411095  0.9872498577625849  0.8353865390195596  1.0000
  C   C9        1.0  0.623039318632614  0.5140158574605208  0.680050099323296  1.0000
  C   C10       1.0  0.37695817718573466  0.9859831869633169  0.18004883459214233  1.0000
  C   C11       1.0  0.376958521623358  0.485982000244583  0.3199515844531078  1.0000
  C   C12       1.0  0.6230423092100141  0.014017977101822498  0.8199497078108922  1.0000
  C   C13       1.0  0.614261198323355  0.565412063354728  0.7320926608275826  1.0000
  C   C14       1.0  0.3857375366865767  0.9345874855319353  0.2320930036485294  1.0000
  C   C15       1.0  0.38573669841898106  0.43458689637949294  0.26790692870063293  1.0000
  C   C16       1.0  0.6142629214662634  0.0654131275191219  0.767905538754718  1.0000
  C   C17       1.0  0.6839986389086405  0.5926292359297561  0.7713158038642691  1.0000
  C   C18       1.0  0.31600190472511974  0.9073697269611215  0.27131619251201045  1.0000
  C   C19       1.0  0.3160024384140314  0.4073713771888805  0.22868483278661236  1.0000
  C   C20       1.0  0.6839990878691041  0.09262923311571572  0.7286833970156652  1.0000
  C   C21       1.0  0.6778050774894595  0.6481114744456562  0.8227033873415907  1.0000
  C   C22       1.0  0.3221935815865109  0.8518874421400965  0.3227027698241614  1.0000
  C   C23       1.0  0.322194170565119  0.3518896894817444  0.17729672574746766  1.0000
  C   C24       1.0  0.6778086493488829  0.14811151807449366  0.6772952490174902  1.0000
  C   C25       1.0  0.7468925897095033  0.6747164031244138  0.8592254747066902  1.0000
  C   C26       1.0  0.2531041079040079  0.8252808274495963  0.35922437874923935  1.0000
  C   C27       1.0  0.25310657361622196  0.32528310776047686  0.1407751619449584  1.0000
  C   C28       1.0  0.7468968282046832  0.17471703059953114  0.6407741636549957  1.0000
  C   C29       1.0  0.8252308913760444  0.6448443048355728  0.8465678391222015  1.0000
  C   C30       1.0  0.17476705124074238  0.8551529372314024  0.3465651769487224  1.0000
  C   C31       1.0  0.17476759629307284  0.35515410395191094  0.1534343682158053  1.0000
  C   C32       1.0  0.8252351514514731  0.14484547196862965  0.6534338890170163  1.0000
  C   C33       1.0  0.8333000541704295  0.5905849663677358  0.7970786904153828  1.0000
  C   C34       1.0  0.16669856190695498  0.9094128711780911  0.2970775595833004  1.0000
  C   C35       1.0  0.16669905266920892  0.40941344248850703  0.20292299336057343  1.0000
  C   C36       1.0  0.8333030216144693  0.09058553795271251  0.7029230770683556  1.0000
  C   C37       1.0  0.7637565400568748  0.5637568291719504  0.7574607814938688  1.0000
  C   C38       1.0  0.23624460179696882  0.9362415952032282  0.2574601287672849  1.0000
  C   C39       1.0  0.2362438333665651  0.43624213083566593  0.24254037871972403  1.0000
  C   C40       1.0  0.763757009967634  0.0637573649421341  0.742539460760277  1.0000
  C   C41       1.0  0.770625497719756  0.5109057438238125  0.7036888958203349  1.0000
  C   C42       1.0  0.22937510975179984  0.9890938307507187  0.2036866337343213  1.0000
  C   C43       1.0  0.22937487570339948  0.4890932161833276  0.2963133115171246  1.0000
  C   C44       1.0  0.770625939328099  0.010906231354063302  0.7963134793548434  1.0000
  C   C45       1.0  0.7387248854486259  0.736149341462664  0.9108648895100444  1.0000
  C   C46       1.0  0.2612761191780493  0.7638478432650615  0.41086383843996543  1.0000
  C   C47       1.0  0.2612761353882362  0.2638501696277942  0.0891357471412775  1.0000
  C   C48       1.0  0.7387328661454121  0.23615001567463167  0.5891352275247854  1.0000
  C   C49       1.0  0.7124839337179055  0.447981704304411  0.4074518283549012  1.0000
  C   C50       1.0  0.28752020109946136  0.052023154014783295  0.9074495172418722  1.0000
  C   C51       1.0  0.28752479959241134  0.552023317748983  0.5925493318548547  1.0000
  C   C52       1.0  0.712477723885641  0.9479763567332924  0.09255059584806703  1.0000
  C   C53       1.0  0.7041367809317337  0.5020234110609465  0.34906627603199786  1.0000
  C   C54       1.0  0.29586338503896314  0.9979809921534013  0.8490636151469104  1.0000
  C   C55       1.0  0.2958650567757033  0.4979799571964279  0.6509348841796125  1.0000
  C   C56       1.0  0.7041352438449664  0.0020201717049985997  0.15093754506612814  1.0000
  C   C57       1.0  0.6285470721752662  0.5031595124240482  0.31114574510007753  1.0000
  C   C58       1.0  0.37145421088030883  0.9968421698753432  0.8111435819317736  1.0000
  C   C59       1.0  0.37145718572787706  0.4968427540792391  0.688855415111533  1.0000
  C   C60       1.0  0.6285442767890858  0.0031562389126094004  0.18885757828236654  1.0000
  C   C61       1.0  0.6200373346103519  0.5517340686358736  0.25669947493354783  1.0000
  C   C62       1.0  0.3799614156915112  0.948266009190647  0.756698393657395  1.0000
  C   C63       1.0  0.37996374271259015  0.448266544483232  0.7433001145934668  1.0000
  C   C64       1.0  0.6200370719778834  0.05173239959730581  0.24330276655673802  1.0000
  C   C65       1.0  0.6865629059309768  0.601583687362556  0.23737739056256402  1.0000
  C   C66       1.0  0.313435263613222  0.8984169587434252  0.7373763715786483  1.0000
  C   C67       1.0  0.3134369612941157  0.39841747663359683  0.7626221989644436  1.0000
  C   C68       1.0  0.6865638997127732  0.10158255214193451  0.2626232179491339  1.0000
  C   C69       1.0  0.6800922121317471  0.6517431775035405  0.1812850406944122  1.0000
  C   C70       1.0  0.31990657786296595  0.8482569679772994  0.6812845819933742  1.0000
  C   C71       1.0  0.3199069794372918  0.3482568843961502  0.8187140252712126  1.0000
  C   C72       1.0  0.6800919098072598  0.15174144081206722  0.3187134368491513  1.0000
  C   C73       1.0  0.745808433842278  0.6995010684782912  0.16321793523898262  1.0000
  C   C74       1.0  0.2541897464911926  0.8004990931418305  0.6632180604793946  1.0000
  C   C75       1.0  0.25419137689713983  0.30049899348991727  0.8367811307265356  1.0000
  C   C76       1.0  0.7458070531250556  0.19950262152602957  0.3367810054860102  1.0000
  C   C77       1.0  0.8213003180162772  0.6987032769587388  0.2012772099695184  1.0000
  C   C78       1.0  0.1786971948718232  0.8012962994351652  0.7012784084086761  1.0000
  C   C79       1.0  0.17869887355289651  0.30129678494117945  0.7987213324341698  1.0000
  C   C80       1.0  0.8212989855741883  0.19870541516441154  0.2987201339949053  1.0000
  C   C81       1.0  0.8295841973568587  0.6504334046372621  0.256118769318718  1.0000
  C   C82       1.0  0.170415791591367  0.8495666738471854  0.756117838899364  1.0000
  C   C83       1.0  0.1704162607957116  0.34956720841331906  0.7438808202084106  1.0000
  C   C84       1.0  0.8295815707097276  0.15043393886148954  0.2438801799425008  1.0000
  C   C85       1.0  0.7630885047324653  0.6006835220570464  0.27576336779781496  1.0000
  C   C86       1.0  0.2369109111916288  0.8993176407638331  0.7757623751739261  1.0000
  C   C87       1.0  0.23691200990591454  0.39931819302171323  0.724236221728866  1.0000
  C   C88       1.0  0.7630876894498047  0.10068297208118081  0.22423721435352925  1.0000
  C   C89       1.0  0.7697821173161615  0.5499928822099419  0.3314253499222204  1.0000
  C   C90       1.0  0.23021985896482286  0.9500104350075202  0.8314227495561257  1.0000
  C   C91       1.0  0.23022160614545584  0.4500110372673305  0.6685752867269131  1.0000
  C   C92       1.0  0.7697781225062315  0.04999017776896861  0.1685768399714362  1.0000
  C   C93       1.0  0.7370378513518718  0.7518048405190997  0.10321562441032482  1.0000
  C   C94       1.0  0.2629622745598041  0.7481964771633116  0.6032152636631951  1.0000
  C   C95       1.0  0.26296136846021073  0.248195772394908  0.8967829179931501  1.0000
  C   C96       1.0  0.7370383530504726  0.25180744197228216  0.3967832787387451  1.0000
  C   C97       1.0  0.9828008722301647  0.3355882402266205  0.5450486129376132  1.0000
  C   C98       1.0  0.017198274024622203  0.16441253454397753  0.045048772632483705  1.0000
  C   C99       1.0  0.01719955767963199  0.6644118218101128  0.45495045302779163  1.0000
  C   C100      1.0  0.9828021841279408  0.8355880785066035  0.9549508168946375  1.0000
  C   C101      1.0  0.06860906877341222  0.33943010246385813  0.5445398708779194  1.0000
  C   C102      1.0  0.9313912878470845  0.16057012188623077  0.044539710289825514  1.0000
  C   C103      1.0  0.9313925429909206  0.6605688576810351  0.45546076577351613  1.0000
  C   C104      1.0  0.06861040864623649  0.8394304913013997  0.9554598792370826  1.0000
  C   C105      1.0  0.11126088258873071  0.38430421871886733  0.4949920385719012  1.0000
  C   C106      1.0  0.8887386742596918  0.11569670348806944  0.9949926067101841  1.0000
  C   C107      1.0  0.8887407856615469  0.6156958434544392  0.5050080745171571  1.0000
  C   C108      1.0  0.1112611082366826  0.8843028074658154  0.0050069828174841  1.0000
  C   C109      1.0  0.20126105288741064  0.38767314426405625  0.48940980399434153  1.0000
  C   C110      1.0  0.7987372685584903  0.11232778281389955  0.989409883016215  1.0000
  C   C111      1.0  0.7987387296084096  0.6123263666888834  0.5105918797810745  1.0000
  C   C112      1.0  0.2012613320826659  0.8876728300306526  0.0105907536351069  1.0000
  C   C113      1.0  0.24888321741806863  0.3335470870290536  0.5126334533884745  1.0000
  C   C114      1.0  0.7511165650681592  0.1664537168897198  0.012633875534398004  1.0000
  C   C115      1.0  0.7511171277624555  0.6664513219644663  0.48736770682533154  1.0000
  C   C116      1.0  0.24888383659845206  0.8335457941324479  0.9873662375551006  1.0000
  C   C117      1.0  0.33871762101279046  0.33300546883657484  0.5083465125889433  1.0000
  C   C118      1.0  0.6612821919725533  0.16699588994186604  0.0083474896420341  1.0000
  C   C119      1.0  0.6612828088964592  0.6669945931992133  0.491654647624209  1.0000
  C   C120      1.0  0.33871761876672934  0.8330041720261009  0.9916520998854138  1.0000
  C   C121      1.0  0.37841716105818085  0.26708194549376435  0.5217439575682832  1.0000
  C   C122      1.0  0.6215820257054362  0.2329194011975062  0.021744373829207603  1.0000
  C   C123      1.0  0.6215826496806898  0.7329181164734989  0.4782572026449757  1.0000
  C   C124      1.0  0.3784171658636098  0.7670806607021774  0.9782546921364175  1.0000
  C   C125      1.0  0.46410910181933224  0.26566596543017335  0.5175486411798502  1.0000
  C   C126      1.0  0.5358918881775879  0.23433428320187502  0.017549610203460003  1.0000
  C   C127      1.0  0.5358919190175229  0.7343335456602843  0.48245199547147893  1.0000
  C   C128      1.0  0.464107922561695  0.7656657787660993  0.9824499793239952  1.0000
  C   C129      1.0  0.4743052180238578  0.3896952667734155  0.488467867010229  1.0000
  C   C130      1.0  0.5256943422585465  0.11030566128655292  0.9884680441566475  1.0000
  C   C131      1.0  0.5256945927151477  0.6103047951940825  0.5115327696411003  1.0000
  C   C132      1.0  0.4743048775534008  0.8896949516272201  0.0115310218087572  1.0000
  C   C133      1.0  0.3892717188963744  0.39571887382248866  0.4916919741004619  1.0000
  C   C134      1.0  0.6107272205185694  0.10428205127637821  0.9916926494244721  1.0000
  C   C135      1.0  0.6107280918427661  0.6042811881452508  0.5083081389889302  1.0000
  C   C136      1.0  0.3892725902208483  0.89571801069183  0.008306416541046201  1.0000
  C   C137      1.0  0.06325616676706149  0.4260622514128372  0.44971072971758747  1.0000
  C   C138      1.0  0.936744033085006  0.0739387114851269  0.9497102662319251  1.0000
  C   C139      1.0  0.9367473307513025  0.5739372599517125  0.5502899069332942  1.0000
  C   C140      1.0  0.0632558058970432  0.9260619014966948  0.050289846857239716  1.0000
  C   C141      1.0  0.977355847483864  0.41873192728125025  0.45308702187008276  1.0000
  C   C142      1.0  0.022642493079935405  0.0812690323821244  0.9530868759221605  1.0000
  C   C143      1.0  0.022643963255418998  0.5812681346867238  0.5469125676573725  1.0000
  C   C144      1.0  0.9773566984889683  0.9187310295173247  0.0469127136054013  1.0000
  N   N1        1.0  0.9376518872753082  0.3739181988422687  0.49954531465080276  1.0000
  N   N2        1.0  0.062347667176645416  0.12608271928001358  0.9995456433731675  1.0000
  N   N3        1.0  0.06235045663184742  0.6260829654289142  0.5004521806280309  1.0000
  N   N4        1.0  0.9376509052220214  0.8739173425511522  0.000453422592571  1.0000
  N   N5        1.0  0.5114343302165807  0.32597715621466966  0.5010600733298602  1.0000
  N   N6        1.0  0.4885647827051471  0.17402255599036212  0.0010595353070073  1.0000
  N   N7        1.0  0.48856545227938153  0.6740223547385115  0.49894108688361183  1.0000
  N   N8        1.0  0.5114350280341358  0.825977505977612  0.998940054220448  1.0000
  O   O1        1.0  0.6470967504638026  0.41741918424231284  0.5696701876071019  1.0000
  O   O2        1.0  0.35290117273389404  0.0825821193169958  0.06967081579416862  1.0000
  O   O3        1.0  0.3529005835941064  0.5825808774518038  0.43032887835885003  1.0000
  O   O4        1.0  0.6470980470779112  0.9174184935965428  0.930328773733173  1.0000
  O   O5        1.0  0.7850596559848881  0.4148490993642114  0.5911074076573897  1.0000
  O   O6        1.0  0.21494002871254034  0.0851505321276704  0.0911065119458101  1.0000
  O   O7        1.0  0.21493829724298763  0.5851509623977265  0.4088932289942663  1.0000
  O   O8        1.0  0.7850591910991298  0.9148500807856333  0.9088936011434683  1.0000
  O   O9        1.0  0.8048237052322733  0.761413883812054  0.9404979499791821  1.0000
  O   O10       1.0  0.195174272674393  0.7385849270313614  0.440496941930661  1.0000
  O   O11       1.0  0.19517672467711122  0.23858617822396871  0.05950268667203321  1.0000
  O   O12       1.0  0.8048298157719955  0.26141403338856145  0.5595016004725863  1.0000
  O   O13       1.0  0.6661708345132312  0.7590512414734434  0.9206424125757239  1.0000
  O   O14       1.0  0.33382529633264113  0.7409475869764393  0.4206424007844164  1.0000
  O   O15       1.0  0.33383024280944085  0.24094937164519342  0.07935822407515761  1.0000
  O   O16       1.0  0.6661751335774326  0.2590524750607557  0.5793556180571215  1.0000
  O   O17       1.0  0.7812383287760696  0.4483491085755987  0.440560825724667  1.0000
  O   O18       1.0  0.2187637898888894  0.051652964764642206  0.9405601098971134  1.0000
  O   O19       1.0  0.2187640433734401  0.5516526067087285  0.5594387638016869  1.0000
  O   O20       1.0  0.7812360490930175  0.9483476482169448  0.059440526753988414  1.0000
  O   O21       1.0  0.6495020311618732  0.4052746849978775  0.41979221091378355  1.0000
  O   O22       1.0  0.3504957077568065  0.09472630446781238  0.919787750071187  1.0000
  O   O23       1.0  0.35049716040607143  0.5947253768999234  0.5802110435473224  1.0000
  O   O24       1.0  0.649502836398817  0.9052732063490225  0.08021183945670882  1.0000
  O   O25       1.0  0.6680845979745911  0.7491281270334867  0.0706794047309813  1.0000
  O   O26       1.0  0.3319130118944784  0.7508721175348047  0.570679541082157  1.0000
  O   O27       1.0  0.3319164511055845  0.2508719350717641  0.9293196612343168  1.0000
  O   O28       1.0  0.668078130459513  0.24912794347384454  0.42932004844683297  1.0000
  O   O29       1.0  0.7993087034209623  0.7950385482727427  0.08941136260106221  1.0000
  O   O30       1.0  0.20068886834594934  0.70496112847691  0.5894115810595937  1.0000
  O   O31       1.0  0.20069172648869238  0.20496151376375596  0.9105882269262793  1.0000
  O   O32       1.0  0.7993040750335042  0.2950378307093686  0.41058748490756614  1.0000
