data_image0
_chemical_formula_structural       Gd4H16C20O32
_chemical_formula_sum              "Gd4 H16 C20 O32"
_cell_length_a       9.641665214847816
_cell_length_b       9.716443839000691
_cell_length_c       9.911535738714552
_cell_angle_alpha    89.9999835478606
_cell_angle_beta     119.90299043087131
_cell_angle_gamma    90.00004278178193

_space_group_name_H-M_alt    "P 1"
_space_group_IT_number       1

loop_
  _space_group_symop_operation_xyz
  'x, y, z'

loop_
  _atom_site_type_symbol
  _atom_site_label
  _atom_site_symmetry_multiplicity
  _atom_site_fract_x
  _atom_site_fract_y
  _atom_site_fract_z
  _atom_site_occupancy
  Gd  Gd1       1.0  0.2713218080102564  0.44040804963790936  0.6345192926677043  1.0000
  Gd  Gd2       1.0  0.7286785215141905  0.9404079876709728  0.865479936593076  1.0000
  Gd  Gd3       1.0  0.728678426714268  0.5595928091126297  0.36548034031067544  1.0000
  Gd  Gd4       1.0  0.2713217132099146  0.05959184189644159  0.1345196963852473  1.0000
  H   H1        1.0  0.5246997393493374  0.3719427176871192  0.963086951508565  1.0000
  H   H2        1.0  0.4753005347458128  0.8719435928569151  0.5369122703334669  1.0000
  H   H3        1.0  0.47530049537435565  0.6280560826971706  0.03691268146970824  1.0000
  H   H4        1.0  0.5246996999787187  0.12805726589361646  0.46308736264491307  1.0000
  H   H5        1.0  0.548675090053642  0.26616124215637166  0.858275417444787  1.0000
  H   H6        1.0  0.45132391285635265  0.766161040018133  0.6417242360317489  1.0000
  H   H7        1.0  0.4513239591266681  0.7338385874105383  0.1417246586304443  1.0000
  H   H8        1.0  0.5486751254695864  0.233838789548919  0.3582748258956914  1.0000
  H   H9        1.0  0.2558077888406345  0.17921477186477114  0.4633913155925812  1.0000
  H   H10       1.0  0.7441912515319942  0.6792148167485619  0.036608163014576985  1.0000
  H   H11       1.0  0.7441912494853044  0.8207850577022879  0.536607746334859  1.0000
  H   H12       1.0  0.255808983192118  0.32078501281885247  0.9633914699637458  1.0000
  H   H13       1.0  0.341831248572106  0.12800982962842505  0.6440264787197307  1.0000
  H   H14       1.0  0.6581676424902411  0.6280097182859875  0.855973159786906  1.0000
  H   H15       1.0  0.6581666042100309  0.8719899999381296  0.3559730263046107  1.0000
  H   H16       1.0  0.34183139583569755  0.3719901112810717  0.1440259021405269  1.0000
  C   C1        1.0  0.16882010426998312  0.7394639567294162  0.4257457189192238  1.0000
  C   C2        1.0  0.8311789848802819  0.23946342093105236  0.07425376621642953  1.0000
  C   C3        1.0  0.8311825232513073  0.2605379312049578  0.574255056160986  1.0000
  C   C4        1.0  0.16882005344565704  0.7605364086360067  0.9257452957110105  1.0000
  C   C5        1.0  0.2040870266430304  0.8458856335033431  0.3413260461712825  1.0000
  C   C6        1.0  0.7959097558700919  0.34588504714544394  0.15867230839430146  1.0000
  C   C7        1.0  0.7959131972271294  0.154115225247331  0.658672572659313  1.0000
  C   C8        1.0  0.2040880860576735  0.6541147824212528  0.8413261824822555  1.0000
  C   C9        1.0  0.4303677197941269  0.48114835376428994  0.41753216031273876  1.0000
  C   C10       1.0  0.5696327722774797  0.9811492854677297  0.0824689362102545  1.0000
  C   C11       1.0  0.5696325366387215  0.5188514758028404  0.5824695009611603  1.0000
  C   C12       1.0  0.4303674624470446  0.018851573282802295  0.9175306967681254  1.0000
  C   C13       1.0  0.0426418556151162  0.8365334057856871  0.2103658827261228  1.0000
  C   C14       1.0  0.9573585085209616  0.33653290081422677  0.2896341839787268  1.0000
  C   C15       1.0  0.9573595863623652  0.16346848214818976  0.7896353354509885  1.0000
  C   C16       1.0  0.0426417153483598  0.6634658995702123  0.7103644348517548  1.0000
  C   C17       1.0  0.0019736780478254003  0.7302784552254307  0.29102901768258965  1.0000
  C   C18       1.0  0.9980253928115059  0.23027800371658452  0.20896945230994368  1.0000
  C   C19       1.0  0.9980301458712195  0.26972240352618826  0.7089723284484467  1.0000
  C   C20       1.0  0.0019736455140205015  0.7697207966673503  0.7910296096174394  1.0000
  O   O1        1.0  0.2515517256582173  0.6804382581314738  0.5553813813238336  1.0000
  O   O2        1.0  0.7484471969956986  0.18043755374981874  0.9446172487160637  1.0000
  O   O3        1.0  0.7484497054644806  0.3195626006194273  0.4446188227054293  1.0000
  O   O4        1.0  0.2515530377284136  0.8195622758176025  0.0553823842622592  1.0000
  O   O5        1.0  0.32304521859525454  0.9182557733334844  0.3612108863761635  1.0000
  O   O6        1.0  0.6769552117033655  0.4182551047902122  0.1387891891840027  1.0000
  O   O7        1.0  0.676958605323783  0.0817450854181345  0.6387904597548726  1.0000
  O   O8        1.0  0.3230450230207468  0.5817447247772021  0.8612104437943202  1.0000
  O   O9        1.0  0.2982231275988809  0.4494896046891411  0.4052811141418006  1.0000
  O   O10       1.0  0.701777317132624  0.9494896013597508  0.09471795065506677  1.0000
  O   O11       1.0  0.7017783035238241  0.550511254061753  0.5947190898874626  1.0000
  O   O12       1.0  0.29822290673753576  0.05051125739093009  0.9052806681755287  1.0000
  O   O13       1.0  0.46211103236708334  0.48592584956910645  0.3070590575652048  1.0000
  O   O14       1.0  0.5378894527180051  0.9859267257629653  0.19294102532767718  1.0000
  O   O15       1.0  0.5378916060073208  0.514072950815759  0.6929427316626189  1.0000
  O   O16       1.0  0.4621095856083528  0.014074132987211397  0.8070580365998197  1.0000
  O   O17       1.0  0.2977143252791238  0.20792486387572495  0.5726115516978895  1.0000
  O   O18       1.0  0.7022846196286636  0.7079257936230616  0.9273870813205038  1.0000
  O   O19       1.0  0.702284713046815  0.7920749656913343  0.4273875102295505  1.0000
  O   O20       1.0  0.2977144186972751  0.2920740359439974  0.07261198060693634  1.0000
  O   O21       1.0  0.9789228711435812  0.8977897208028407  0.08153203452262413  1.0000
  O   O22       1.0  0.0210763461872858  0.3977884862126047  0.4184674677689486  1.0000
  O   O23       1.0  0.0210773635809431  0.10221113794769107  0.9184675984557559  1.0000
  O   O24       1.0  0.9789226921386601  0.6022113433544545  0.5815315941584914  1.0000
  O   O25       1.0  0.4653090373997202  0.32372856887793927  0.8607577884641914  1.0000
  O   O26       1.0  0.5346900012629876  0.8237294582808871  0.6392408571025288  1.0000
  O   O27       1.0  0.5346900009258063  0.6762702315059952  0.13924127346319182  1.0000
  O   O28       1.0  0.4653090370633706  0.17627140046928952  0.36075820482496107  1.0000
  O   O29       1.0  0.877700620013421  0.6610178479219968  0.25322206254143237  1.0000
  O   O30       1.0  0.1222995911702753  0.161016737966591  0.2467769709969687  1.0000
  O   O31       1.0  0.1223032039056235  0.338983010829615  0.7467792835896034  1.0000
  O   O32       1.0  0.8776994471556634  0.8389830916004607  0.7532220909304712  1.0000
