data_image0
_chemical_formula_structural       Cu4H40C28N32
_chemical_formula_sum              "Cu4 H40 C28 N32"
_cell_length_a       7.472472927444381
_cell_length_b       7.459010855628592
_cell_length_c       20.747
_cell_angle_alpha    84.45027384540059
_cell_angle_beta     84.46030328316573
_cell_angle_gamma    67.99852618937071

_space_group_name_H-M_alt    "P 1"
_space_group_IT_number       1

loop_
  _space_group_symop_operation_xyz
  'x, y, z'

loop_
  _atom_site_type_symbol
  _atom_site_label
  _atom_site_symmetry_multiplicity
  _atom_site_fract_x
  _atom_site_fract_y
  _atom_site_fract_z
  _atom_site_occupancy
  Cu  Cu1       1.0  0.8259526181439584  0.5549534614034499  0.681638904529322  1.0000
  Cu  Cu2       1.0  0.5549545524760618  0.8255368913179097  0.1815511376626802  1.0000
  Cu  Cu3       1.0  0.17405979470062502  0.4450330638382241  0.3183618071889994  1.0000
  Cu  Cu4       1.0  0.4450377147493613  0.174456879352384  0.8184442386170474  1.0000
  H   H1        1.0  0.48235888117589804  0.8072523276572667  0.6754040891511295  1.0000
  H   H2        1.0  0.8077334119506788  0.4817181180173974  0.1755730381860161  1.0000
  H   H3        1.0  0.5176476424601546  0.19274289209874948  0.3246037549897167  1.0000
  H   H4        1.0  0.19223333155722602  0.5182828980815088  0.8244215276242458  1.0000
  H   H5        1.0  0.6054963047356667  0.8948886849646556  0.7159105068009736  1.0000
  H   H6        1.0  0.894322656113502  0.6060554694469218  0.2159637651757862  1.0000
  H   H7        1.0  0.3945187971581064  0.10509784027701839  0.2840958953898464  1.0000
  H   H8        1.0  0.10565317676228861  0.3939281576233071  0.7840359091815828  1.0000
  H   H9        1.0  0.9894895131123819  0.5924152255304804  0.5708950865928628  1.0000
  H   H10       1.0  0.592344451955043  0.9896415022607457  0.0708228551616514  1.0000
  H   H11       1.0  0.010522433121487  0.4075944850827682  0.4291072451977627  1.0000
  H   H12       1.0  0.40765643802755147  0.0103580647524382  0.9291753937583067  1.0000
  H   H13       1.0  0.8304508311517723  0.4935600465508259  0.5598912691609499  1.0000
  H   H14       1.0  0.49387640593452187  0.8301261458046199  0.05981395706765369  1.0000
  H   H15       1.0  0.16956915997992178  0.5064424186338101  0.44010958884052087  1.0000
  H   H16       1.0  0.5061188503946285  0.16987776846573868  0.9401819265923804  1.0000
  H   H17       1.0  0.5251119050029092  0.0561390300187767  0.6038289867457749  1.0000
  H   H18       1.0  0.05558573210846161  0.5249153634385237  0.1039138617977713  1.0000
  H   H19       1.0  0.4748873626502857  0.9438576388229619  0.3961780953018419  1.0000
  H   H20       1.0  0.9444022237383862  0.4750755090603249  0.8960875491215035  1.0000
  H   H21       1.0  0.7708643571315648  0.973391454956065  0.6225664971274938  1.0000
  H   H22       1.0  0.9726946244359457  0.7711729913105714  0.12253854265389208  1.0000
  H   H23       1.0  0.22913143255747315  0.0266110102285637  0.37744098630918904  1.0000
  H   H24       1.0  0.02729655381997278  0.2288164321025548  0.8774637706030219  1.0000
  H   H25       1.0  0.5791026440444329  0.7630668057726382  0.5496845486103439  1.0000
  H   H26       1.0  0.7631764277097802  0.578486613555043  0.04971083201808571  1.0000
  H   H27       1.0  0.42090496856112475  0.23693276124055268  0.4503197325350996  1.0000
  H   H28       1.0  0.23681910642417137  0.42152019888676046  0.9502830132259845  1.0000
  H   H29       1.0  0.6875973934377484  0.023025972148325  0.4857404034437565  1.0000
  H   H30       1.0  0.022352316623027866  0.6876158103151724  0.9857752355467326  1.0000
  H   H31       1.0  0.3124019187148975  0.9769851875506461  0.514266655217547  1.0000
  H   H32       1.0  0.977648851164382  0.3123866548694635  0.014226276928638997  1.0000
  H   H33       1.0  0.8075634093561634  0.7852059374581088  0.4585878965402586  1.0000
  H   H34       1.0  0.7849139838915421  0.8074146252583176  0.9586017746739728  1.0000
  H   H35       1.0  0.19244612563333163  0.2148066713265919  0.5414158643124622  1.0000
  H   H36       1.0  0.21509796234232692  0.1925950853549381  0.041398147129669396  1.0000
  H   H37       1.0  0.9261864017059976  0.8833322263187853  0.5076733629693564  1.0000
  H   H38       1.0  0.8825484010173881  0.9265541061972087  0.007660357333627098  1.0000
  H   H39       1.0  0.07381775518512508  0.1166803824659155  0.4923329948628847  1.0000
  H   H40       1.0  0.11746296735714172  0.07344256264453008  0.9923414840068007  1.0000
  C   C1        1.0  0.6520531701128861  0.9259788191649321  0.615437605450353  1.0000
  C   C2        1.0  0.9255510725731285  0.6520117740858211  0.11546162915408328  1.0000
  C   C3        1.0  0.34795066447398443  0.0740164005910842  0.38457081418415834  1.0000
  C   C4        1.0  0.0744449504212668  0.3479790984130275  0.8845385372815855  1.0000
  C   C5        1.0  0.7076055377333148  0.7908110010370706  0.560184375689289  1.0000
  C   C6        1.0  0.7906017392969745  0.7073740941567337  0.06020018068788599  1.0000
  C   C7        1.0  0.2924012859572755  0.2091943623190105  0.4398206953463486  1.0000
  C   C8        1.0  0.20939377258725503  0.2926254728564501  0.9397968092324263  1.0000
  C   C9        1.0  0.7862139081835906  0.8757288735269526  0.4993774656032599  1.0000
  C   C10       1.0  0.8752367025998781  0.7862159502074704  0.9993863130706231  1.0000
  C   C11       1.0  0.213788881933219  0.1242764898291284  0.5006291916689775  1.0000
  C   C12       1.0  0.1247665986271045  0.2137807186342684  0.0006158087586171988  1.0000
  C   C13       1.0  0.6480238651137425  0.5235995936014746  0.8223502214810878  1.0000
  C   C14       1.0  0.5241957416651958  0.6472993473126039  0.32231708900588524  1.0000
  C   C15       1.0  0.3519826807720322  0.4764028715831614  0.1776515859991434  1.0000
  C   C16       1.0  0.4758025037676675  0.3527147105578194  0.6776802660292347  1.0000
  C   C17       1.0  0.49715192203158404  0.6359863350683028  0.9208585170451115  1.0000
  C   C18       1.0  0.6365860189058524  0.4965495103986513  0.4208653598521225  1.0000
  C   C19       1.0  0.5028549016589993  0.3640190282877782  0.0791388420321724  1.0000
  C   C20       1.0  0.36342114933871267  0.503480487414727  0.5791277567414497  1.0000
  C   C21       1.0  0.07834550939089269  0.1215623522687892  0.6680650149288496  1.0000
  C   C22       1.0  0.12197688282907389  0.0770580315249632  0.1680409009616497  1.0000
  C   C23       1.0  0.9216691036424364  0.8784401129158468  0.3319254261224245  1.0000
  C   C24       1.0  0.8780011057360113  0.9229270446309883  0.8319538280863554  1.0000
  C   C25       1.0  0.09938925459721298  0.8079261525187533  0.6803562333134252  1.0000
  C   C26       1.0  0.8083699891008607  0.0989029988085406  0.18032686036475806  1.0000
  C   C27       1.0  0.9006223915821252  0.1920734144944305  0.3196397136318581  1.0000
  C   C28       1.0  0.1916093439888158  0.9010820773474107  0.8196697499246995  1.0000
  N   N1        1.0  0.6138282241213417  0.821212819518628  0.6757946528578598  1.0000
  N   N2        1.0  0.8210553718843345  0.6137269292677701  0.17583546097293376  1.0000
  N   N3        1.0  0.3861858110526414  0.1787766038944909  0.3242116856547241  1.0000
  N   N4        1.0  0.1789234500951693  0.3862668414025237  0.8241613467829437  1.0000
  N   N5        1.0  0.8494798609349844  0.5999446749504145  0.5831954506985468  1.0000
  N   N6        1.0  0.5999541654054216  0.8493511660998863  0.08314512964168587  1.0000
  N   N7        1.0  0.1505301851646763  0.4000592393199439  0.4168076306903501  1.0000
  N   N8        1.0  0.4000424354483201  0.1506527481704723  0.9168507072702141  1.0000
  N   N9        1.0  0.7427241453562416  0.5117895449539702  0.77290868623826  1.0000
  N   N10       1.0  0.5121344324607193  0.7422709765529589  0.2728816032662422  1.0000
  N   N11       1.0  0.25728560068888845  0.48820422571632344  0.22709620426105195  1.0000
  N   N12       1.0  0.4878417672187751  0.2577445304031869  0.7271159859025429  1.0000
  N   N13       1.0  0.5491058178697373  0.5126445055309077  0.8759829329643979  1.0000
  N   N14       1.0  0.5135848616348965  0.5480340770731615  0.3759393013742454  1.0000
  N   N15       1.0  0.45089641663745544  0.4873550614822832  0.1240152692074261  1.0000
  N   N16       1.0  0.4864236066348155  0.4519814298829843  0.6240547558522991  1.0000
  N   N17       1.0  0.4411407095813543  0.7386366695581187  0.9643909070872282  1.0000
  N   N18       1.0  0.7390488142190819  0.4407930390109129  0.46442192319071296  1.0000
  N   N19       1.0  0.5588561913269174  0.2613773883123045  0.0356089046830235  1.0000
  N   N20       1.0  0.26095726505597844  0.5592326115452977  0.5355790943748316  1.0000
  N   N21       1.0  0.014639835541807103  0.2880434637983669  0.6768649433920331  1.0000
  N   N22       1.0  0.28826735526391906  0.0136402439164414  0.1767280348036095  1.0000
  N   N23       1.0  0.9853806667000596  0.7119503068719268  0.3231294511768468  1.0000
  N   N24       1.0  0.7117251230171463  0.9863346886394451  0.8232665431331299  1.0000
  N   N25       1.0  0.16260780625910332  0.9416666212088458  0.6552032972261301  1.0000
  N   N26       1.0  0.9424321730499731  0.1613948206396643  0.15517354641567488  1.0000
  N   N27       1.0  0.8373952171630634  0.05832714946144079  0.3447854391023526  1.0000
  N   N28       1.0  0.057549849088886135  0.8385902555162801  0.8448248983671007  1.0000
  N   N29       1.0  0.05346948853170362  0.6769432939607043  0.7005283123365729  1.0000
  N   N30       1.0  0.6768628987795395  0.05399873040499159  0.20040811283051596  1.0000
  N   N31       1.0  0.9465373351588867  0.3230620693953767  0.2994757947042714  1.0000
  N   N32       1.0  0.32312181240850896  0.9459863457509599  0.7995897564585945  1.0000
