data_image0
_chemical_formula_structural       Zn4P4H64C40N4Cl8O12
_chemical_formula_sum              "Zn4 P4 H64 C40 N4 Cl8 O12"
_cell_length_a       7.746851703115104
_cell_length_b       7.823111681337488
_cell_length_c       27.94460324001542
_cell_angle_alpha    89.99990608951501
_cell_angle_beta     89.99997630986888
_cell_angle_gamma    117.35880884183489

_space_group_name_H-M_alt    "P 1"
_space_group_IT_number       1

loop_
  _space_group_symop_operation_xyz
  'x, y, z'

loop_
  _atom_site_type_symbol
  _atom_site_label
  _atom_site_symmetry_multiplicity
  _atom_site_fract_x
  _atom_site_fract_y
  _atom_site_fract_z
  _atom_site_occupancy
  Zn  Zn1       1.0  0.6134352545542113  0.9556792683641646  0.3004931872091845  1.0000
  Zn  Zn2       1.0  0.3865654430560069  0.0443214346884773  0.8004940668146929  1.0000
  Zn  Zn3       1.0  0.768493562978257  0.5493332807650902  0.5520835315447741  1.0000
  Zn  Zn4       1.0  0.23150582453533994  0.4506666078269107  0.0520818538429495  1.0000
  P   P1        1.0  0.6018224460197242  0.19371770548286096  0.20336512710071017  1.0000
  P   P2        1.0  0.3981748470353494  0.8062809345099426  0.7033667297947872  1.0000
  P   P3        1.0  0.0071157475002793  0.5893146029047929  0.4501089569141925  1.0000
  P   P4        1.0  0.9928880750104481  0.41068772819809857  0.9501085251494032  1.0000
  H   H1        1.0  0.8597493335792163  0.3682268402647467  0.0960738727846007  1.0000
  H   H2        1.0  0.14024785851416513  0.631771249701963  0.5960763008965485  1.0000
  H   H3        1.0  0.5780070679419679  0.7709506219918368  0.1378782908290361  1.0000
  H   H4        1.0  0.4219957845062792  0.22905142358177952  0.6378776503020944  1.0000
  H   H5        1.0  0.8600283743601691  0.7403909462729032  0.1016788053581763  1.0000
  H   H6        1.0  0.13997467096005067  0.25961139931775534  0.6016781833660616  1.0000
  H   H7        1.0  0.13386064272269488  0.03331485700411461  0.0660989728525081  1.0000
  H   H8        1.0  0.8661444963924722  0.9666863337938382  0.5660975852541483  1.0000
  H   H9        1.0  0.4043653464904294  0.967110753360693  0.14605550566120937  1.0000
  H   H10       1.0  0.595635444550261  0.03288690671016781  0.6460574399371452  1.0000
  H   H11       1.0  0.5067937513195984  0.20536324992460916  0.12240817444910589  1.0000
  H   H12       1.0  0.49320654990894747  0.7946360505912297  0.6224101293660382  1.0000
  H   H13       1.0  0.9614684443675185  0.4764142889410651  0.2539733822360972  1.0000
  H   H14       1.0  0.03852129393442279  0.5235738673693717  0.7539758716568484  1.0000
  H   H15       1.0  0.7620082352281369  0.53070750826425  0.2605209782915239  1.0000
  H   H16       1.0  0.23798942590995856  0.46929209726837234  0.7605223960214288  1.0000
  H   H17       1.0  0.09641419390584352  0.7275700358862238  0.1884909634049592  1.0000
  H   H18       1.0  0.9035882752639848  0.27242582281364497  0.6884913209934564  1.0000
  H   H19       1.0  0.07899959035233182  0.827872730955086  0.2446466859413334  1.0000
  H   H20       1.0  0.9210012343973446  0.1721197838538089  0.744646729628613  1.0000
  H   H21       1.0  0.9041221095891102  0.7887080906704612  0.1992829687155719  1.0000
  H   H22       1.0  0.09588624196616989  0.21129486434771394  0.6992838053520956  1.0000
  H   H23       1.0  0.41861191018723076  0.4740522324733406  0.23672249820481986  1.0000
  H   H24       1.0  0.5813877251685753  0.5259432369238439  0.7367234925076859  1.0000
  H   H25       1.0  0.44847737107411934  0.42290039544388963  0.1757382821816762  1.0000
  H   H26       1.0  0.551518108152024  0.5770970394981418  0.6757392564925766  1.0000
  H   H27       1.0  0.10666228506415375  0.1499107797680282  0.17621144326297164  1.0000
  H   H28       1.0  0.8933358252794787  0.8500895245147291  0.6762122530557518  1.0000
  H   H29       1.0  0.1112741851525172  0.37438716735508143  0.1890285354360728  1.0000
  H   H30       1.0  0.888723184291166  0.6256115914620607  0.6890290907638175  1.0000
  H   H31       1.0  0.07670475230678872  0.20770468192999667  0.23625844639569488  1.0000
  H   H32       1.0  0.9232923654936795  0.7922936854499982  0.7362592792134635  1.0000
  H   H33       1.0  0.8927677405688568  0.3019376038269216  0.34927018086565903  1.0000
  H   H34       1.0  0.10723202454975218  0.698061255734622  0.8492693617558018  1.0000
  H   H35       1.0  0.5967646659526976  0.6318191991459798  0.389535499918189  1.0000
  H   H36       1.0  0.4032362298483605  0.36818220517505307  0.8895362292100585  1.0000
  H   H37       1.0  0.28783024502535426  0.3583792956910444  0.3598214351199118  1.0000
  H   H38       1.0  0.7121688480653531  0.6416209208744449  0.8598223613328599  1.0000
  H   H39       1.0  0.2989215848026631  0.06656165370398531  0.3262039190079662  1.0000
  H   H40       1.0  0.7010803210397609  0.9334417147386844  0.82620542849277  1.0000
  H   H41       1.0  0.9533839075714776  0.7827038488798479  0.39257896625176875  1.0000
  H   H42       1.0  0.046614338378390074  0.21729465695975136  0.8925787322696407  1.0000
  H   H43       1.0  0.08127851101083637  0.6653824355263679  0.3672392669548116  1.0000
  H   H44       1.0  0.9187191973403938  0.33461484108773487  0.867238520750618  1.0000
  H   H45       1.0  0.9510503638416734  0.26351190161236815  0.5046146713480297  1.0000
  H   H46       1.0  0.048950565001554446  0.7364883751733728  0.0046139572992203  1.0000
  H   H47       1.0  0.20948298668598397  0.3882188387922483  0.4988919347754717  1.0000
  H   H48       1.0  0.7905173264637568  0.6117816592004887  0.9988914342181161  1.0000
  H   H49       1.0  0.9383657851450661  0.03928473201700909  0.4375323611090778  1.0000
  H   H50       1.0  0.06163552754235004  0.9607177137586262  0.9375314269134947  1.0000
  H   H51       1.0  0.08506690771292819  0.03248262763182911  0.4860043829671596  1.0000
  H   H52       1.0  0.9149347625181933  0.9675179719520418  0.9860040629109718  1.0000
  H   H53       1.0  0.19588813486125634  0.1634719167740215  0.433332280071447  1.0000
  H   H54       1.0  0.8041119117849573  0.8365305690257046  0.9333323906696123  1.0000
  H   H55       1.0  0.37753125549640737  0.8200658691203132  0.4109947113122061  1.0000
  H   H56       1.0  0.6224695259710271  0.17993535735199376  0.9109947858623783  1.0000
  H   H57       1.0  0.43695259572046297  0.7181275468901094  0.462110862239598  1.0000
  H   H58       1.0  0.563047913397632  0.28187325593617635  0.9621112547888941  1.0000
  H   H59       1.0  0.4727222027596269  0.1275083288102223  0.4579112579185605  1.0000
  H   H60       1.0  0.5272802897611725  0.8724939428429579  0.9579117418278997  1.0000
  H   H61       1.0  0.6680860278009105  0.06954314773563651  0.4534817821170876  1.0000
  H   H62       1.0  0.3319145272920139  0.9304577266056102  0.9534826198578513  1.0000
  H   H63       1.0  0.5341582572926881  0.023580592011335  0.5078067799388748  1.0000
  H   H64       1.0  0.4658433271502318  0.9764210975533986  0.0078073392611415  1.0000
  C   C1        1.0  0.8525278939037547  0.2258620913715177  0.0980821647820918  1.0000
  C   C2        1.0  0.14747192113144075  0.774138855218446  0.5980830954262758  1.0000
  C   C3        1.0  0.6970267564523738  0.072668845479896  0.1203208498717956  1.0000
  C   C4        1.0  0.3029761895385332  0.9273333456016032  0.6203216923832144  1.0000
  C   C5        1.0  0.6986273541178393  0.8945792163412067  0.1214940544175178  1.0000
  C   C6        1.0  0.3013749130142641  0.1054215257811819  0.6214938423035222  1.0000
  C   C7        1.0  0.8542957108139291  0.8767720945481375  0.1013903466600183  1.0000
  C   C8        1.0  0.14570733604399774  0.123230253434464  0.6013894286444595  1.0000
  C   C9        1.0  0.005905654565680201  0.037935457403101204  0.08100632985109259  1.0000
  C   C10       1.0  0.994096212481736  0.962067064737539  0.5810056453091192  1.0000
  C   C11       1.0  0.5385659768293392  0.1037446869070138  0.1433489118902287  1.0000
  C   C12       1.0  0.46143225179907416  0.8962530060331629  0.6433508239124137  1.0000
  C   C13       1.0  0.8728964304679393  0.5327069218745494  0.235620993647764  1.0000
  C   C14       1.0  0.12709934550485966  0.46728857230442594  0.7356227829389822  1.0000
  C   C15       1.0  0.995357028670355  0.7310506757205886  0.2155802200360029  1.0000
  C   C16       1.0  0.004644680360925706  0.268946402924982  0.7155806829311048  1.0000
  C   C17       1.0  0.37041973375681164  0.36077503637179825  0.2093029213178994  1.0000
  C   C18       1.0  0.6295749508282141  0.639223564846347  0.7093045738593203  1.0000
  C   C19       1.0  0.15329845487598695  0.2669102255063224  0.20249591649323406  1.0000
  C   C20       1.0  0.8466988428122237  0.7330884216934382  0.7024967852751445  1.0000
  C   C21       1.0  0.7627230228050834  0.3217448340346821  0.3527263073311743  1.0000
  C   C22       1.0  0.2372754354816564  0.6782540021000757  0.8527258401443661  1.0000
  C   C23       1.0  0.7700595723665628  0.4887291273605428  0.3725075478946067  1.0000
  C   C24       1.0  0.22994068474729795  0.5112680951518841  0.8725071580653889  1.0000
  C   C25       1.0  0.5963063389742087  0.5019621213128574  0.37528447747582305  1.0000
  C   C26       1.0  0.4036913265081024  0.4980350886176126  0.8752851472164593  1.0000
  C   C27       1.0  0.42416284856015096  0.3501457484181856  0.358895668994883  1.0000
  C   C28       1.0  0.5758394989069302  0.6498559046226903  0.8588966071636079  1.0000
  C   C29       1.0  0.4291710618776178  0.188236191687885  0.33994034631669473  1.0000
  C   C30       1.0  0.5708288097501251  0.8117656288886153  0.8399415687284773  1.0000
  C   C31       1.0  0.9591012535109866  0.6451850614806317  0.3907510952892678  1.0000
  C   C32       1.0  0.040896329568212826  0.3548120202697903  0.8907504411062276  1.0000
  C   C33       1.0  0.07304853111784843  0.29950672703428444  0.4798242383205746  1.0000
  C   C34       1.0  0.9269538446526581  0.7004953630109868  0.9798236813749455  1.0000
  C   C35       1.0  0.07258011119055399  0.12354435075893377  0.4577860341118907  1.0000
  C   C36       1.0  0.9274210935838452  0.8764579271553785  0.9577853964876509  1.0000
  C   C37       1.0  0.3890164007230368  0.8235995836613555  0.4503171504044943  1.0000
  C   C38       1.0  0.6109848438429566  0.17640275614975565  0.9503175857494099  1.0000
  C   C39       1.0  0.5225686694162164  0.022626974240921503  0.4686500252047026  1.0000
  C   C40       1.0  0.47743309327650246  0.9773737691692049  0.9686508246603013  1.0000
  N   N1        1.0  0.0035502280109725158  0.20905139223833666  0.0792113109253805  1.0000
  N   N2        1.0  0.996452264404084  0.790949700317178  0.5792114202176464  1.0000
  N   N3        1.0  0.5966322185558892  0.17580878760437457  0.3368159437393032  1.0000
  N   N4        1.0  0.40337024655284626  0.824193048430942  0.8368168219261207  1.0000
  Cl  Cl1       1.0  0.8971014954528014  0.969679488134183  0.321434957184394  1.0000
  Cl  Cl2       1.0  0.10289841796718947  0.030319602113770803  0.8214362337828477  1.0000
  Cl  Cl3       1.0  0.3293261611316609  0.6917320581387969  0.3051828994462227  1.0000
  Cl  Cl4       1.0  0.6706732798813133  0.3082714949656663  0.8051832674837627  1.0000
  Cl  Cl5       1.0  0.5035024854053061  0.5915905461516998  0.5547040789186468  1.0000
  Cl  Cl6       1.0  0.49649884917328535  0.4084107547429953  0.0547023900060282  1.0000
  Cl  Cl7       1.0  0.7898828385508236  0.30295752757185573  0.58708032625389  1.0000
  Cl  Cl8       1.0  0.2101183235263449  0.697043504992685  0.087078538131955  1.0000
  O   O1        1.0  0.6496789868980171  0.06297837151123531  0.2335917419713525  1.0000
  O   O2        1.0  0.3503227965800804  0.9370272089504327  0.7335929324302483  1.0000
  O   O3        1.0  0.7743889807971627  0.40317932215043584  0.1951881772550408  1.0000
  O   O4        1.0  0.2256026431564492  0.5968237346421859  0.6951902536821635  1.0000
  O   O5        1.0  0.42611138182108005  0.21497009856172164  0.22671776308497021  1.0000
  O   O6        1.0  0.5738824805616145  0.7850240353855681  0.726719355245983  1.0000
  O   O7        1.0  0.8393636556750859  0.5471777273731887  0.4829338612543451  1.0000
  O   O8        1.0  0.1606354540866235  0.45282290810217773  0.9829320747974037  1.0000
  O   O9        1.0  0.05422044430819988  0.4155949610023129  0.440527537508089  1.0000
  O   O10       1.0  0.9457808524206256  0.5844074599493537  0.9405266737301048  1.0000
  O   O11       1.0  0.19535165771694807  0.7650773678965451  0.4710220672672492  1.0000
  O   O12       1.0  0.8046481881170918  0.23492480553496625  0.9710220956036936  1.0000
