data_image0
_chemical_formula_structural       Zn6P4H28C8N20O20
_chemical_formula_sum              "Zn6 P4 H28 C8 N20 O20"
_cell_length_a       5.11247778016831
_cell_length_b       10.450502566021072
_cell_length_c       14.948001070741629
_cell_angle_alpha    90.00000649081649
_cell_angle_beta     91.86311226893028
_cell_angle_gamma    89.99978937840689

_space_group_name_H-M_alt    "P 1"
_space_group_IT_number       1

loop_
  _space_group_symop_operation_xyz
  'x, y, z'

loop_
  _atom_site_type_symbol
  _atom_site_label
  _atom_site_symmetry_multiplicity
  _atom_site_fract_x
  _atom_site_fract_y
  _atom_site_fract_z
  _atom_site_occupancy
  Zn  Zn1       1.0  0.669265378093641  0.5572329824184267  0.397463318321627  1.0000
  Zn  Zn2       1.0  0.33073263861653857  0.05723813607188081  0.10253565547757397  1.0000
  Zn  Zn3       1.0  0.3307348538852466  0.4427641433653309  0.6025345184933997  1.0000
  Zn  Zn4       1.0  0.6692656253776477  0.9427637741725764  0.8974641651622618  1.0000
  Zn  Zn5       1.0  0.9999977044330564  0.4999990214843066  0.9999996451421893  1.0000
  Zn  Zn6       1.0  1.8339240455001096e-06  1.0074620320000002e-06  0.5000001840235981  1.0000
  P   P1        1.0  0.1735713064482098  0.683514404345779  0.4888643674383175  1.0000
  P   P2        1.0  0.826425680545725  0.18351394604209054  0.011133264458955197  1.0000
  P   P3        1.0  0.8264289218777633  0.316484635221606  0.5111341383207559  1.0000
  P   P4        1.0  0.17357454048229218  0.8164870073089932  0.9888665791882472  1.0000
  H   H1        1.0  0.5127313945073055  0.663194488554119  0.0728147972615787  1.0000
  H   H2        1.0  0.4872638059437619  0.1632004092984616  0.4271821433300289  1.0000
  H   H3        1.0  0.4872590632650854  0.33680072345383394  0.927180917684481  1.0000
  H   H4        1.0  0.5127422898150868  0.8368015009395505  0.5728171003951344  1.0000
  H   H5        1.0  0.139893398182096  0.4579683225290907  0.3053432966158809  1.0000
  H   H6        1.0  0.8601091521444176  0.9579733421923748  0.1946564254194172  1.0000
  H   H7        1.0  0.860102912450813  0.5420278463662174  0.6946558320726124  1.0000
  H   H8        1.0  0.13988714386505308  0.04203335251278872  0.805345379045221  1.0000
  H   H9        1.0  0.2109706959720157  0.418338580330989  0.19523544403883616  1.0000
  H   H10       1.0  0.7890341258861822  0.9183446951612312  0.3047663090956547  1.0000
  H   H11       1.0  0.7890334281924325  0.5816595023417792  0.8047664524553467  1.0000
  H   H12       1.0  0.21097195892571816  0.08166008575232551  0.6952349414616918  1.0000
  H   H13       1.0  0.3017879880988588  0.7198168411363853  0.30179166056711887  1.0000
  H   H14       1.0  0.6982087007569788  0.21982141439339398  0.198205970176204  1.0000
  H   H15       1.0  0.698206376443224  0.2801783708685194  0.6982054382818034  1.0000
  H   H16       1.0  0.3017876207796561  0.7801824096359342  0.8017911516799356  1.0000
  H   H17       1.0  0.2674538632994867  0.7872490218582157  0.19286362409917499  1.0000
  H   H18       1.0  0.7325461785736636  0.2872526042197165  0.3071353884036866  1.0000
  H   H19       1.0  0.7325385369147384  0.21274810393198612  0.8071347896305241  1.0000
  H   H20       1.0  0.2674599208223825  0.7127512198017882  0.6928631863773731  1.0000
  H   H21       1.0  0.2307444725272916  0.30824815137687284  0.0612276507944003  1.0000
  H   H22       1.0  0.7692514865020569  0.8082476273518466  0.4387706460822827  1.0000
  H   H23       1.0  0.7692557411988332  0.6917556726496914  0.9387735307409102  1.0000
  H   H24       1.0  0.23075068791866474  0.1917514122141527  0.5612298895163761  1.0000
  H   H25       1.0  0.4855744900058241  0.3901798880515274  0.0589057242950162  1.0000
  H   H26       1.0  0.5144207961864069  0.8901816941819122  0.441092569977421  1.0000
  H   H27       1.0  0.5144218242485579  0.6098220221943792  0.9410927354493026  1.0000
  H   H28       1.0  0.48557942120048386  0.10981830227746063  0.558907942613871  1.0000
  C   C1        1.0  0.8901203686123013  0.5275318193185258  0.21038924066709797  1.0000
  C   C2        1.0  0.10987984172776778  0.027541198831912108  0.2896110949715975  1.0000
  C   C3        1.0  0.10987593838341068  0.47246243579328967  0.7896105569654992  1.0000
  C   C4        1.0  0.8901223326654488  0.9724645389765457  0.7103894406269546  1.0000
  C   C5        1.0  0.5651216229442824  0.6611026945554458  0.2130543035079739  1.0000
  C   C6        1.0  0.4348853186111157  0.16111537066915818  0.2869461199145178  1.0000
  C   C7        1.0  0.43488447286564025  0.3388867760894243  0.7869449402173883  1.0000
  C   C8        1.0  0.5651246875349827  0.8388932378081932  0.7130538387693193  1.0000
  N   N1        1.0  0.7240928794116286  0.588559647578542  0.2671028511534317  1.0000
  N   N2        1.0  0.2759048472246661  0.08856778776097941  0.2329021421467061  1.0000
  N   N3        1.0  0.2759053590907569  0.4114365213157286  0.7329016520950375  1.0000
  N   N4        1.0  0.7240894771864818  0.9114360362707288  0.7671023150869374  1.0000
  N   N5        1.0  0.8409973433258031  0.558371515897612  0.1245928385332888  1.0000
  N   N6        1.0  0.1590124098499217  0.058378918802503704  0.3754056043297282  1.0000
  N   N7        1.0  0.15901071677662768  0.4416246529879827  0.8754050903111619  1.0000
  N   N8        1.0  0.8409995606397659  0.9416239483224302  0.6245930394734031  1.0000
  N   N9        1.0  0.6346406158241321  0.6451684673205238  0.1281462631720984  1.0000
  N   N10       1.0  0.3653566532321975  0.14517553272774822  0.37185739044058147  1.0000
  N   N11       1.0  0.3653556838775387  0.3548267446832085  0.8718548723486421  1.0000
  N   N12       1.0  0.6346474563363245  0.8548263775124241  0.6281471818298527  1.0000
  N   N13       1.0  0.0752255472860952  0.44409056730772534  0.2409737598333592  1.0000
  N   N14       1.0  0.9247751526974071  0.9440926237756744  0.2590272775238844  1.0000
  N   N15       1.0  0.9247727130630351  0.5559113429368027  0.7590267297505449  1.0000
  N   N16       1.0  0.07522310400667462  0.055909286468924804  0.7409738810041019  1.0000
  N   N17       1.0  0.3767745881935198  0.7395191755100329  0.24068823918079119  1.0000
  N   N18       1.0  0.6232101747997517  0.23952771108842796  0.2593132665565747  1.0000
  N   N19       1.0  0.6232080123066907  0.2604741227213054  0.7593127352885105  1.0000
  N   N20       1.0  0.37677633606413247  0.7604780267329261  0.7406884228713151  1.0000
  O   O1        1.0  0.8711063720272492  0.6767763585292671  0.4732388013345457  1.0000
  O   O2        1.0  0.1288906629972075  0.17677895559936016  0.026760168664999598  1.0000
  O   O3        1.0  0.12889384901254888  0.3232217241464781  0.5267610423126925  1.0000
  O   O4        1.0  0.8711075900500304  0.8232258253206484  0.9732416588070192  1.0000
  O   O5        1.0  0.25049190030068763  0.8274911498168794  0.49261922391320917  1.0000
  O   O6        1.0  0.7494980332548167  0.3274917731913121  0.0073783343856775015  1.0000
  O   O7        1.0  0.7495044030303218  0.17250788975390216  0.5073812426633992  1.0000
  O   O8        1.0  0.2504963166834883  0.6725091801645606  0.9926214402394606  1.0000
  O   O9        1.0  0.2548954396573109  0.6214924495720027  0.5797068549714268  1.0000
  O   O10       1.0  0.7451096349421389  0.12149029297253125  0.9202918619032516  1.0000
  O   O11       1.0  0.7451086954383683  0.37850658999233394  0.42029303469050916  1.0000
  O   O12       1.0  0.2548984142094212  0.878509703480397  0.0797080737733751  1.0000
  O   O13       1.0  0.3030820364154181  0.6133884765938477  0.4099171651315601  1.0000
  O   O14       1.0  0.6969194368660611  0.11338920251951382  0.09008118395342989  1.0000
  O   O15       1.0  0.6969221059703656  0.38661056297034707  0.5900813866422183  1.0000
  O   O16       1.0  0.303082744840836  0.8866107939381253  0.909918013757057  1.0000
  O   O17       1.0  0.29858373429878077  0.3978131680813632  0.07582304512777677  1.0000
  O   O18       1.0  0.7014114892098461  0.897814665606774  0.4241752489020455  1.0000
  O   O19       1.0  0.7014145333365249  0.6021896990548045  0.9241761065679625  1.0000
  O   O20       1.0  0.29859068520694615  0.10218533085100033  0.5758252866965989  1.0000
