data_image0
_chemical_formula_structural       Cd4Ni4H56C36N24
_chemical_formula_sum              "Cd4 Ni4 H56 C36 N24"
_cell_length_a       7.567376967474438
_cell_length_b       13.809468034453571
_cell_length_c       22.26207686317718
_cell_angle_alpha    90.000455575734
_cell_angle_beta     89.99996707229569
_cell_angle_gamma    90.13312118157712

_space_group_name_H-M_alt    "P 1"
_space_group_IT_number       1

loop_
  _space_group_symop_operation_xyz
  'x, y, z'

loop_
  _atom_site_type_symbol
  _atom_site_label
  _atom_site_symmetry_multiplicity
  _atom_site_fract_x
  _atom_site_fract_y
  _atom_site_fract_z
  _atom_site_occupancy
  Cd  Cd1       1.0  0.9358516384492646  0.8274171341844437  0.7988191404464972  1.0000
  Cd  Cd2       1.0  0.0641446935057814  0.6725824510749023  0.2988183336922603  1.0000
  Cd  Cd3       1.0  0.0641520666351525  0.17258614824640256  0.2011811087293154  1.0000
  Cd  Cd4       1.0  0.9358508958896792  0.32741072754757283  0.7011801186819966  1.0000
  Ni  Ni1       1.0  0.434988567624373  0.5768316104511939  0.7676822193143876  1.0000
  Ni  Ni2       1.0  0.5650157247310619  0.9231668170767338  0.2676784956246507  1.0000
  Ni  Ni3       1.0  0.565005834161056  0.42316881503670345  0.23231758066100378  1.0000
  Ni  Ni4       1.0  0.4349826011105264  0.07683141910470681  0.732321753539317  1.0000
  H   H1        1.0  0.9570263843669834  0.8448805768211901  0.668966965761598  1.0000
  H   H2        1.0  0.13020865594484826  0.7898714306088479  0.6977463548698637  1.0000
  H   H3        1.0  0.7819925973223221  0.7036443552882262  0.6706147311199118  1.0000
  H   H4        1.0  0.940608849635815  0.6445840492289747  0.7151800422299316  1.0000
  H   H5        1.0  0.1536343579022699  0.639205572306878  0.6318779130376981  1.0000
  H   H6        1.0  0.953936184021927  0.5794192188399592  0.6161603677606706  1.0000
  H   H7        1.0  0.064408785766993  0.7782978124019808  0.5660375976745016  1.0000
  H   H8        1.0  0.8533199081311055  0.7259851844121885  0.5554983849383888  1.0000
  H   H9        1.0  0.9947377993943717  0.5784974856664887  0.5104990602786046  1.0000
  H   H10       1.0  0.20509784829969388  0.6322036341124644  0.5183871312444808  1.0000
  H   H11       1.0  0.905154055723898  0.7152267885127515  0.44039318922420273  1.0000
  H   H12       1.0  0.12306162526887482  0.7603010286174978  0.4437434764102761  1.0000
  H   H13       1.0  0.9753866814826253  0.9360507371695591  0.9031739979872669  1.0000
  H   H14       1.0  0.7742154548650361  0.890759612255927  0.9033940134448528  1.0000
  H   H15       1.0  0.04296617269106659  0.6551173585062459  0.1689669759681749  1.0000
  H   H16       1.0  0.8697852206942115  0.7101290408586253  0.1977451098179515  1.0000
  H   H17       1.0  0.21800258675164488  0.7963528657593527  0.1706127038632417  1.0000
  H   H18       1.0  0.05938632298668269  0.855416640379019  0.2151783400768252  1.0000
  H   H19       1.0  0.8463608425043034  0.8607889791291826  0.1318769657791918  1.0000
  H   H20       1.0  0.046056450016870094  0.9205780386203841  0.11616033696041941  1.0000
  H   H21       1.0  0.9355958139214806  0.7216987507831477  0.0660345986167314  1.0000
  H   H22       1.0  0.14668472029853064  0.7740119676184063  0.055497610652636795  1.0000
  H   H23       1.0  0.0052682695462636054  0.9215019795651572  0.0105003904165457  1.0000
  H   H24       1.0  0.7949068609873748  0.8677944897755339  0.0183871279777748  1.0000
  H   H25       1.0  0.0948539624265337  0.7847745632537413  0.9403912724512438  1.0000
  H   H26       1.0  0.8769476826371515  0.7396989122686082  0.943742067147042  1.0000
  H   H27       1.0  0.0246174401094734  0.5639508779053345  0.40317446159484405  1.0000
  H   H28       1.0  0.22578865302831733  0.6092412815149829  0.40339330905290177  1.0000
  H   H29       1.0  0.042970700349123106  0.15512200974255566  0.3310346309963776  1.0000
  H   H30       1.0  0.8697910849458309  0.21013186877478057  0.3022547926951944  1.0000
  H   H31       1.0  0.21800971946844064  0.2963553122021593  0.3293877640190885  1.0000
  H   H32       1.0  0.059394815311023294  0.35541706084818964  0.2848215545236954  1.0000
  H   H33       1.0  0.8463706418221122  0.36079625623341377  0.36812233613439094  1.0000
  H   H34       1.0  0.04606486488758319  0.42058335077388875  0.38384077980244063  1.0000
  H   H35       1.0  0.9355896337269771  0.22170549262200723  0.4339622023075478  1.0000
  H   H36       1.0  0.14667714982660846  0.27401595391577166  0.4445041102047965  1.0000
  H   H37       1.0  0.005257977303884299  0.4215058306583969  0.4895011888981458  1.0000
  H   H38       1.0  0.7948979016411571  0.3677982339679815  0.48161266873431424  1.0000
  H   H39       1.0  0.09484301561529658  0.2847750739129182  0.5596057123656664  1.0000
  H   H40       1.0  0.8769354326914609  0.23970010968739788  0.5562554251778025  1.0000
  H   H41       1.0  0.024620947659919103  0.0639503559375285  0.0968240052107845  1.0000
  H   H42       1.0  0.2257934956758589  0.10924147519638437  0.0966030913642655  1.0000
  H   H43       1.0  0.957029496974961  0.34488016486395884  0.8310350699718754  1.0000
  H   H44       1.0  0.13021178374968656  0.28986920097181473  0.8022551393461725  1.0000
  H   H45       1.0  0.7819930829166708  0.2036446575906723  0.8293861977160901  1.0000
  H   H46       1.0  0.9406093734387112  0.14458233121832365  0.7848214598948502  1.0000
  H   H47       1.0  0.1536307693185535  0.13920349232530782  0.8681223849825271  1.0000
  H   H48       1.0  0.95393521532079  0.07941732932297191  0.8838399121972031  1.0000
  H   H49       1.0  0.06440774399803928  0.27829656629609195  0.9339620569843774  1.0000
  H   H50       1.0  0.8533188911338384  0.22598624596700745  0.9445026385106985  1.0000
  H   H51       1.0  0.9947393194577147  0.0784969411968959  0.9895003079424924  1.0000
  H   H52       1.0  0.2050980718436648  0.13220371815222623  0.9816117736022393  1.0000
  H   H53       1.0  0.905153639957625  0.2152250816175538  0.05960762913202441  1.0000
  H   H54       1.0  0.12305865186510088  0.260303634731919  0.0562563852491209  1.0000
  H   H55       1.0  0.9753796178502085  0.43605026040532385  0.5968253383820112  1.0000
  H   H56       1.0  0.7742084183099037  0.39076058091934124  0.5966069401201253  1.0000
  C   C1        1.0  0.6054876305725257  0.6587395836677604  0.7970107533879159  1.0000
  C   C2        1.0  0.6090568748040893  0.9963300686254397  0.7606690630382502  1.0000
  C   C3        1.0  0.2650808037364243  0.9977079102361304  0.7654732375589646  1.0000
  C   C4        1.0  0.26438255333105337  0.15804278954543352  0.7024460531520447  1.0000
  C   C5        1.0  0.9250792200709981  0.6953296204611449  0.6776037106842736  1.0000
  C   C6        1.0  0.012619747762116197  0.6519491942467964  0.6221466124135375  1.0000
  C   C7        1.0  0.993701495539071  0.7084480261758872  0.5633933671686009  1.0000
  C   C8        1.0  0.0642325548232137  0.6489520593284936  0.5107212362625405  1.0000
  C   C9        1.0  0.0431992901862799  0.6940687917329954  0.4485272421923554  1.0000
  C   C10       1.0  0.394524560788895  0.8412599106089403  0.2970129518945797  1.0000
  C   C11       1.0  0.39093816461018355  0.5036675843170784  0.2606682522898112  1.0000
  C   C12       1.0  0.7349222373400224  0.5022941151518553  0.2654638110525411  1.0000
  C   C13       1.0  0.7356020683366253  0.34196287094950867  0.2024338072183838  1.0000
  C   C14       1.0  0.0749146591735297  0.8046691442021157  0.1776031028628324  1.0000
  C   C15       1.0  0.9873781497626624  0.8480473933343972  0.12214557194940312  1.0000
  C   C16       1.0  0.006300451828820997  0.7915477902523234  0.0633918111701348  1.0000
  C   C17       1.0  0.935773500415074  0.8510466846308875  0.0107220184865255  1.0000
  C   C18       1.0  0.9568060599309404  0.8059319516368149  0.9485270402281146  1.0000
  C   C19       1.0  0.39451594072095725  0.34125645757551126  0.2029926401308018  1.0000
  C   C20       1.0  0.3909453082006423  0.0036623576341270002  0.23932983852783  1.0000
  C   C21       1.0  0.7349255173843404  0.0022939126666870016  0.23452880839052173  1.0000
  C   C22       1.0  0.7356118484507732  0.8419576359741754  0.2975586879616188  1.0000
  C   C23       1.0  0.07492444487584038  0.3046714896160267  0.3223978860693535  1.0000
  C   C24       1.0  0.9873812877688549  0.3480526512433926  0.377854085953409  1.0000
  C   C25       1.0  0.006299539992227202  0.29155381931141744  0.4366068820039644  1.0000
  C   C26       1.0  0.9357618870981527  0.35105053852749535  0.48927946210697115  1.0000
  C   C27       1.0  0.9567977811529148  0.3059330706926816  0.5514716593975066  1.0000
  C   C28       1.0  0.6054817603305623  0.15874191230540896  0.70299089083246  1.0000
  C   C29       1.0  0.6090602415029593  0.4963349966034301  0.739334242856785  1.0000
  C   C30       1.0  0.265076142020952  0.4977070174780849  0.7345310477858931  1.0000
  C   C31       1.0  0.26439911436709446  0.6580469398230947  0.797559704057946  1.0000
  C   C32       1.0  0.9250783543195522  0.1953276663337888  0.8223971462982007  1.0000
  C   C33       1.0  0.012618787787893397  0.15194722788351805  0.8778533296226456  1.0000
  C   C34       1.0  0.9936978204992712  0.20844754942871188  0.936605742820376  1.0000
  C   C35       1.0  0.0642327671912142  0.14895224178017943  0.989278679872676  1.0000
  C   C36       1.0  0.04319891303669719  0.19406842865327434  0.0514718613572427  1.0000
  N   N1        1.0  0.7153002886134486  0.7126596232293495  0.8133260636717949  1.0000
  N   N2        1.0  0.7214838537143394  0.9449144921191106  0.777659252846675  1.0000
  N   N3        1.0  0.15737221013587538  0.9480937754424658  0.7877127411968843  1.0000
  N   N4        1.0  0.156640976571957  0.7111793637453517  0.8161165158951107  1.0000
  N   N5        1.0  0.9950477274177347  0.7902585829471035  0.6970280006053358  1.0000
  N   N6        1.0  0.9049574922195021  0.8729080201408337  0.9000982161446984  1.0000
  N   N7        1.0  0.2847078478765113  0.7873364768250327  0.313328020361709  1.0000
  N   N8        1.0  0.27851664720836317  0.5550942181142346  0.27765467684884737  1.0000
  N   N9        1.0  0.8426176112994599  0.551910040173759  0.2877053325329797  1.0000
  N   N10       1.0  0.8433592274686247  0.7888168059823926  0.3161120704989102  1.0000
  N   N11       1.0  0.0049448154915126006  0.7097411608313139  0.19702738962125474  1.0000
  N   N12       1.0  0.09504662047898188  0.6270928313176256  0.4000967295094568  1.0000
  N   N13       1.0  0.2847123853019368  0.2873284130933342  0.1866696935216225  1.0000
  N   N14       1.0  0.2785279670600219  0.0550988941114525  0.22234144554752794  1.0000
  N   N15       1.0  0.8426328163439436  0.05190950135956031  0.21229065233949027  1.0000
  N   N16       1.0  0.8433535054873147  0.28882540646143445  0.18388238570219073  1.0000
  N   N17       1.0  0.004950678696381799  0.20974399796475748  0.3029731469580952  1.0000
  N   N18       1.0  0.09505145831909799  0.12709306733166412  0.0999020330251454  1.0000
  N   N19       1.0  0.7152903976902535  0.21265741464616644  0.6866744747635067  1.0000
  N   N20       1.0  0.7214911291013593  0.4449148403242731  0.7223437755631892  1.0000
  N   N21       1.0  0.15737546908958677  0.44809039095161296  0.7122926706650148  1.0000
  N   N22       1.0  0.15662697835334427  0.2111691709840144  0.6838877294417927  1.0000
  N   N23       1.0  0.9950521755731927  0.29025635688123685  0.8029733087354742  1.0000
  N   N24       1.0  0.9049504241011803  0.3729075828780281  0.5999039688543986  1.0000
