data_image0
_chemical_formula_structural       Bi4H6C14N2O12
_chemical_formula_sum              "Bi4 H6 C14 N2 O12"
_cell_length_a       4.258922469275095
_cell_length_b       9.678779038877009
_cell_length_c       12.06365642371034
_cell_angle_alpha    109.75667668505275
_cell_angle_beta     89.99881896692521
_cell_angle_gamma    89.99987515510502

_space_group_name_H-M_alt    "P 1"
_space_group_IT_number       1

loop_
  _space_group_symop_operation_xyz
  'x, y, z'

loop_
  _atom_site_type_symbol
  _atom_site_label
  _atom_site_symmetry_multiplicity
  _atom_site_fract_x
  _atom_site_fract_y
  _atom_site_fract_z
  _atom_site_occupancy
  Bi  Bi1       1.0  0.794685786078219  0.6506507147001132  0.8662384113906189  1.0000
  Bi  Bi2       1.0  0.2945885136760539  0.34936714435853833  0.13372696022454286  1.0000
  Bi  Bi3       1.0  0.326756652873634  0.9600127275567516  0.8712997840025597  1.0000
  Bi  Bi4       1.0  0.8267639433804774  0.03999293737998501  0.12870101220697455  1.0000
  H   H1        1.0  0.034433571842633605  0.12405409234420263  0.7122123723458317  1.0000
  H   H2        1.0  0.5344344463027113  0.8759507091210208  0.2878002597003118  1.0000
  H   H3        1.0  0.020636141070873703  0.071999275770473  0.4935013313479289  1.0000
  H   H4        1.0  0.5206263029805952  0.9279979041861351  0.5065101659393606  1.0000
  H   H5        1.0  0.5803408271065891  0.46103357665548816  0.5498715429877026  1.0000
  H   H6        1.0  0.08034619097109902  0.5389644211013688  0.4501264792411775  1.0000
  C   C1        1.0  0.3384527874720079  0.3129593177967466  0.7421826457225011  1.0000
  C   C2        1.0  0.8384587017297778  0.6870451992284144  0.2578218993980812  1.0000
  C   C3        1.0  0.1589590039393087  0.19417376902730865  0.6728896915086298  1.0000
  C   C4        1.0  0.6589790569484251  0.8058161928942624  0.32711304417649967  1.0000
  C   C5        1.0  0.14718498167663796  0.1663942353965382  0.5520821099280084  1.0000
  C   C6        1.0  0.6471743446909457  0.8336133530671506  0.44793708974057034  1.0000
  C   C7        1.0  0.30211734181729355  0.2608968328783874  0.5046834290450024  1.0000
  C   C8        1.0  0.8021302275447368  0.739099073368038  0.4953289952925247  1.0000
  C   C9        1.0  0.46100708281156244  0.3822651893759925  0.5819381942116879  1.0000
  C   C10       1.0  0.9610203970722327  0.6177343814260751  0.4180649505736796  1.0000
  C   C11       1.0  0.38723826329236033  0.3417250059822834  0.8716418338778954  1.0000
  C   C12       1.0  0.8872354621635667  0.6582803871378076  0.12836176537898333  1.0000
  C   C13       1.0  0.30400202233917645  0.2283957104168337  0.3733959965188519  1.0000
  C   C14       1.0  0.804018802465322  0.7716023689070609  0.6265971081231785  1.0000
  N   N1        1.0  0.48466455714617523  0.40600291387076476  0.697464251141135  1.0000
  N   N2        1.0  0.984675359666831  0.5939976434236625  0.30253318647807964  1.0000
  O   O1        1.0  0.5648047111278914  0.4442951933617464  0.9292589723608916  1.0000
  O   O2        1.0  0.0648016754224585  0.5557039720672561  0.07073864996849721  1.0000
  O   O3        1.0  0.24375483102912196  0.2569119711492149  0.9174476152980165  1.0000
  O   O4        1.0  0.7437730744755272  0.7430852910474426  0.08255648165445709  1.0000
  O   O5        1.0  0.3554618517546971  0.3355494205204791  0.33684674521868635  1.0000
  O   O6        1.0  0.8554746758579556  0.6644396506451641  0.6631543225691063  1.0000
  O   O7        1.0  0.25662368652587025  0.09572038090364288  0.30970237652955035  1.0000
  O   O8        1.0  0.7566478196575022  0.9042845093531964  0.6903061794601302  1.0000
  O   O9        1.0  0.3274757780758507  0.7381715444432259  0.8684539558372537  1.0000
  O   O10       1.0  0.8274301455307126  0.26182642453287036  0.13153314616486977  1.0000
  O   O11       1.0  0.8265080389883012  0.924071749088341  0.9352592123578065  1.0000
  O   O12       1.0  0.3264959953959661  0.0759141442225726  0.06471882389651283  1.0000
