data_image0
_chemical_formula_structural       Cu2H20C20N4O8
_chemical_formula_sum              "Cu2 H20 C20 N4 O8"
_cell_length_a       6.643424783341021
_cell_length_b       8.954455630634113
_cell_length_c       9.470253430580708
_cell_angle_alpha    98.58685763430357
_cell_angle_beta     90.00080293262185
_cell_angle_gamma    90.00079964269833

_space_group_name_H-M_alt    "P 1"
_space_group_IT_number       1

loop_
  _space_group_symop_operation_xyz
  'x, y, z'

loop_
  _atom_site_type_symbol
  _atom_site_label
  _atom_site_symmetry_multiplicity
  _atom_site_fract_x
  _atom_site_fract_y
  _atom_site_fract_z
  _atom_site_occupancy
  Cu  Cu1       1.0  0.8486836567765367  0.0627934772771326  0.5899993063903324  1.0000
  Cu  Cu2       1.0  0.34868159645910174  0.9372050321260514  0.4099971143684088  1.0000
  H   H1        1.0  0.8192821335618987  0.4113688487545558  0.8793350714602115  1.0000
  H   H2        1.0  0.3192520180514649  0.588639746178046  0.12067283690686281  1.0000
  H   H3        1.0  0.0335364962040998  0.3024514604312217  0.809392897058423  1.0000
  H   H4        1.0  0.5335183166926  0.697542325139281  0.19060317314545472  1.0000
  H   H5        1.0  0.8394302389599275  0.6179048310968722  0.7250270881858611  1.0000
  H   H6        1.0  0.3394204673798029  0.3820958818913028  0.2749716206507813  1.0000
  H   H7        1.0  0.8148234991308242  0.6843008387259173  0.48134487288423605  1.0000
  H   H8        1.0  0.314852269449318  0.3156951244502793  0.5186551520190363  1.0000
  H   H9        1.0  0.8080530823314263  0.47369422597861904  0.2691540765799233  1.0000
  H   H10       1.0  0.3080905093118034  0.5263006891218325  0.7308520974081675  1.0000
  H   H11       1.0  0.8245138724718402  0.20583114213822273  0.31692373753622155  1.0000
  H   H12       1.0  0.32452389766084616  0.7941696635822026  0.6830854048223004  1.0000
  H   H13       1.0  0.9976981692981681  0.11344290223848219  0.9192671511376816  1.0000
  H   H14       1.0  0.4976820481210921  0.8865568381539645  0.08071074573577872  1.0000
  H   H15       1.0  0.7508125485172741  0.0963078838427975  0.9904061511814605  1.0000
  H   H16       1.0  0.25077567085588026  0.9037009884998995  0.009599035386621331  1.0000
  H   H17       1.0  0.4878276725592913  0.18568767795642324  0.9054784856191422  1.0000
  H   H18       1.0  0.9878187475828213  0.8143203842258727  0.09452143450658922  1.0000
  H   H19       1.0  0.5130963508364205  0.32160063936134253  0.7894422436756658  1.0000
  H   H20       1.0  0.013087975878057998  0.6783937438490782  0.21054208744509145  1.0000
  C   C1        1.0  0.8730628578402957  0.3246652431265317  0.7924632564035576  1.0000
  C   C2        1.0  0.37304081130222494  0.6753346795278433  0.20753356130056497  1.0000
  C   C3        1.0  0.8493526905781864  0.3778440165285701  0.6495842036590461  1.0000
  C   C4        1.0  0.3493522332111921  0.6221579946250841  0.35041686539193523  1.0000
  C   C5        1.0  0.837686808562758  0.5291052633027036  0.6324013452751276  1.0000
  C   C6        1.0  0.33768075463721897  0.4708967184112183  0.36760383572871563  1.0000
  C   C7        1.0  0.8247104564873383  0.5658233463563604  0.4946068430955677  1.0000
  C   C8        1.0  0.32471115185023086  0.4341797464718908  0.505403629703963  1.0000
  C   C9        1.0  0.8212836461361801  0.450305513376442  0.3784335732725239  1.0000
  C   C10       1.0  0.3213116637865809  0.5497008203625029  0.6215730285903334  1.0000
  C   C11       1.0  0.83094012184101  0.3010267399555318  0.40309196181056  1.0000
  C   C12       1.0  0.3309359059712378  0.6989738740708872  0.5969066556155553  1.0000
  C   C13       1.0  0.8407995795226029  0.08218364534897657  0.8918244995059511  1.0000
  C   C14       1.0  0.34077863567585354  0.9178214667021861  0.10816946491915057  1.0000
  C   C15       1.0  0.8442795969979429  0.9148004946548338  0.8246440101607746  1.0000
  C   C16       1.0  0.3442754413854984  0.08519917245529739  0.17535567585794357  1.0000
  C   C17       1.0  0.5447581913759619  0.2031834765629981  0.7998174256243404  1.0000
  C   C18       1.0  0.04474889657340949  0.7968183170053961  0.20017864746601083  1.0000
  C   C19       1.0  0.41180658115715113  0.110736360024454  0.6869892378685238  1.0000
  C   C20       1.0  0.9118007876880938  0.8892516742478306  0.3130096961022489  1.0000
  N   N1        1.0  0.7652089141893725  0.17964808536220286  0.7902870532344368  1.0000
  N   N2        1.0  0.2652002831388174  0.8203540737415052  0.2097132440090093  1.0000
  N   N3        1.0  0.8457889684005692  0.26650157549918424  0.5357408104341489  1.0000
  N   N4        1.0  0.34577807064458443  0.7334969534087391  0.46425769791412824  1.0000
  O   O1        1.0  0.8524528449258852  0.8863189918548497  0.6869391393906384  1.0000
  O   O2        1.0  0.3524597204924405  0.11368423790523959  0.31306421638635845  1.0000
  O   O3        1.0  0.8459141712293672  0.815104849828259  0.9039151005826014  1.0000
  O   O4        1.0  0.34591779153380736  0.1848983569805185  0.09609030356747181  1.0000
  O   O5        1.0  0.5010974923192891  0.03822694733302259  0.5767057911804301  1.0000
  O   O6        1.0  0.0010946912315433  0.9617799294245511  0.42328836531397235  1.0000
  O   O7        1.0  0.22654098430923852  0.1173275560946294  0.7082875605829315  1.0000
  O   O8        1.0  0.7265436374611981  0.8826450086340856  0.29171729893949566  1.0000
