data_image0
_chemical_formula_structural       Cd5H48C60N30Cl4
_chemical_formula_sum              "Cd5 H48 C60 N30 Cl4"
_cell_length_a       9.912406376084936
_cell_length_b       11.84408393118786
_cell_length_c       14.5511
_cell_angle_alpha    74.29220306922917
_cell_angle_beta     86.88099658149729
_cell_angle_gamma    81.56306177410146

_space_group_name_H-M_alt    "P 1"
_space_group_IT_number       1

loop_
  _space_group_symop_operation_xyz
  'x, y, z'

loop_
  _atom_site_type_symbol
  _atom_site_label
  _atom_site_symmetry_multiplicity
  _atom_site_fract_x
  _atom_site_fract_y
  _atom_site_fract_z
  _atom_site_occupancy
  Cd  Cd1       1.0  0.9999998482014549  0.4999980959402137  2.0058527212888057e-06  1.0000
  Cd  Cd2       1.0  0.3790929307323552  0.5476881350900058  0.6238699576467326  1.0000
  Cd  Cd3       1.0  0.6209046198419443  0.45231071312382903  0.37613038695518247  1.0000
  Cd  Cd4       1.0  0.3689202721299766  0.4055441925561638  0.918605090653145  1.0000
  Cd  Cd5       1.0  0.6310785688971592  0.5944528847687351  0.08139490912859057  1.0000
  H   H1        1.0  0.8617227243575487  0.5835486361216908  0.7670709719709949  1.0000
  H   H2        1.0  0.13827454609729978  0.41645198298108  0.23293174170306225  1.0000
  H   H3        1.0  0.7887150275455427  0.6238903716156301  0.6294062659169202  1.0000
  H   H4        1.0  0.2112822429093058  0.3761102474871407  0.37059438605733425  1.0000
  H   H5        1.0  0.7496503293206516  0.5942226692065518  0.5214357596181146  1.0000
  H   H6        1.0  0.25035011219410563  0.40577706445174744  0.47856428270983997  1.0000
  H   H7        1.0  0.749147890572182  0.7432323481601414  0.5252067193460023  1.0000
  H   H8        1.0  0.2508503902160585  0.2567682709426293  0.47479252071388345  1.0000
  H   H9        1.0  0.811300181763535  0.7313098383726953  0.33803183021059613  1.0000
  H   H10       1.0  0.1887018602388437  0.2686925516190186  0.661968941896845  1.0000
  H   H11       1.0  0.9564004307168048  0.7556949790742422  0.1906044837730221  1.0000
  H   H12       1.0  0.043604502226031606  0.24430829636194318  0.809398734993529  1.0000
  H   H13       1.0  0.20731029193181882  0.7058851858634654  0.1988339764085012  1.0000
  H   H14       1.0  0.7926921702497224  0.294114547794841  0.8011708016566602  1.0000
  H   H15       1.0  0.3246577891098994  0.6341482457996364  0.35297831861697665  1.0000
  H   H16       1.0  0.6753458234647596  0.36585060241419853  0.6470272991640869  1.0000
  H   H17       1.0  0.47184419228695873  0.086487559488198  0.6619541008390614  1.0000
  H   H18       1.0  0.5281563892875241  0.9135112887256369  0.3380433824862834  1.0000
  H   H19       1.0  0.6813520314091974  0.0048903098073581  0.6403332107080716  1.0000
  H   H20       1.0  0.31864841010555267  0.9951094238509484  0.359661333753742  1.0000
  H   H21       1.0  0.8102882298710768  0.9153937436686802  0.5928468330758465  1.0000
  H   H22       1.0  0.1897132219770725  0.084605989989619  0.4071469867048663  1.0000
  H   H23       1.0  0.6342595900159225  0.9116589388945684  0.5727043097238678  1.0000
  H   H24       1.0  0.36574054146405643  0.0883363675413875  0.4272939707711672  1.0000
  H   H25       1.0  0.9349176882534778  0.8896609564839224  0.45286957885896584  1.0000
  H   H26       1.0  0.0650787119277041  0.11033877717438399  0.5471258026274485  1.0000
  H   H27       1.0  0.0709466498822096  0.9401941578266175  0.3030411061464022  1.0000
  H   H28       1.0  0.9290543817867702  0.059808232165089195  0.6969555800092593  1.0000
  H   H29       1.0  0.0228576665894877  0.137415669064481  0.1850457814844404  1.0000
  H   H30       1.0  0.9771422146863743  0.8625876063717043  0.8149521266551292  1.0000
  H   H31       1.0  0.8313660006357112  0.2863394599044895  0.2119062938764102  1.0000
  H   H32       1.0  0.16863315042619578  0.7136620446427528  0.7880906571053785  1.0000
  H   H33       1.0  0.9111258661282164  0.2374381327198449  0.9685053225278254  1.0000
  H   H34       1.0  0.08887513562543604  0.7625580591605753  0.03149547952197911  1.0000
  H   H35       1.0  0.842207410185182  0.04757493136870039  0.004818656407827905  1.0000
  H   H36       1.0  0.1577959222700329  0.9524256877340704  0.9951790219463632  1.0000
  H   H37       1.0  0.8745024142160177  0.0674283672732088  0.8790818292086087  1.0000
  H   H38       1.0  0.12549774717928844  0.9325731372740335  0.12091783325841729  1.0000
  H   H39       1.0  0.8092272358557009  0.9372837018539996  0.9501470120649176  1.0000
  H   H40       1.0  0.1907776671718082  0.0627133754708922  0.04985207579656499  1.0000
  H   H41       1.0  0.6542294448203593  0.8746154840510697  0.8647373423573158  1.0000
  H   H42       1.0  0.34577172690834607  0.1253860204961725  0.1352609081953418  1.0000
  H   H43       1.0  0.4351569799355489  0.8434257025982035  0.80573735758162  1.0000
  H   H44       1.0  0.5648416108874699  0.1565793437269178  0.19425952091158655  1.0000
  H   H45       1.0  0.22940535007141707  0.9925628855554577  0.794193256402643  1.0000
  H   H46       1.0  0.7705945312044378  0.0074403898807205  0.2058053389701868  1.0000
  H   H47       1.0  0.23578569250062031  0.1791865119328691  0.8434179809429099  1.0000
  H   H48       1.0  0.7642154792280847  0.8208149926143733  0.1565816440762902  1.0000
  C   C1        1.0  0.9700729909579807  0.5545308499535295  0.7614693654832011  1.0000
  C   C2        1.0  0.02992427949686061  0.44546976914924125  0.23853472265739842  1.0000
  C   C3        1.0  0.0601179019991491  0.558946561525012  0.6836319818735462  1.0000
  C   C4        1.0  0.9398793684556995  0.4410540575777588  0.3163721062670462  1.0000
  C   C5        1.0  0.05514477901982672  0.6016851951990247  0.5804856853518672  1.0000
  C   C6        1.0  0.9448535017684138  0.3983154239037461  0.4195183653408919  1.0000
  C   C7        1.0  0.7995818144084056  0.652015629758111  0.5518556804541888  1.0000
  C   C8        1.0  0.20041747671323412  0.3479849893446598  0.44814489662440593  1.0000
  C   C9        1.0  0.9900653477076277  0.6712519108670847  0.4292335659117228  1.0000
  C   C10       1.0  0.009935543901626412  0.3287513645691007  0.5707704898794219  1.0000
  C   C11       1.0  0.9222154381448817  0.7132157806299162  0.34240328126755054  1.0000
  C   C12       1.0  0.0777855935240979  0.2867866093617977  0.6576009644540619  1.0000
  C   C13       1.0  0.004382781941956234  0.7266630257945649  0.2602767670288912  1.0000
  C   C14       1.0  0.9956217009063837  0.2733367078637414  0.7397272489073361  1.0000
  C   C15       1.0  0.14729343859006153  0.699242581450136  0.2644145221434258  1.0000
  C   C16       1.0  0.8527109041985456  0.3007580376526349  0.7355906783288761  1.0000
  C   C17       1.0  0.21453247306682505  0.6581641561572269  0.3509603079917341  1.0000
  C   C18       1.0  0.7854699891147164  0.3418355775010795  0.649045157306695  1.0000
  C   C19       1.0  0.1342175748425376  0.6441024125304509  0.4343730028624435  1.0000
  C   C20       1.0  0.8657838770056117  0.3558973211278484  0.5656311254172836  1.0000
  C   C21       1.0  0.4795213084220507  0.1767736757523437  0.6213166974511211  1.0000
  C   C22       1.0  0.5204784028787586  0.8232242870170197  0.37868170048579236  1.0000
  C   C23       1.0  0.5475442318464944  0.222869029411811  0.5353833405788111  1.0000
  C   C24       1.0  0.4524533187278053  0.7771298188020168  0.4646128806234984  1.0000
  C   C25       1.0  0.6408408935962912  0.1746680888028749  0.471283817900563  1.0000
  C   C26       1.0  0.35915463631121014  0.8253307594109528  0.5287111037308775  1.0000
  C   C27       1.0  0.7096305547849442  0.968466399751108  0.5792689683103874  1.0000
  C   C28       1.0  0.2903680061227476  0.0315324484627268  0.4207258409775535  1.0000
  C   C29       1.0  0.8071005567747421  0.06125504842894  0.41652760771982145  1.0000
  C   C30       1.0  0.19289497313275925  0.9387437997848948  0.5834673139116192  1.0000
  C   C31       1.0  0.9118764553908393  0.9755154231761267  0.4014273446939427  1.0000
  C   C32       1.0  0.0881199447903356  0.0244843104821797  0.5985666623259293  1.0000
  C   C33       1.0  0.988381129015565  0.0053764188213421  0.3170531856951869  1.0000
  C   C34       1.0  0.01161802204634199  0.9946250857259002  0.6829423908200669  1.0000
  C   C35       1.0  0.9601453588048515  0.1163544869030062  0.2497716750901091  1.0000
  C   C36       1.0  0.039852781923663406  0.883647017644236  0.7502239388729777  1.0000
  C   C37       1.0  0.854028667110228  0.20123673556724236  0.2643954359898473  1.0000
  C   C38       1.0  0.14596933355856834  0.7987656544244713  0.7356020497425817  1.0000
  C   C39       1.0  0.7778689581147161  0.1735338344369097  0.3494904941886929  1.0000
  C   C40       1.0  0.22212845239985066  0.8264658992213896  0.6505069115496839  1.0000
  C   C41       1.0  0.8156298457673402  0.2884485886318302  0.9817624547771688  1.0000
  C   C42       1.0  0.18437101592658678  0.7115484886930616  0.018238844575442694  1.0000
  C   C43       1.0  0.6793671550901906  0.2757318351548648  0.9723362403564908  1.0000
  C   C44       1.0  0.3206344368176843  0.724267013058963  0.02766395445409131  1.0000
  C   C45       1.0  0.6112793041801937  0.19725489178602368  0.9362374980877419  1.0000
  C   C46       1.0  0.3887225678471325  0.8027421855388752  0.06376307658376842  1.0000
  C   C47       1.0  0.806938256325104  0.0328615006120714  0.9394800524971673  1.0000
  C   C48       1.0  0.19306608646351014  0.9671391184906993  0.06051896287573304  1.0000
  C   C49       1.0  0.5656312963715138  0.0461210315490987  0.8853746918619549  1.0000
  C   C50       1.0  0.4343707456308579  0.9538813584426151  0.1146240185456762  1.0000
  C   C51       1.0  0.5647573358916419  0.9417773325388339  0.858196012185644  1.0000
  C   C52       1.0  0.4352428255036642  0.058224172008408494  0.14180158858158623  1.0000
  C   C53       1.0  0.44104400334729404  0.924666118157667  0.8260995414547595  1.0000
  C   C54       1.0  0.5589578985953595  0.0753371572785184  0.1739003534889463  1.0000
  C   C55       1.0  0.3233001357273722  0.0090793475945432  0.820687763626033  1.0000
  C   C56       1.0  0.6767006158221563  0.9909248132861137  0.17931129160177756  1.0000
  C   C57       1.0  0.3252208664238411  0.11286495024705799  0.8477770352189326  1.0000
  C   C58       1.0  0.6747800251854131  0.8871383251891202  0.15222220993933183  1.0000
  C   C59       1.0  0.44781355151849317  0.1311334405504141  0.8806084003321645  1.0000
  C   C60       1.0  0.5521887706033296  0.8688671785523637  0.1193920644029305  1.0000
  N   N1        1.0  0.043863359416079085  0.503801079938512  0.8409791414544969  1.0000
  N   N2        1.0  0.9561343312179461  0.4961968828308514  0.1590248292442169  1.0000
  N   N3        1.0  0.17388368892054737  0.47792307986068033  0.8145505642888295  1.0000
  N   N4        1.0  0.8261138616537453  0.5220757683531545  0.18545184201288828  1.0000
  N   N5        1.0  0.18537070740309494  0.5101815927887401  0.720794464035791  1.0000
  N   N6        1.0  0.8146267031114718  0.4898181408695592  0.27920843956872693  1.0000
  N   N7        1.0  0.17087394810270956  0.6010175700687057  0.5288974279943803  1.0000
  N   N8        1.0  0.8291246128049821  0.3989812781451291  0.4711070025593074  1.0000
  N   N9        1.0  0.9426872739721049  0.6443521078709722  0.5236359547149121  1.0000
  N   N10       1.0  0.057313897756600306  0.3556493966762702  0.4763664192373582  1.0000
  N   N11       1.0  0.4140450895075816  0.268734167509102  0.6515478253274694  1.0000
  N   N12       1.0  0.5859585230670845  0.7312646807047258  0.34845298182072065  1.0000
  N   N13       1.0  0.4399548244191038  0.367393046680796  0.5870867049641363  1.0000
  N   N14       1.0  0.5600479178818887  0.6326049160885674  0.4129129550958126  1.0000
  N   N15       1.0  0.5190353107777456  0.3430725434255564  0.5160236584461018  1.0000
  N   N16       1.0  0.4809644005230639  0.656925419343807  0.483974052257537  1.0000
  N   N17       1.0  0.6737660739280358  0.2411755938273714  0.3856093071374289  1.0000
  N   N18       1.0  0.3262311965268125  0.7588250252753994  0.614386534203952  1.0000
  N   N19       1.0  0.7173435862279548  0.0640140933972049  0.4929817538781976  1.0000
  N   N20       1.0  0.28265093334616154  0.9359847548166299  0.5070118307345411  1.0000
  N   N21       1.0  0.600922484362485  0.3678508214717411  0.9973365680680858  1.0000
  N   N22       1.0  0.3990782372717235  0.6321471412976223  0.00266316688752966  1.0000
  N   N23       1.0  0.6845619424073561  0.43286635256442446  0.019880142441230896  1.0000
  N   N24       1.0  0.3154387792268523  0.5671316102049389  0.9801195925143844  1.0000
  N   N25       1.0  0.8151883547082406  0.3871375729154991  0.011008035493425387  1.0000
  N   N26       1.0  0.18481250698568633  0.6128595044093927  0.9889925766259182  1.0000
  N   N27       1.0  0.6676080809140927  0.0904561216023723  0.9214384300338949  1.0000
  N   N28       1.0  0.33239567172029894  0.9095418411669911  0.07856256704475574  1.0000
  N   N29       1.0  0.47996501495185845  0.22396786599897917  0.9117558675578508  1.0000
  N   N30       1.0  0.5200373071699645  0.7760327531037916  0.0882439099439765  1.0000
  Cl  Cl1       1.0  0.1786532729058905  0.30156644845367  0.0412768447305183  1.0000
  Cl  Cl2       1.0  0.8213458482406892  0.6984288579822859  0.9587235349121458  1.0000
  Cl  Cl3       1.0  0.5270489264093428  0.5095068841026631  0.7713593572303382  1.0000
  Cl  Cl4       1.0  0.4729494944386233  0.4904928495556433  0.22864007276001527  1.0000
