data_image0
_chemical_formula_structural       Al6H84C84N16O43
_chemical_formula_sum              "Al6 H84 C84 N16 O43"
_cell_length_a       13.30167806808502
_cell_length_b       13.575415575862298
_cell_length_c       28.146523080306583
_cell_angle_alpha    90.87051684753031
_cell_angle_beta     89.60260401260928
_cell_angle_gamma    118.44853960823028

_space_group_name_H-M_alt    "P 1"
_space_group_IT_number       1

loop_
  _space_group_symop_operation_xyz
  'x, y, z'

loop_
  _atom_site_type_symbol
  _atom_site_label
  _atom_site_symmetry_multiplicity
  _atom_site_fract_x
  _atom_site_fract_y
  _atom_site_fract_z
  _atom_site_occupancy
  Al  Al1       1.0  0.4141116711704528  0.5905363427161917  0.4985828751571404  1.0000
  Al  Al2       1.0  0.6479337798082127  0.5771243048591614  0.5011557446777672  1.0000
  Al  Al3       1.0  0.428484555604527  0.3613198201028639  0.4996811161986159  1.0000
  Al  Al4       1.0  0.9107055280640636  0.0669755361393527  0.0009347458402544001  1.0000
  Al  Al5       1.0  0.90307644739886  0.2997629737828477  0.0005813402611139001  1.0000
  Al  Al6       1.0  0.6792470040726998  0.088496668346842  0.0014543117023251  1.0000
  H   H1        1.0  0.790607558166656  0.5087520984969489  0.7854542696158404  1.0000
  H   H2        1.0  0.8500819163720905  0.9239124863293853  0.7107353631280517  1.0000
  H   H3        1.0  0.5821978698886383  0.45724119167479677  0.7383656855984385  1.0000
  H   H4        1.0  0.47789983407857756  0.28030242175465503  0.2851141721285302  1.0000
  H   H5        1.0  0.72595792749388  0.23563950705207057  0.3070677376175937  1.0000
  H   H6        1.0  0.5805582069336666  0.1731873426689249  0.2912402460033404  1.0000
  H   H7        1.0  0.6489778826044273  0.16041593840656532  0.21488873778258014  1.0000
  H   H8        1.0  0.7886067292942727  0.2666008328853522  0.22778917638996887  1.0000
  H   H9        1.0  0.8452099877211909  0.44638284987615867  0.2895903323154272  1.0000
  H   H10       1.0  0.46937768534508706  0.25862920943926343  0.7891045064417028  1.0000
  H   H11       1.0  0.8561426937947372  0.45390532359008523  0.2096473867797428  1.0000
  H   H12       1.0  0.9962600874118479  0.16931453560203386  0.7782157132376  1.0000
  H   H13       1.0  0.20617259949879954  0.48175533442444873  0.21078646765513304  1.0000
  H   H14       1.0  0.9801713934880071  0.21534637452776204  0.3048188149385709  1.0000
  H   H15       1.0  0.011128171015720176  0.366729845911408  0.2259792926812452  1.0000
  H   H16       1.0  0.9465089675399625  0.21839393287661585  0.2243548965383724  1.0000
  H   H17       1.0  0.520182033328723  0.14553892613505331  0.7139875269218692  1.0000
  H   H18       1.0  0.10178421875978223  0.14033078454787076  0.2940615895341452  1.0000
  H   H19       1.0  0.23661513429946276  0.2253282163221329  0.2072347413963627  1.0000
  H   H20       1.0  0.3381503447348707  0.4401843011476247  0.2820343153633544  1.0000
  H   H21       1.0  0.8075243145593163  0.8357175232269399  0.2003816278742292  1.0000
  H   H22       1.0  0.8252003924206194  0.9992801259503922  0.31208533378308806  1.0000
  H   H23       1.0  0.30583844016364753  0.5206506061733692  0.7212659741468032  1.0000
  H   H24       1.0  0.84884695062825  0.012745874680931  0.2303782084201487  1.0000
  H   H25       1.0  0.7254269864787091  0.1911937207576885  0.7620124038498162  1.0000
  H   H26       1.0  0.7478521204266144  0.06185346911935601  0.2322219154267842  1.0000
  H   H27       1.0  0.6924905595674318  0.6940639124005517  0.2779744112547888  1.0000
  H   H28       1.0  0.2721156573327832  0.23319981206222457  0.7125098826256249  1.0000
  H   H29       1.0  0.018797092643417623  0.2970495442040218  0.6949997409311877  1.0000
  H   H30       1.0  0.9493172005212145  0.10150323704594652  0.6932037837090804  1.0000
  H   H31       1.0  0.06816976660067552  0.15281550547376815  0.6622546900822002  1.0000
  H   H32       1.0  0.8790403665660091  0.24298913145666753  0.7719518825346299  1.0000
  H   H33       1.0  0.9653410995609591  0.3283777370165312  0.8116489033660272  1.0000
  H   H34       1.0  0.1601453248801192  0.4841506519682853  0.7144624048490869  1.0000
  H   H35       1.0  0.3671316265091634  0.48967912990427465  0.806902904458049  1.0000
  H   H36       1.0  0.33697508705346024  0.594547531454552  0.8065683464494172  1.0000
  H   H37       1.0  0.29376661576583274  0.29232750741068975  0.8463990460147103  1.0000
  H   H38       1.0  0.4867386630113728  0.8449379073827646  0.7912658322521223  1.0000
  H   H39       1.0  0.9260441411007388  0.4032420871998141  0.7238665053318911  1.0000
  H   H40       1.0  0.8597488319189779  0.38199791937589833  0.670972424675945  1.0000
  H   H41       1.0  0.7101907259995811  0.0096385268591419  0.6501696856627603  1.0000
  H   H42       1.0  0.745628018479735  0.09679878411259321  0.6964919839378751  1.0000
  H   H43       1.0  0.5630076689880852  0.027541613124121504  0.7630374463708806  1.0000
  H   H44       1.0  0.6005094187920506  0.017842251599610403  0.8180567732456722  1.0000
  H   H45       1.0  0.35889801462241894  0.3719264992889111  0.7337582152849648  1.0000
  H   H46       1.0  0.8376444834153104  0.035656845764457004  0.78502671128755  1.0000
  H   H47       1.0  0.699576854494545  0.7028351806979956  0.8117369805054935  1.0000
  H   H48       1.0  0.6463906405655422  0.6249782985989613  0.7352895996485671  1.0000
  H   H49       1.0  0.5066190145553904  0.5542456367046215  0.7338080524733073  1.0000
  H   H50       1.0  0.5244844942359066  0.6710879407374081  0.8418947007375834  1.0000
  H   H51       1.0  0.9554875467459852  0.955449971894538  0.7823083612372983  1.0000
  H   H52       1.0  0.8898191957121709  0.9428898654721394  0.8336220290492449  1.0000
  H   H53       1.0  0.4066867573708708  0.1739637903415812  0.22970788105904924  1.0000
  H   H54       1.0  0.4935398133317507  0.15248942147869832  0.1919217831253235  1.0000
  H   H55       1.0  0.8267917194656889  0.6251619453133659  0.2700254077430557  1.0000
  H   H56       1.0  0.14096844933415306  0.4731108420120479  0.7950825332144404  1.0000
  H   H57       1.0  0.8039796331032036  0.5797462395204179  0.3258959347724755  1.0000
  H   H58       1.0  0.6911619908918994  0.5236680203357055  0.1945567477282069  1.0000
  H   H59       1.0  0.6275846431135648  0.5096854552868991  0.2839857378225901  1.0000
  H   H60       1.0  0.5116359260768917  0.3629474261647801  0.15791939957939863  1.0000
  H   H61       1.0  0.16905610887036468  0.5070380991096287  0.2972623361478952  1.0000
  H   H62       1.0  0.024918233085578854  0.38106363392169146  0.3441914291762274  1.0000
  H   H63       1.0  0.2946031148138673  0.23634091679831218  0.3218632816296321  1.0000
  H   H64       1.0  0.38468840121606723  0.4146455778147813  0.2063594684056724  1.0000
  H   H65       1.0  0.38219304350323574  0.5269790860687708  0.1877458058777819  1.0000
  H   H66       1.0  0.044946686273199525  0.09636200421852693  0.17468437675253773  1.0000
  H   H67       1.0  0.48734353691856563  0.7101254709971414  0.7128108129160183  1.0000
  H   H68       1.0  0.0858363278868666  0.03828038477994511  0.21532617706749596  1.0000
  H   H69       1.0  0.9082963679323869  0.9045436019632124  0.27277885224904  1.0000
  H   H70       1.0  0.8671880925288207  0.8196917902636046  0.31846208668005  1.0000
  H   H71       1.0  0.6080306669247121  0.9632480888521542  0.326174090179734  1.0000
  H   H72       1.0  0.5219201006060176  0.6343805487798024  0.2569027556886496  1.0000
  H   H73       1.0  0.40798136198674234  0.6364846305998739  0.2800198966140641  1.0000
  H   H74       1.0  0.4659755537285193  0.7738244556803693  0.3407108158627352  1.0000
  H   H75       1.0  0.4639304102130524  0.7919518904574546  0.17385366933427798  1.0000
  H   H76       1.0  0.627841980402124  0.7004124446889364  0.1660957338263174  1.0000
  H   H77       1.0  0.5750248483131984  0.9932381054431334  0.2550823007459684  1.0000
  H   H78       1.0  0.564933578444986  0.9066702608450042  0.7054928028946676  1.0000
  H   H79       1.0  0.44268633563564225  0.9001326559594748  0.2446198436492182  1.0000
  H   H80       1.0  0.11556976351787542  0.11100839023313111  0.7563346986594581  1.0000
  H   H81       1.0  0.21865398001860833  0.11419895183671974  0.7901233683873771  1.0000
  H   H82       1.0  0.8041465327635607  0.7782707243344478  0.7139478954829814  1.0000
  H   H83       1.0  0.3209458378546233  0.6890365238948636  0.5264254793126639  1.0000
  H   H84       1.0  0.014221315661807081  0.9798674158359051  0.0286650852182646  1.0000
  C   C1        1.0  0.6164545365392158  0.7138001812669189  0.5664191918312937  1.0000
  C   C2        1.0  0.6346732862592576  0.3548090746565792  0.6534563772942337  1.0000
  C   C3        1.0  0.2707859692640113  0.30281200475045017  0.732275426426135  1.0000
  C   C4        1.0  0.603307881040159  0.3980345620312491  0.5653859318714964  1.0000
  C   C5        1.0  0.06605516518116163  0.26074649235466313  0.7136421501201725  1.0000
  C   C6        1.0  0.036329424458493506  0.25725087116806833  0.7674054491075424  1.0000
  C   C7        1.0  0.08770685928583791  0.28788611707416584  0.8883076877367485  1.0000
  C   C8        1.0  0.19531488010665043  0.34409879019969486  0.7065737602731161  1.0000
  C   C9        1.0  0.22605206221049198  0.2651606747937691  0.7831233647005293  1.0000
  C   C10       1.0  0.1476637907977718  0.319141589085632  0.7971182696796433  1.0000
  C   C11       1.0  0.20363655491960495  0.4456676872383626  0.7847977646138985  1.0000
  C   C12       1.0  0.6273801289194552  0.37077776314736627  0.6113389838633765  1.0000
  C   C13       1.0  0.21831552747066496  0.4567460799403876  0.7298494979179324  1.0000
  C   C14       1.0  0.1183952992671635  0.3028775229297906  0.8470595419159892  1.0000
  C   C15       1.0  0.22356957525861532  0.3583468877270732  0.6564733198568646  1.0000
  C   C16       1.0  0.2992682944532774  0.40161187852018543  0.5680577617151741  1.0000
  C   C17       1.0  0.25015322009387125  0.37284843836475556  0.6147594642208604  1.0000
  C   C18       1.0  0.5674956444290088  0.721163167899924  0.7286497519766897  1.0000
  C   C19       1.0  0.6548156991423326  0.9299345284530958  0.7136689606451299  1.0000
  C   C20       1.0  0.6748616776475702  0.9629535967199064  0.7679686302599649  1.0000
  C   C21       1.0  0.681068584811051  0.9035951464808254  0.8884300020764897  1.0000
  C   C22       1.0  0.6680649308495604  0.8232377432476599  0.7042041777268437  1.0000
  C   C23       1.0  0.6946028748511495  0.2514068003969783  0.7559016193602517  1.0000
  C   C24       1.0  0.5610029982299665  0.7514674162606383  0.7823829974693693  1.0000
  C   C25       1.0  0.6734055675754433  0.8617065570997656  0.7956736931328976  1.0000
  C   C26       1.0  0.7811381580357735  0.8486472115072491  0.7799168194927475  1.0000
  C   C27       1.0  0.7838486199863157  0.8445198791329745  0.7250286583074583  1.0000
  C   C28       1.0  0.6157282948934153  0.7087462537338922  0.433888976312602  1.0000
  C   C29       1.0  0.6763991304692922  0.8832608566086151  0.8461055672957372  1.0000
  C   C30       1.0  0.6599819084673513  0.7978877841839207  0.6536170506850354  1.0000
  C   C31       1.0  0.6459249932081548  0.7702378739560275  0.6119233028469183  1.0000
  C   C32       1.0  0.5551104557348695  0.3499688083571686  0.2700221361641155  1.0000
  C   C33       1.0  0.6650044730202538  0.24421679259972254  0.2837296727314254  1.0000
  C   C34       1.0  0.667108520672528  0.31419414951716373  0.7979478174368423  1.0000
  C   C35       1.0  0.6978130400542781  0.2438993187718381  0.2312152134468661  1.0000
  C   C36       1.0  0.7000553423191748  0.29951218610260355  0.1110163315481429  1.0000
  C   C37       1.0  0.6610972973899012  0.35379272917752075  0.2953778487610919  1.0000
  C   C38       1.0  0.5573400591450905  0.318398679225858  0.21570455707323083  1.0000
  C   C39       1.0  0.6786290906226071  0.3314041828592239  0.2033927115525103  1.0000
  C   C40       1.0  0.611804443828163  0.40419745162175513  0.43464642772593015  1.0000
  C   C41       1.0  0.7740779567745477  0.44908130320445866  0.2202280450557623  1.0000
  C   C42       1.0  0.7720582291465874  0.45506044167637333  0.2761699141523195  1.0000
  C   C43       1.0  0.688996173013564  0.3156910630154074  0.15289905231453824  1.0000
  C   C44       1.0  0.6496157523046691  0.3658959692667737  0.3460618746589219  1.0000
  C   C45       1.0  0.5806635414870057  0.2253451099169439  0.7306283569461415  1.0000
  C   C46       1.0  0.6387348633610941  0.37824760636954846  0.3883591204205318  1.0000
  C   C47       1.0  0.2520028478438334  0.4286581044225528  0.2747792533986555  1.0000
  C   C48       1.0  0.0402400391224873  0.2967418832692275  0.289358187723785  1.0000
  C   C49       1.0  0.023188849606128777  0.29474960010036716  0.23539588871904027  1.0000
  C   C50       1.0  0.07778710357623453  0.2867559327947547  0.1157922229685795  1.0000
  C   C51       1.0  0.16394647925988443  0.3187452817667449  0.29953499058907335  1.0000
  C   C52       1.0  0.2876392145713779  0.38425692579414067  0.4347004783944329  1.0000
  C   C53       1.0  0.2327788974411291  0.4191306698444137  0.2199801601986948  1.0000
  C   C54       1.0  0.12845815524880072  0.30295326904384723  0.2078870567115843  1.0000
  C   C55       1.0  0.1545818578741276  0.20845916229873754  0.22377491166636787  1.0000
  C   C56       1.0  0.6445851073057229  0.33835023839381523  0.7021561531503409  1.0000
  C   C57       1.0  0.1720289326807745  0.21610148506140092  0.2781394200058145  1.0000
  C   C58       1.0  0.10427784782472573  0.2949115375598553  0.1574536083389688  1.0000
  C   C59       1.0  0.19058987494444324  0.33039344576041435  0.3497673686682958  1.0000
  C   C60       1.0  0.22551204264310343  0.34841674161681624  0.390489797802033  1.0000
  C   C61       1.0  0.7380548579498412  0.7840912070658705  0.2708931273675006  1.0000
  C   C62       1.0  0.7415436328941923  0.9662489340310149  0.2943356343875294  1.0000
  C   C63       1.0  0.7603536437413041  0.9898419635210233  0.2405610704695107  1.0000
  C   C64       1.0  0.7604466289136127  0.366498272969956  0.7285651359354474  1.0000
  C   C65       1.0  0.687465792319287  0.9256350645292958  0.1188628023717371  1.0000
  C   C66       1.0  0.6763384991141735  0.8375846152667777  0.30086108271982687  1.0000
  C   C67       1.0  0.5517941970449128  0.28717469469228973  0.7714058257295804  1.0000
  C   C68       1.0  0.7228315385014882  0.7988787043812594  0.2177079386471021  1.0000
  C   C69       1.0  0.6770367668450064  0.8849645801663186  0.21142873493238307  1.0000
  C   C70       1.0  0.5522851779677254  0.8406116635196241  0.2313950631739985  1.0000
  C   C71       1.0  0.5486809844141973  0.7875402805773677  0.2819481710358858  1.0000
  C   C72       1.0  0.6806782185970877  0.9095067363565548  0.16142985999222498  1.0000
  C   C73       1.0  0.6697992271620095  0.8053557817426126  0.3500453646879791  1.0000
  C   C74       1.0  0.6530180351566987  0.769638138769587  0.3902944935101402  1.0000
  C   C75       1.0  0.03341899864813772  0.2586040700497493  0.9340223288910109  1.0000
  C   C76       1.0  0.7305616325240649  0.4276996945683537  0.7697687842683649  1.0000
  C   C77       1.0  0.7257103058406287  0.26089788688889126  0.934028164647593  1.0000
  C   C78       1.0  0.6160508787501513  0.3998227192210423  0.7444757341582927  1.0000
  C   C79       1.0  0.7074854737949395  0.9515169443284325  0.9356123350640075  1.0000
  C   C80       1.0  0.031157569221846895  0.263192284172611  0.0686309561972607  1.0000
  C   C81       1.0  0.723583798638451  0.2693254344604839  0.0648701253979453  1.0000
  C   C82       1.0  0.7138151080391708  0.9651962700995755  0.0708750868943469  1.0000
  C   C83       1.0  0.6984057453868573  0.2850451308446652  0.8879451409833551  1.0000
  C   C84       1.0  0.6820403550259185  0.2985846627327717  0.846470541733602  1.0000
  N   N1        1.0  0.0366738000941353  0.1479090127721037  0.6959118181140269  1.0000
  N   N2        1.0  0.7759642605911381  0.5603626006018275  0.2916869594849771  1.0000
  N   N3        1.0  0.3330650638090163  0.4425615746196244  0.1914924896979073  1.0000
  N   N4        1.0  0.06053733232040771  0.09764685305845693  0.21034758350435112  1.0000
  N   N5        1.0  0.8581050007194121  0.8232472176412673  0.2825754353964811  1.0000
  N   N6        1.0  0.4945062380783938  0.6676201829035976  0.2836395009317414  1.0000
  N   N7        1.0  0.523881141540933  0.9319907112579245  0.23138414280464303  1.0000
  N   N8        1.0  0.16044952014735261  0.14284728019799084  0.7874905868723233  1.0000
  N   N9        1.0  0.9605933134339467  0.30650604801590486  0.7764098190027583  1.0000
  N   N10       1.0  0.30468978295857596  0.5113002034987204  0.8134102690111787  1.0000
  N   N11       1.0  0.8661051838000305  0.41329008307855036  0.7046419397283968  1.0000
  N   N12       1.0  0.7369255396556369  0.021786544180862705  0.6846937356987155  1.0000
  N   N13       1.0  0.5791862386639437  0.9785157175868094  0.7855277496155253  1.0000
  N   N14       1.0  0.5756831330996378  0.620162471988053  0.719013822287451  1.0000
  N   N15       1.0  0.8824436585062543  0.9478300915638088  0.7976515485100961  1.0000
  N   N16       1.0  0.4680582325009368  0.20775629095891907  0.20426136562664252  1.0000
  O   O1        1.0  0.32445388465690433  0.49775741294558173  0.5529893127575747  1.0000
  O   O2        1.0  0.6519864635935875  0.17032352974808163  0.9536667061422933  1.0000
  O   O3        1.0  0.6343412099029208  0.9766512855257333  0.954876751606605  1.0000
  O   O4        1.0  0.5222109675376103  0.6939675264793196  0.5480523684601266  1.0000
  O   O5        1.0  0.8099259235033782  0.9833885531301975  0.05494479912356811  1.0000
  O   O6        1.0  0.012531151730250682  0.1706886729424468  0.04991442697446051  1.0000
  O   O7        1.0  0.007880721994425292  0.3362089094419931  0.050041017576695906  1.0000
  O   O8        1.0  0.8184755388226322  0.3364491528908786  0.0453340959156634  1.0000
  O   O9        1.0  0.6502034751967899  0.1742099332144491  0.04762606741768851  1.0000
  O   O10       1.0  0.6387805772215387  0.9826189158165662  0.049087074039619  1.0000
  O   O11       1.0  0.8297104874971312  0.15203351790139413  0.0010504683395354002  1.0000
  O   O12       1.0  0.6828682695902587  0.49841961924809663  0.4534841322738359  1.0000
  O   O13       1.0  0.6884741196193643  0.6841617130765345  0.5492572354339131  1.0000
  O   O14       1.0  0.6751393113996685  0.491536887706694  0.5474372899088067  1.0000
  O   O15       1.0  0.5077965280232278  0.32794158777999644  0.54637159443039  1.0000
  O   O16       1.0  0.3167297539646797  0.3269146457976009  0.5461320980228735  1.0000
  O   O17       1.0  0.3113760979379805  0.47999800123358943  0.4506626890141164  1.0000
  O   O18       1.0  0.5135478038071214  0.6776493015814185  0.44622126416187763  1.0000
  O   O19       1.0  0.6885818614927788  0.6883512423816713  0.45584406377920317  1.0000
  O   O20       1.0  0.3228004641210873  0.30464696153217835  0.8137480554599533  1.0000
  O   O21       1.0  0.4628050252824707  0.7615252444829892  0.7913466691723058  1.0000
  O   O22       1.0  0.7784019017382562  0.06130151336365942  0.7764707425922168  1.0000
  O   O23       1.0  0.5162084537488456  0.3340535422233871  0.4527708934076458  1.0000
  O   O24       1.0  0.7770602239116471  0.7500309876257347  0.7988230963373439  1.0000
  O   O25       1.0  0.5538128930688232  0.6617487269905029  0.8110864435048768  1.0000
  O   O26       1.0  0.7713371623022738  0.5400889579612809  0.198004851025118  1.0000
  O   O27       1.0  0.5473912323289696  0.44855335422101217  0.2778821613970308  1.0000
  O   O28       1.0  0.5404330295025943  0.399261371456355  0.18876217536311657  1.0000
  O   O29       1.0  0.24953089279591015  0.5248411982825658  0.2945818337438268  1.0000
  O   O30       1.0  0.017826502117444087  0.3825880621192613  0.30969447590349114  1.0000
  O   O31       1.0  0.27926440172817735  0.22051996381758712  0.2878813272380683  1.0000
  O   O32       1.0  0.6840567130455925  0.021844078272614805  0.3159957598891339  1.0000
  O   O33       1.0  0.48588012087962806  0.8231794627988692  0.31321045585369944  1.0000
  O   O34       1.0  0.31736411260259706  0.3150114385422357  0.45275091294711695  1.0000
  O   O35       1.0  0.46985937927162513  0.7537851040832494  0.2020650424539667  1.0000
  O   O36       1.0  0.6504857909645311  0.6906997694558401  0.19784431337370736  1.0000
  O   O37       1.0  0.4972639383159319  0.5089594864505571  0.4998781295748103  1.0000
  O   O38       1.0  0.8020824611153544  0.9693237526581345  0.9525216645306288  1.0000
  O   O39       1.0  0.0025617454096505403  0.16069573795751074  0.9483930906278032  1.0000
  O   O40       1.0  0.01691593123752711  0.3343564176486567  0.9556801042837152  1.0000
  O   O41       1.0  0.8236643595077028  0.3290852882752234  0.9513995178573822  1.0000
  O   O42       1.0  0.33591282288041685  0.6637745161959574  0.4962207054769224  1.0000
  O   O43       1.0  0.9795405190563002  0.9847012451217979  0.999359816311447  1.0000
