data_image0
_chemical_formula_structural       Al2H14C26Br2N2O12
_chemical_formula_sum              "Al2 H14 C26 Br2 N2 O12"
_cell_length_a       6.715554220107322
_cell_length_b       11.081415083036797
_cell_length_c       17.071406683531123
_cell_angle_alpha    84.58337745042637
_cell_angle_beta     81.386134823977
_cell_angle_gamma    72.80038433753259

_space_group_name_H-M_alt    "P 1"
_space_group_IT_number       1

loop_
  _space_group_symop_operation_xyz
  'x, y, z'

loop_
  _atom_site_type_symbol
  _atom_site_label
  _atom_site_symmetry_multiplicity
  _atom_site_fract_x
  _atom_site_fract_y
  _atom_site_fract_z
  _atom_site_occupancy
  Al  Al1       1.0  0.4970652182025718  0.5010390179028263  0.49608996538614747  1.0000
  Al  Al2       1.0  0.9965190639099218  0.5009445903618756  0.4963592048353788  1.0000
  H   H1        1.0  0.18831693367570063  0.6516478681888673  0.4513635136592881  1.0000
  H   H2        1.0  0.8062493033585127  0.35235957129301454  0.5453145258690667  1.0000
  H   H3        1.0  0.8392414091891782  0.4997066836861779  0.7396735336404276  1.0000
  H   H4        1.0  0.7838897573291704  0.4983633152882022  0.887437336568979  1.0000
  H   H5        1.0  0.42565310634387293  0.49820671516128107  0.8864206627933767  1.0000
  H   H6        1.0  0.5703718307251792  0.5065150318247404  0.10612517738880459  1.0000
  H   H7        1.0  0.22352623761114643  0.47861880018525954  0.1070802406445779  1.0000
  H   H8        1.0  0.16510651642857965  0.48102825724690496  0.2547236204707275  1.0000
  H   H9        1.0  0.8795150456972536  0.7664601899919462  0.6076532905521219  1.0000
  H   H10       1.0  0.6190734251748536  0.2350917776222162  0.604976039109438  1.0000
  H   H11       1.0  0.1885758121029397  0.11758628159630294  0.4433904507091739  1.0000
  H   H12       1.0  0.30622127408399535  0.881353127994743  0.4500800795601449  1.0000
  H   H13       1.0  0.5154998969152657  0.49685387598405845  0.6754055646378133  1.0000
  H   H14       1.0  0.4768536530071542  0.5111585437098756  0.3169069485899314  1.0000
  C   C1        1.0  0.6298752130750318  0.7272651857027413  0.5092738290598149  1.0000
  C   C2        1.0  0.8068571292326328  0.4993346334925022  0.3514379816286493  1.0000
  C   C3        1.0  0.3574505151285338  0.27373220038326457  0.49800672323665646  1.0000
  C   C4        1.0  0.18906362257499146  0.4995507501195889  0.6419800969219054  1.0000
  C   C5        1.0  0.16299229254747166  0.49896511995663667  0.7289041758105625  1.0000
  C   C6        1.0  0.9668242911335059  0.49907482053895097  0.7721938019139641  1.0000
  C   C7        1.0  0.9348076569422831  0.4983586115921882  0.8538863409684438  1.0000
  C   C8        1.0  0.10272313687856634  0.49797100870919325  0.894853323975191  1.0000
  C   C9        1.0  0.29833424002660547  0.49846615830308144  0.8535998925008456  1.0000
  C   C10       1.0  0.3310621293535263  0.4987091527483687  0.7706048987635015  1.0000
  C   C11       1.0  0.6996385029726041  0.5007423766382149  0.1393414541887452  1.0000
  C   C12       1.0  0.8990009918410989  0.49317223017173034  0.0986342690959532  1.0000
  C   C13       1.0  0.06957977800301056  0.48514959688451853  0.1401630807960856  1.0000
  C   C14       1.0  0.03601201696793049  0.4861713246864456  0.22180463659556438  1.0000
  C   C15       1.0  0.8357442842416207  0.4952775025767125  0.2645878849590133  1.0000
  C   C16       1.0  0.665244404099397  0.5024486478779198  0.2222990760308221  1.0000
  C   C17       1.0  0.5570148432692436  0.8668222578802018  0.5173271661367735  1.0000
  C   C18       1.0  0.6606457061888096  0.9323959945567851  0.5587026540164217  1.0000
  C   C19       1.0  0.3849365612421136  0.9335288210248938  0.47968187838833387  1.0000
  C   C20       1.0  0.8249211294651388  0.8691886665761787  0.6045116044149026  1.0000
  C   C21       1.0  0.9165349598607121  0.9353846590994837  0.6458280079987588  1.0000
  C   C22       1.0  0.42198228748937777  0.13342250021324284  0.5111862431930092  1.0000
  C   C23       1.0  0.31824748254933877  0.06612933841222461  0.47608565241095135  1.0000
  C   C24       1.0  0.5889284716959153  0.06837391375742642  0.5564708173412284  1.0000
  C   C25       1.0  0.680560650773394  0.13307122838281776  0.6021157188014357  1.0000
  C   C26       1.0  0.8423012135691436  0.0693942259720188  0.6450679341689494  1.0000
  Br  Br1       1.0  0.13741445835533742  0.8440688567474126  0.7042409110687727  1.0000
  Br  Br2       1.0  0.9567981378413889  0.16556884626383092  0.7024074929329558  1.0000
  N   N1        1.0  0.08969788439377169  0.4972317769258083  0.9784363847948683  1.0000
  N   N2        1.0  0.9125349669451026  0.49410820854006954  0.015067612641885797  1.0000
  O   O1        1.0  0.48873897786312887  0.6724558893515038  0.5069690719648676  1.0000
  O   O2        1.0  0.9613642682210825  0.4972703067928281  0.38696088080487095  1.0000
  O   O3        1.0  0.16260362813525125  0.3282347633871013  0.4957499728794303  1.0000
  O   O4        1.0  0.37649400981168657  0.4918740643910626  0.6055323881752415  1.0000
  O   O5        1.0  0.5010491689166869  0.32945833576019373  0.4886796319999931  1.0000
  O   O6        1.0  0.03238854449004699  0.505742620373681  0.6065926613707262  1.0000
  O   O7        1.0  0.8271390228914516  0.6730560773078126  0.5020721429422537  1.0000
  O   O8        1.0  0.6191622906976166  0.5069119628031161  0.3875872107481584  1.0000
  O   O9        1.0  0.23080864040437626  0.5607194462000467  0.46235079332865325  1.0000
  O   O10       1.0  0.7619564145926888  0.4423370404119071  0.5308034661115355  1.0000
  O   O11       1.0  0.5224624038841056  0.4997356129867186  0.7333974078398242  1.0000
  O   O12       1.0  0.46910080621911726  0.5118163082988902  0.25870961667583  1.0000
