data_image0
_chemical_formula_structural       Cu12H72C96N36
_chemical_formula_sum              "Cu12 H72 C96 N36"
_cell_length_a       33.479665231922795
_cell_length_b       33.99464096682182
_cell_length_c       34.27408239608583
_cell_angle_alpha    89.61819895009569
_cell_angle_beta     90.15837942988428
_cell_angle_gamma    89.75277523306572

_space_group_name_H-M_alt    "P 1"
_space_group_IT_number       1

loop_
  _space_group_symop_operation_xyz
  'x, y, z'

loop_
  _atom_site_type_symbol
  _atom_site_label
  _atom_site_symmetry_multiplicity
  _atom_site_fract_x
  _atom_site_fract_y
  _atom_site_fract_z
  _atom_site_occupancy
  Cu  Cu1       1.0  0.3781072960526686  0.5869907688421635  0.6725099951404088  1.0000
  Cu  Cu2       1.0  0.3412658913842321  0.622389994797672  0.5943764684934861  1.0000
  Cu  Cu3       1.0  0.41956307701251927  0.6596020623460465  0.6311211497834461  1.0000
  Cu  Cu4       1.0  0.6216100814409274  0.9127070139751154  0.17050001941515794  1.0000
  Cu  Cu5       1.0  0.6593100095252281  0.8767436520984404  0.09385494860715939  1.0000
  Cu  Cu6       1.0  0.5759213087437374  0.8453556165462855  0.1251022214545046  1.0000
  Cu  Cu7       1.0  0.8754111889359137  0.4112671355535654  0.8466951204265099  1.0000
  Cu  Cu8       1.0  0.8323389089452248  0.3687639590011927  0.918032710075195  1.0000
  Cu  Cu9       1.0  0.9069439405954114  0.3288832913349751  0.8781789673534275  1.0000
  Cu  Cu10      1.0  0.12582402789047356  0.0909039039204984  0.3463606489335475  1.0000
  Cu  Cu11      1.0  0.1636788552859727  0.1264774098139583  0.42317849119241646  1.0000
  Cu  Cu12      1.0  0.0949886342044337  0.1730989699666026  0.37776422469428167  1.0000
  H   H1        1.0  0.3060824119871626  0.532195426786757  0.6996240862142996  1.0000
  H   H2        1.0  0.2656921680561979  0.5672201226272692  0.5842304385487649  1.0000
  H   H3        1.0  0.49303084508811423  0.6729632704852337  0.688257623726848  1.0000
  H   H4        1.0  0.4479830564023927  0.5615461487764223  0.7312808634670063  1.0000
  H   H5        1.0  0.33068956371088376  0.6761358642982529  0.5188809046649253  1.0000
  H   H6        1.0  0.4414470823293541  0.722150666004062  0.5653426793666794  1.0000
  H   H7        1.0  0.6931166939543941  0.9675176127509175  0.19817260130154318  1.0000
  H   H8        1.0  0.7370723089410873  0.9294470971187538  0.0856865115623719  1.0000
  H   H9        1.0  0.5017590283030556  0.8323220554638127  0.18151652882636424  1.0000
  H   H10       1.0  0.5550938390083076  0.9359908861526662  0.23251534740590768  1.0000
  H   H11       1.0  0.6717458242883014  0.821195843908221  0.020910108793849195  1.0000
  H   H12       1.0  0.5516460812146063  0.7889575268971285  0.05512215070538669  1.0000
  H   H13       1.0  0.8249303128023442  0.49024980453705075  0.8415579265910224  1.0000
  H   H14       1.0  0.7746037979348086  0.4375992730385435  0.9457843599602641  1.0000
  H   H15       1.0  0.9662236170472553  0.30579246187188147  0.809797115671216  1.0000
  H   H16       1.0  0.9322593123407046  0.4236853168862923  0.7735219849856347  1.0000
  H   H17       1.0  0.804437568144195  0.2977592662046932  0.9732244661883623  1.0000
  H   H18       1.0  0.9207400669369578  0.25618788696961303  0.9360208857022553  1.0000
  H   H19       1.0  0.1776730708460761  0.0131212021262854  0.33793012195919647  1.0000
  H   H20       1.0  0.21859407365293754  0.0543088675862577  0.45050349098938364  1.0000
  H   H21       1.0  0.03698052673200179  0.19849334036641866  0.30787187754624057  1.0000
  H   H22       1.0  0.06918448251195028  0.08027066244224561  0.27287646933368837  1.0000
  H   H23       1.0  0.1885206345342922  0.19126266544796522  0.4851432340134919  1.0000
  H   H24       1.0  0.0831031147104966  0.2457913377806662  0.43443709756868987  1.0000
  H   H25       1.0  0.7760546037966591  0.9974035970929976  0.089490996860377  1.0000
  H   H26       1.0  0.8324765010522128  0.027131750920730707  0.15561010511629544  1.0000
  H   H27       1.0  0.7732519799096452  0.9909083148362327  0.17910667825157126  1.0000
  H   H28       1.0  0.8238869230639948  0.050123460052475415  0.06873860992161697  1.0000
  H   H29       1.0  0.2269594321535919  0.49903694026846773  0.589138986578881  1.0000
  H   H30       1.0  0.1677732854093321  0.4718318631535185  0.6540684607367309  1.0000
  H   H31       1.0  0.22656319454668508  0.5081210459873657  0.6784885067388443  1.0000
  H   H32       1.0  0.17954314001660518  0.44560859427581084  0.568827015438458  1.0000
  H   H33       1.0  0.24587310924084  0.9736641601151491  0.3408950992878771  1.0000
  H   H34       1.0  0.2749402638056111  0.9149864820300666  0.40550893618256356  1.0000
  H   H35       1.0  0.2402425129824195  0.9743128703137176  0.43056340866380777  1.0000
  H   H36       1.0  0.2979629713339591  0.9255107403060308  0.3189580017916923  1.0000
  H   H37       1.0  0.7560705229245103  0.5289552387279954  0.8421526068577447  1.0000
  H   H38       1.0  0.7226358825379364  0.5822483917394479  0.9084047787039535  1.0000
  H   H39       1.0  0.7551557429092384  0.5199479549718191  0.9316022308586509  1.0000
  H   H40       1.0  0.704516150084764  0.5777012621816197  0.8202294660875963  1.0000
  H   H41       1.0  0.0006276454135161  0.0844345984914128  0.23589290051014428  1.0000
  H   H42       1.0  0.9711633686753771  0.1477544098654562  0.17593805232851875  1.0000
  H   H43       1.0  0.009189895060600901  0.17456979264492392  0.23189839587051606  1.0000
  H   H44       1.0  0.9467355283841101  0.0613886591179735  0.18998408152084778  1.0000
  H   H45       1.0  0.5285260370094562  0.6721342759249539  0.7591616246168511  1.0000
  H   H46       1.0  0.5878475435479089  0.6074630097750673  0.7890336497026735  1.0000
  H   H47       1.0  0.5292235971532122  0.5817466826243278  0.7537376632773841  1.0000
  H   H48       1.0  0.5757385056839868  0.6941898824716973  0.8124213693985352  1.0000
  H   H49       1.0  0.9994229081057217  0.4195551399308783  0.7335324339141848  1.0000
  H   H50       1.0  0.028543262825941405  0.35432642175414486  0.6764472248885551  1.0000
  H   H51       1.0  0.9926504288142369  0.32921105848445364  0.7340165993910757  1.0000
  H   H52       1.0  0.0526894666158526  0.4412474931764125  0.6860043211911132  1.0000
  H   H53       1.0  0.46909068771071116  0.8284029529949138  0.2550027505578568  1.0000
  H   H54       1.0  0.4136632525212605  0.8938046489473808  0.2888516302957455  1.0000
  H   H55       1.0  0.47300285663843766  0.9188923075182773  0.2545407085341366  1.0000
  H   H56       1.0  0.42284463639106923  0.8057792455720049  0.3095973718480919  1.0000
  H   H57       1.0  0.9182237380640643  0.22253274274041962  0.008075866227770196  1.0000
  H   H58       1.0  0.853849396257914  0.16238682632653936  0.035758262790430685  1.0000
  H   H59       1.0  0.8269747912110789  0.2183355230980268  0.9973866236206417  1.0000
  H   H60       1.0  0.9401486000038232  0.17772687592859174  0.06340353419565048  1.0000
  H   H61       1.0  0.3294456931273615  0.7455628771650853  0.4823591176220957  1.0000
  H   H62       1.0  0.3951289779077669  0.7791732124089494  0.4271597379435119  1.0000
  H   H63       1.0  0.4213562712236296  0.7457199155580909  0.48643573721542305  1.0000
  H   H64       1.0  0.3053691271332184  0.7982997956885926  0.4352464565000672  1.0000
  H   H65       1.0  0.6686053265362873  0.7529464112822026  0.9848552496622176  1.0000
  H   H66       1.0  0.6053634148580471  0.7248992477471249  0.9241263504380652  1.0000
  H   H67       1.0  0.5772206309264973  0.7624562737396161  0.9791308991875594  1.0000
  H   H68       1.0  0.6923911418195132  0.6988910499561173  0.9399106254810685  1.0000
  H   H69       1.0  0.0800782926998167  0.2778206610115603  0.5073234050291973  1.0000
  H   H70       1.0  0.1470505995642384  0.33116397943945236  0.5415180695222331  1.0000
  H   H71       1.0  0.1718987525796152  0.27217196738160965  0.5076259589387462  1.0000
  H   H72       1.0  0.057477953997711495  0.3241838984275702  0.5611660032960726  1.0000
  C   C1        1.0  0.3017751814015313  0.5449498560314652  0.6707921340017007  1.0000
  C   C2        1.0  0.27086739296667867  0.5384962113968328  0.6436904025517121  1.0000
  C   C3        1.0  0.28153099532815423  0.5621304190005674  0.6114852267957005  1.0000
  C   C4        1.0  0.47610343967442503  0.6466661167357871  0.6951221008490476  1.0000
  C   C5        1.0  0.48525025167202057  0.6158428276712442  0.7213404303886932  1.0000
  C   C6        1.0  0.45354377042179544  0.5892724051858809  0.7164049036537179  1.0000
  C   C7        1.0  0.35686742003195343  0.6836614712747675  0.535980571038138  1.0000
  C   C8        1.0  0.3872731247387761  0.7109639677055954  0.5277226455349151  1.0000
  C   C9        1.0  0.4139234647286685  0.7065298055620276  0.5592929391914011  1.0000
  C   C10       1.0  0.6982994262548772  0.9540404677684651  0.17000015888741155  1.0000
  C   C11       1.0  0.7301448623311515  0.9596156750789439  0.14385410863711454  1.0000
  C   C12       1.0  0.7203786474300885  0.9352954558868234  0.11213926380657567  1.0000
  C   C13       1.0  0.5205551845458628  0.8567313450537881  0.19012421954360545  1.0000
  C   C14       1.0  0.5141448724474457  0.885259413537483  0.21906459211593435  1.0000
  C   C15       1.0  0.547329427847643  0.9102825068010676  0.21551296632065226  1.0000
  C   C16       1.0  0.6431147145581165  0.8169129510063374  0.03506422695833319  1.0000
  C   C17       1.0  0.6105460956090029  0.7935708850671691  0.023545967166576493  1.0000
  C   C18       1.0  0.5814171491118003  0.8011301066542205  0.052094600462396584  1.0000
  C   C19       1.0  0.8160862503680306  0.47149682132747023  0.8657520142500912  1.0000
  C   C20       1.0  0.7886729426511252  0.4789404329059226  0.8959279978575052  1.0000
  C   C21       1.0  0.791044240079465  0.4449508919316899  0.9194933246051489  1.0000
  C   C22       1.0  0.9536525273580734  0.3351034013870447  0.8063357624868528  1.0000
  C   C23       1.0  0.9608720751083552  0.36340849269110725  0.7770646832930905  1.0000
  C   C24       1.0  0.9369490982109809  0.3956285020374822  0.7881605197578448  1.0000
  C   C25       1.0  0.8333618391463061  0.2929793122287521  0.9597729750866361  1.0000
  C   C26       1.0  0.8612002907797489  0.2624703145166337  0.9662244553675305  1.0000
  C   C27       1.0  0.893220384575379  0.2722085224574046  0.9414690256041635  1.0000
  C   C28       1.0  0.1842550706664596  0.0291732218252321  0.36442813099167637  1.0000
  C   C29       1.0  0.2091366858212993  0.0185696041624226  0.3960122036148092  1.0000
  C   C30       1.0  0.20445084731928634  0.0498307032746084  0.422344824336882  1.0000
  C   C31       1.0  0.0492296804489243  0.1690697999921582  0.30469218017609007  1.0000
  C   C32       1.0  0.04130337142597539  0.1408227204568888  0.2758707416084434  1.0000
  C   C33       1.0  0.06500184012190861  0.1083508073907993  0.28722593240141947  1.0000
  C   C34       1.0  0.16228397914226628  0.19944075525095434  0.46819913349656145  1.0000
  C   C35       1.0  0.137162963096074  0.2324949821161226  0.4718763113950003  1.0000
  C   C36       1.0  0.1078469960692274  0.22683321709171628  0.4429408807882921  1.0000
  C   C37       1.0  0.8697695810397689  0.07549388548514462  0.10520967054996785  1.0000
  C   C38       1.0  0.9227560463663947  0.09564849538907085  0.1417577172704867  1.0000
  C   C39       1.0  0.9049310176307089  0.1298185338992255  0.08691817489381747  1.0000
  C   C40       1.0  0.13154160298108053  0.42263311755596794  0.6043913350513606  1.0000
  C   C41       1.0  0.0767171268436329  0.40520254718843063  0.6396936537823803  1.0000
  C   C42       1.0  0.0948715932807431  0.36927723238378013  0.5866493963558097  1.0000
  C   C43       1.0  0.32242861089422087  0.8780324470517584  0.3541122686713009  1.0000
  C   C44       1.0  0.341426612049041  0.8239648333800106  0.38928087758372937  1.0000
  C   C45       1.0  0.37670664095843875  0.8421954728398618  0.3353869628553099  1.0000
  C   C46       1.0  0.6777328039928181  0.6226187153719284  0.8563090617404111  1.0000
  C   C47       1.0  0.6579260666710239  0.6757345807806132  0.8916665984410626  1.0000
  C   C48       1.0  0.6234361379282588  0.6584817879655064  0.8369940043334265  1.0000
  C   C49       1.0  0.7645225052395263  0.9845550721558568  0.14901063916388316  1.0000
  C   C50       1.0  0.7858743865054904  0.0013606460253541004  0.11970691532732046  1.0000
  C   C51       1.0  0.819927108224661  0.02592179539200151  0.12612383411449454  1.0000
  C   C52       1.0  0.836619963750927  0.0488569900111884  0.09809134919807147  1.0000
  C   C53       1.0  0.2363807848482011  0.5135931832203156  0.6485064191538965  1.0000
  C   C54       1.0  0.2160550508151005  0.49596434609277656  0.6190934113920861  1.0000
  C   C55       1.0  0.18156747108125873  0.4718609422942065  0.625152489198264  1.0000
  C   C56       1.0  0.16566681544116338  0.4481619475409532  0.5975069871366898  1.0000
  C   C57       1.0  0.23373540168915244  0.9838493026423407  0.40064542808560316  1.0000
  C   C58       1.0  0.24992452707844143  0.9630121981976598  0.3708739957661179  1.0000
  C   C59       1.0  0.27388582417936647  0.9283580076872583  0.3763880297327232  1.0000
  C   C60       1.0  0.29642647118834725  0.9119734448983936  0.3478969066920782  1.0000
  C   C61       1.0  0.7638284564603027  0.51327329903782  0.9015925854196565  1.0000
  C   C62       1.0  0.7498601376286871  0.536906521942086  0.8724552883471971  1.0000
  C   C63       1.0  0.72543027649818  0.5710531733883641  0.8786639719738145  1.0000
  C   C64       1.0  0.7043950257412774  0.5893109755139677  0.8498677396081715  1.0000
  C   C65       1.0  0.015112050708047801  0.14466526583782985  0.24252394244060566  1.0000
  C   C66       1.0  0.9969749561244683  0.11425502288904003  0.22410618643505834  1.0000
  C   C67       1.0  0.971966942571136  0.11895845325555854  0.19039708721514603  1.0000
  C   C68       1.0  0.9485628223645649  0.09010677871455643  0.17564704893518265  1.0000
  C   C69       1.0  0.5194166141575992  0.6117796049696054  0.7469230510540751  1.0000
  C   C70       1.0  0.5395545979813079  0.6420374151135064  0.7634676977676519  1.0000
  C   C71       1.0  0.5739699526649247  0.6366657338754537  0.7879653900943352  1.0000
  C   C72       1.0  0.589682588728941  0.6651496247841922  0.8108178499740146  1.0000
  C   C73       1.0  0.9863320550298696  0.35930985830074763  0.7434225644240938  1.0000
  C   C74       1.0  0.0033561744643079987  0.38937226830293536  0.7232105288704316  1.0000
  C   C75       1.0  0.027721447808396197  0.38366938273930634  0.689385708485325  1.0000
  C   C76       1.0  0.05076806276894529  0.41205184543718343  0.6730465779113713  1.0000
  C   C77       1.0  0.4810218350080363  0.8889789076275961  0.24576556774611186  1.0000
  C   C78       1.0  0.45983180251763395  0.8586612058618713  0.26115630093379133  1.0000
  C   C79       1.0  0.42633238284305713  0.8641703888449827  0.2866109786338526  1.0000
  C   C80       1.0  0.41000079931195194  0.8353604999794372  0.3089137969652497  1.0000
  C   C81       1.0  0.857302221449892  0.2290119670281427  0.9921423169063313  1.0000
  C   C82       1.0  0.8880169028591139  0.21064156715812746  0.010889149333458198  1.0000
  C   C83       1.0  0.882873748865471  0.17708182385815976  0.0359082490439491  1.0000
  C   C84       1.0  0.9113392380077272  0.16304405311078807  0.06063609734027147  1.0000
  C   C85       1.0  0.3910152548598376  0.7370217839805521  0.4944875840311268  1.0000
  C   C86       1.0  0.36007900358278994  0.7518114189700498  0.4731652423310704  1.0000
  C   C87       1.0  0.3651368957293144  0.776610282689532  0.43952998057329024  1.0000
  C   C88       1.0  0.3353157130365361  0.7979288269126743  0.42269097825113977  1.0000
  C   C89       1.0  0.6073420256540912  0.7679540659082635  0.9902801010328798  1.0000
  C   C90       1.0  0.6385773574258877  0.7497778851978726  0.972558570859064  1.0000
  C   C91       1.0  0.6343000397665151  0.7251506228856784  0.9390681420656147  1.0000
  C   C92       1.0  0.6635342468844243  0.7013314568689637  0.9251316801795324  1.0000
  C   C93       1.0  0.1414191566161307  0.26490612477923753  0.49863303219974847  1.0000
  C   C94       1.0  0.1108943459081075  0.2863315968993163  0.513758743441336  1.0000
  C   C95       1.0  0.11681709612525991  0.31929122679095207  0.5390323838616593  1.0000
  C   C96       1.0  0.0876765834972346  0.3361963287320719  0.5607200943353233  1.0000
  N   N1        1.0  0.3158943337694993  0.581075786458513  0.6190339790114903  1.0000
  N   N2        1.0  0.3287932484599311  0.5699826980410237  0.6556970564184964  1.0000
  N   N3        1.0  0.4274597410313987  0.6034545593735886  0.6897759524448971  1.0000
  N   N4        1.0  0.4418180625587879  0.6388522339245314  0.6761198453598993  1.0000
  N   N5        1.0  0.40018706156799777  0.6791555417083118  0.5844208811766336  1.0000
  N   N6        1.0  0.3649898241580303  0.664597835736828  0.5696530557813588  1.0000
  N   N7        1.0  0.6856087025158359  0.9168168278117081  0.11908554822649357  1.0000
  N   N8        1.0  0.671591838127668  0.9288562622979343  0.15481343095520825  1.0000
  N   N9        1.0  0.5716620949098328  0.8973636753054278  0.18706969044761473  1.0000
  N   N10       1.0  0.5547052528179536  0.8644244347208457  0.17090153378933334  1.0000
  N   N11       1.0  0.5957654108577373  0.826486766262569  0.07865749676120967  1.0000
  N   N12       1.0  0.6339054761290228  0.836697977150017  0.0677311348869409  1.0000
  N   N13       1.0  0.8173395095703384  0.4192370741231741  0.9042213898341981  1.0000
  N   N14       1.0  0.8332800470167426  0.4359945948648446  0.871108375616579  1.0000
  N   N15       1.0  0.9171480884925742  0.38695125634708216  0.8212250527223615  1.0000
  N   N16       1.0  0.9279133830539336  0.34950970188101854  0.8328117011265801  1.0000
  N   N17       1.0  0.8848793239643057  0.3057246166131621  0.9218733797479712  1.0000
  N   N18       1.0  0.8479403500327153  0.3189854873353326  0.9337035364853816  1.0000
  N   N19       1.0  0.1792245116939952  0.07699349081848789  0.4073512355951577  1.0000
  N   N20       1.0  0.16628435490804347  0.06386149206668532  0.3715887560665791  1.0000
  N   N21       1.0  0.0853022573217928  0.11679523015592252  0.3200403030022016  1.0000
  N   N22       1.0  0.0751216828543733  0.15434836819570563  0.33122139722182437  1.0000
  N   N23       1.0  0.11515633678432378  0.1931894896460875  0.4236401978801324  1.0000
  N   N24       1.0  0.1486647628855735  0.17586286984012395  0.4397214214854656  1.0000
  N   N25       1.0  0.8931562564705261  0.06933234591955538  0.13694082762726364  1.0000
  N   N26       1.0  0.9300566709874616  0.1263731528967114  0.11753704332862469  1.0000
  N   N27       1.0  0.8745738572621065  0.10492050108560852  0.07911668243345098  1.0000
  N   N28       1.0  0.10719430789797711  0.4305408290450004  0.6348017333574701  1.0000
  N   N29       1.0  0.0688740349588031  0.3743509565641575  0.6161667175660668  1.0000
  N   N30       1.0  0.12670312761908056  0.3925471545159455  0.5794030730280113  1.0000
  N   N31       1.0  0.315199805186019  0.8538727030101685  0.3847758723164389  1.0000
  N   N32       1.0  0.3725642133287081  0.8166048376120474  0.3653076981748099  1.0000
  N   N33       1.0  0.35240782759685624  0.8733208283293551  0.3283460065587675  1.0000
  N   N34       1.0  0.6839654296437344  0.6456278840658315  0.8877652239446757  1.0000
  N   N35       1.0  0.6273046066167254  0.6836349554270883  0.8669575493307702  1.0000
  N   N36       1.0  0.6482455159884211  0.6278718338570783  0.8298944515856801  1.0000
