data_image0
_chemical_formula_structural       Cd4H24C36I4N28
_chemical_formula_sum              "Cd4 H24 C36 I4 N28"
_cell_length_a       8.101337448878372
_cell_length_b       10.750164551875441
_cell_length_c       15.068486751001545
_cell_angle_alpha    89.99997022046709
_cell_angle_beta     89.99997054467485
_cell_angle_gamma    110.66349311632361

_space_group_name_H-M_alt    "P 1"
_space_group_IT_number       1

loop_
  _space_group_symop_operation_xyz
  'x, y, z'

loop_
  _atom_site_type_symbol
  _atom_site_label
  _atom_site_symmetry_multiplicity
  _atom_site_fract_x
  _atom_site_fract_y
  _atom_site_fract_z
  _atom_site_occupancy
  Cd  Cd1       1.0  0.9984735324495659  0.17394637271458888  0.8754367741549133  1.0000
  Cd  Cd2       1.0  0.0015261368674756286  0.3260534720490965  0.375436443804432  1.0000
  Cd  Cd3       1.0  0.0015255925890330071  0.8260541280206368  0.12456378024716488  1.0000
  Cd  Cd4       1.0  0.9984749883113013  0.6739460317052917  0.6245634469609127  1.0000
  H   H1        1.0  0.587931904005195  0.604241591271517  0.845252564948673  1.0000
  H   H2        1.0  0.4120688175929955  0.8957593161713646  0.3452514315329509  1.0000
  H   H3        1.0  0.41206845473938347  0.39575890806023045  0.15474732581659367  1.0000
  H   H4        1.0  0.5879344758343593  0.10424217452655432  0.654747795595078  1.0000
  H   H5        1.0  0.3598085182733186  0.1575571685632298  0.9778140998063234  1.0000
  H   H6        1.0  0.6401914668172637  0.3424435560425181  0.4778142505681657  1.0000
  H   H7        1.0  0.640191074036572  0.8424443263455005  0.022186454595505698  1.0000
  H   H8        1.0  0.3598079573847243  0.6575549549422136  0.5221856401975984  1.0000
  H   H9        1.0  0.6791324707272466  0.29728565088306164  0.0005851782139246  1.0000
  H   H10       1.0  0.3208665195874687  0.20271461390464648  0.5005850213417915  1.0000
  H   H11       1.0  0.320867121582161  0.7027158440252991  0.9994160398245525  1.0000
  H   H12       1.0  0.6791316709090225  0.7972838984839329  0.4994148694241431  1.0000
  H   H13       1.0  0.7934391150806589  0.5272403228488043  0.9326654426176049  1.0000
  H   H14       1.0  0.20656024345893093  0.9727604883784765  0.43266433720476266  1.0000
  H   H15       1.0  0.2065600099574496  0.47276017788605174  0.067335775421121  1.0000
  H   H16       1.0  0.7934362460612618  0.0272370312408228  0.5673348899249505  1.0000
  H   H17       1.0  0.49740169429934156  0.46054715932391604  0.6250957926018899  1.0000
  H   H18       1.0  0.5025995791759074  0.039452963607033105  0.1250960945328217  1.0000
  H   H19       1.0  0.5025997300443023  0.5394503546810937  0.3749014436172047  1.0000
  H   H20       1.0  0.49739924670224395  0.9605495268809036  0.8749011416857042  1.0000
  H   H21       1.0  0.41809341560492186  0.22660510328888958  0.7098376014148187  1.0000
  H   H22       1.0  0.5819072651991561  0.2733939308324906  0.20983713042788568  1.0000
  H   H23       1.0  0.5819060085970733  0.7733934076958421  0.29016228935094557  1.0000
  H   H24       1.0  0.418094327251417  0.7266065670957715  0.7901620967005627  1.0000
  C   C1        1.0  0.8081163795433851  0.40992411520399946  0.7321615864347635  1.0000
  C   C2        1.0  0.19188473549645113  0.09007588815982359  0.23216195527943023  1.0000
  C   C3        1.0  0.19188227822440496  0.5900753913580843  0.26783830433092254  1.0000
  C   C4        1.0  0.8081185579304132  0.9099256025377185  0.7678379354852467  1.0000
  C   C5        1.0  0.36411249902761267  0.4237851839379659  0.8688634941316521  1.0000
  C   C6        1.0  0.6358888809928871  0.07621566093583709  0.368863745516812  1.0000
  C   C7        1.0  0.6358878597169663  0.5762153153937747  0.1311363966336145  1.0000
  C   C8        1.0  0.3641114777512016  0.9237848383955338  0.6311368088850955  1.0000
  C   C9        1.0  0.5408739570128631  0.5073402089045373  0.8770958667039892  1.0000
  C   C10       1.0  0.4591267174638248  0.9926606629769594  0.37709468409845925  1.0000
  C   C11       1.0  0.4591264017312255  0.4926602904268336  0.1229046876979183  1.0000
  C   C12       1.0  0.5408741085525433  0.007340830528662003  0.6229045430299109  1.0000
  C   C13       1.0  0.4161071875644922  0.258248801690428  0.9508651163274846  1.0000
  C   C14       1.0  0.5838916037000104  0.2417519544151291  0.4508646566106407  1.0000
  C   C15       1.0  0.5838902364973179  0.7417507062751412  0.0491354380750124  1.0000
  C   C16       1.0  0.4161070540682772  0.7582475521473242  0.5491345705184043  1.0000
  C   C17       1.0  0.23211676221976768  0.46200476868307305  0.8209462848724767  1.0000
  C   C18       1.0  0.76788592241288  0.037996128298303206  0.3209478413475964  1.0000
  C   C19       1.0  0.7678848302307982  0.5379957292451891  0.1790529422559715  1.0000
  C   C20       1.0  0.2321156700362151  0.9620043696288434  0.6790533766907885  1.0000
  C   C21       1.0  0.9875254013602869  0.44917393344393014  0.763568158575751  1.0000
  C   C22       1.0  0.0124751999329362  0.05082504067266311  0.2635685916340549  1.0000
  C   C23       1.0  0.012472789135720976  0.5508245789442796  0.2364323958268315  1.0000
  C   C24       1.0  0.9875259252448602  0.949174463080979  0.7364326264045855  1.0000
  C   C25       1.0  0.5926649173640681  0.33630433099012447  0.963269773545157  1.0000
  C   C26       1.0  0.40733338827224236  0.16369541708845498  0.4632700553847613  1.0000
  C   C27       1.0  0.4073342076740331  0.6636961697447249  0.0367314444935758  1.0000
  C   C28       1.0  0.5926665032000641  0.836304088069042  0.5367311626540429  1.0000
  C   C29       1.0  0.6557204979217841  0.4627988926280651  0.9251305431983354  1.0000
  C   C30       1.0  0.344278331425464  0.037201892217567  0.42512889878909016  1.0000
  C   C31       1.0  0.3442786271163172  0.5372016081067912  0.0748706748403904  1.0000
  C   C32       1.0  0.6557193917997353  0.962795625997508  0.574870991977093  1.0000
  C   C33       1.0  0.5868403970224917  0.4276618692013016  0.6643505576086  1.0000
  C   C34       1.0  0.41316035109247196  0.07233721571788011  0.1643508719607851  1.0000
  C   C35       1.0  0.4131585599086947  0.5723356476103022  0.33564866952077216  1.0000
  C   C36       1.0  0.5868392412188967  0.9276642791919586  0.8356476915311076  1.0000
  I   I1        1.0  0.8920294446218403  0.1504277926912181  0.05284191661316129  1.0000
  I   I2        1.0  0.10797193577413819  0.349572410930044  0.5528424273300558  1.0000
  I   I3        1.0  0.10797168055693603  0.8495717110631701  0.9471579741521835  1.0000
  I   I4        1.0  0.8920288902412493  0.6504290825748315  0.447158127071603  1.0000
  N   N1        1.0  0.7578311094679293  0.4943482827960251  0.6796181462068702  1.0000
  N   N2        1.0  0.24216884961989388  0.0056517806501972  0.1796185326945903  1.0000
  N   N3        1.0  0.2421683147340588  0.5056502281887063  0.3203817445588939  1.0000
  N   N4        1.0  0.7578307426909843  0.9943497142592718  0.8203806944339506  1.0000
  N   N5        1.0  0.26060100405189957  0.5777123004574917  0.778268450296018  1.0000
  N   N6        1.0  0.7393998166681043  0.9222886817900573  0.2782685438343933  1.0000
  N   N7        1.0  0.7393993546936668  0.42228819887498753  0.221730113195953  1.0000
  N   N8        1.0  0.2606017757814811  0.0777118161374588  0.7217320105673435  1.0000
  N   N9        1.0  0.061224246568244205  0.3788847140051388  0.8135680117711317  1.0000
  N   N10       1.0  0.93877674800747  0.12111519844751939  0.313567499090368  1.0000
  N   N11       1.0  0.9387761121758444  0.6211157853262321  0.18643254263077574  1.0000
  N   N12       1.0  0.061224377170816545  0.8788843053064925  0.6864330553116246  1.0000
  N   N13       1.0  0.678194243821686  0.2959494158147891  0.7496146058015112  1.0000
  N   N14       1.0  0.32180561168583915  0.20405056946205485  0.24961489619218466  1.0000
  N   N15       1.0  0.3218027129688251  0.7040490979772756  0.2503859486012416  1.0000
  N   N16       1.0  0.6781976817405352  0.7959509212351251  0.750385658209133  1.0000
  N   N17       1.0  0.30449143400696954  0.30067169719111325  0.9048352860885842  1.0000
  N   N18       1.0  0.6955074253722273  0.19932911031884967  0.404834811387552  1.0000
  N   N19       1.0  0.6955076910316293  0.6993288035441125  0.0951652683134938  1.0000
  N   N20       1.0  0.30449293337186845  0.8006713890125287  0.5951657430143555  1.0000
  N   N21       1.0  0.1041843678960035  0.5689976449788077  0.7415826397625053  1.0000
  N   N22       1.0  0.8958143388629126  0.9310013912945864  0.24158335048015536  1.0000
  N   N23       1.0  0.8958130561662968  0.4310018629871308  0.2584172510033511  1.0000
  N   N24       1.0  0.10418678631488379  0.0689981124590631  0.7584178675584782  1.0000
  N   N25       1.0  0.5390291638810183  0.30984169292327834  0.7062326949107599  1.0000
  N   N26       1.0  0.4609707558233325  0.190158340801247  0.20623228841529334  1.0000
  N   N27       1.0  0.4609694938867718  0.6901578136388122  0.2937671958549259  1.0000
  N   N28       1.0  0.5390308366277311  0.8098421571273848  0.7937662750765071  1.0000
