data_image0
_chemical_formula_structural       Mg6H30C60N12O18
_chemical_formula_sum              "Mg6 H30 C60 N12 O18"
_cell_length_a       6.872481006514018
_cell_length_b       31.950277717048003
_cell_length_c       31.950235086404923
_cell_angle_alpha    119.48522949955851
_cell_angle_beta     94.10755736739338
_cell_angle_gamma    94.12006179738286

_space_group_name_H-M_alt    "P 1"
_space_group_IT_number       1

loop_
  _space_group_symop_operation_xyz
  'x, y, z'

loop_
  _atom_site_type_symbol
  _atom_site_label
  _atom_site_symmetry_multiplicity
  _atom_site_fract_x
  _atom_site_fract_y
  _atom_site_fract_z
  _atom_site_occupancy
  Mg  Mg1       1.0  0.584773762555102  0.6980102939078493  0.3303428597576641  1.0000
  Mg  Mg2       1.0  0.8867827273333972  0.6323213395935953  0.301983957652979  1.0000
  Mg  Mg3       1.0  0.25447446660430023  0.6696507914077827  0.3676778883509614  1.0000
  Mg  Mg4       1.0  0.296391872080676  0.3048687945003437  0.6739069244377233  1.0000
  Mg  Mg5       1.0  0.9914957224247231  0.3690427757668004  0.695144140408452  1.0000
  Mg  Mg6       1.0  0.6224849409774434  0.326124734328843  0.6309705543826638  1.0000
  H   H1        1.0  0.11731114142703096  0.5589244002577445  0.16667291996026282  1.0000
  H   H2        1.0  0.5581618693804842  0.6077045402798973  0.4410290133807919  1.0000
  H   H3        1.0  0.9504734968641274  0.8332674467368903  0.39223399269879883  1.0000
  H   H4        1.0  0.30168889696481227  0.5278108553156997  0.09376443876465862  1.0000
  H   H5        1.0  0.7736705063576038  0.5659447594722097  0.4722100277360682  1.0000
  H   H6        1.0  0.20760952780797484  0.9062254430752361  0.4339869849228962  1.0000
  H   H7        1.0  0.8262953099764729  0.6170068613203128  0.1859540381535751  1.0000
  H   H8        1.0  0.2092430395147957  0.5689724260940281  0.3830526389155936  1.0000
  H   H9        1.0  0.6402631160019254  0.8140932672414963  0.43104097634011407  1.0000
  H   H10       1.0  0.6886193974671713  0.49925669414678703  0.0065270891129501005  1.0000
  H   H11       1.0  0.18908374660881583  0.5073263437712896  0.5007998071757029  1.0000
  H   H12       1.0  0.6822151419941775  0.9934459808455571  0.49261823043577374  1.0000
  H   H13       1.0  0.8882926857766904  0.4660567124098165  0.9364385029342727  1.0000
  H   H14       1.0  0.4218861837466008  0.4703621655577662  0.5339511324192898  1.0000
  H   H15       1.0  0.9519050607376939  0.0635636958273764  0.5296010986402777  1.0000
  H   H16       1.0  0.3647747473187124  0.5783552326395167  0.02301510999143371  1.0000
  H   H17       1.0  0.7858355410184928  0.4446398234944482  0.4216198410652154  1.0000
  H   H18       1.0  0.34155236404362205  0.9769980771402371  0.5553955300491538  1.0000
  H   H19       1.0  0.16193594596829555  0.6123926662275141  0.0932826938280799  1.0000
  H   H20       1.0  0.5490212399795098  0.48087534676759713  0.38759219903418807  1.0000
  H   H21       1.0  0.06853337479239492  0.9067157680471567  0.5191201805211776  1.0000
  H   H22       1.0  0.5818329313019319  0.4918714561401885  0.9038503201349998  1.0000
  H   H23       1.0  0.09011980304281048  0.41198767903035355  0.508117877721304  1.0000
  H   H24       1.0  0.6779819986056308  0.09619962590387839  0.5880594044807097  1.0000
  H   H25       1.0  0.7668957019737234  0.4526459833336459  0.831977665391463  1.0000
  H   H26       1.0  0.3142558410798557  0.37927383088772604  0.5473039077068407  1.0000
  H   H27       1.0  0.9349749858413074  0.16808341910103758  0.6207130264077277  1.0000
  H   H28       1.0  0.051772682663909095  0.4033723386064522  0.8139058920178144  1.0000
  H   H29       1.0  0.6484621574575726  0.410506751182858  0.5965887303529768  1.0000
  H   H30       1.0  0.23785032694517838  0.18612518486477106  0.5894786731898874  1.0000
  C   C1        1.0  0.24895072195788973  0.6190787273506688  0.2575476735200796  1.0000
  C   C2        1.0  0.6298577939266395  0.6384462307436964  0.3809018863665586  1.0000
  C   C3        1.0  0.9913506173460931  0.7424442194070054  0.3615348976974745  1.0000
  C   C4        1.0  0.36797589973375705  0.6040089091379598  0.21698545502397337  1.0000
  C   C5        1.0  0.7638978507766578  0.612958127175439  0.3959926014657427  1.0000
  C   C6        1.0  0.15090575414982518  0.783011840954977  0.38703697039473184  1.0000
  C   C7        1.0  0.27297835732046133  0.5708977479786341  0.17015436826434185  1.0000
  C   C8        1.0  0.7019017520639749  0.599220409723408  0.42908796592414694  1.0000
  C   C9        1.0  0.10266041494838161  0.8298396458128321  0.4007647001906989  1.0000
  C   C10       1.0  0.3729051203496637  0.5538427453071648  0.12997488485645908  1.0000
  C   C11       1.0  0.8188243782434483  0.5761008196636154  0.4461569323564377  1.0000
  C   C12       1.0  0.2426919867724067  0.8700377660071013  0.4238731008576978  1.0000
  C   C13       1.0  0.5720582399800804  0.5717465554325685  0.13577150297742696  1.0000
  C   C14       1.0  0.00013409386770040925  0.5640426955032183  0.42828872868926743  1.0000
  C   C15       1.0  0.4361188561974459  0.8642569276201969  0.43595995342893445  1.0000
  C   C16       1.0  0.670988293709847  0.6043114360429698  0.1818276357915352  1.0000
  C   C17       1.0  0.06664721535926792  0.5775423982397925  0.3957407042557506  1.0000
  C   C18       1.0  0.48904743194251665  0.8181987736408941  0.4224787391407999  1.0000
  C   C19       1.0  0.5741433340326053  0.6204728898172578  0.22336883295391632  1.0000
  C   C20       1.0  0.9536555527451397  0.6028952751974687  0.3795442225581525  1.0000
  C   C21       1.0  0.35072573466180057  0.776636653223818  0.3971174103573389  1.0000
  C   C22       1.0  0.9168185645889793  0.5574682920129561  0.05390968462686632  1.0000
  C   C23       1.0  0.3587733283545376  0.4963876438065781  0.4425089269917564  1.0000
  C   C24       1.0  0.8629121221620434  0.9460766433897232  0.5035017034594844  1.0000
  C   C25       1.0  0.8360090853371814  0.516251131982429  0.009425873587922145  1.0000
  C   C26       1.0  0.3192806838034556  0.49315518163918887  0.4837530182813339  1.0000
  C   C27       1.0  0.8266868969196394  0.9905596033476484  0.5067559003851015  1.0000
  C   C28       1.0  0.9453693693363545  0.4980868775194338  0.9709679864636201  1.0000
  C   C29       1.0  0.446763484769363  0.4728205696040249  0.5018840603947226  1.0000
  C   C30       1.0  0.9744537161270229  0.0290398614274778  0.527107748633135  1.0000
  C   C31       1.0  0.1375394275513742  0.5205916239647053  0.9761659302382383  1.0000
  C   C32       1.0  0.6163844108372416  0.4555071847838406  0.4793556840961273  1.0000
  C   C33       1.0  0.1613559947933041  0.0238442255945515  0.5444480790805954  1.0000
  C   C34       1.0  0.21586833052403157  0.5620767452558225  0.019986636596350096  1.0000
  C   C35       1.0  0.653118844049736  0.4578522692204672  0.43787050882905737  1.0000
  C   C36       1.0  0.1957462025897883  0.980014815974684  0.5421091249711908  1.0000
  C   C37       1.0  0.1048518085678083  0.5807360819948498  0.05848783143662217  1.0000
  C   C38       1.0  0.5234555863321404  0.47769374791478464  0.41921532716153825  1.0000
  C   C39       1.0  0.04623249062074562  0.9414982699077612  0.5222335761634723  1.0000
  C   C40       1.0  0.3048704601765664  0.449674796453735  0.8624869783395042  1.0000
  C   C41       1.0  0.8553204707137708  0.4128226579401614  0.550298804412968  1.0000
  C   C42       1.0  0.44240900064698957  0.1375606842445691  0.5872323935522274  1.0000
  C   C43       1.0  0.5089352610829607  0.46401840591519056  0.8684945511291956  1.0000
  C   C44       1.0  0.04506633879664431  0.40448449029078404  0.5359712038466429  1.0000
  C   C45       1.0  0.6404684800742473  0.1315613209214632  0.5955672062597515  1.0000
  C   C46       1.0  0.6095600773104193  0.4421755479076665  0.8286541694741913  1.0000
  C   C47       1.0  0.1674188213989751  0.3864416586676924  0.5577859388784248  1.0000
  C   C48       1.0  0.7809407963598289  0.1714021646676542  0.6135758075636418  1.0000
  C   C49       1.0  0.5154024773965772  0.40627369164273114  0.782336421512916  1.0000
  C   C50       1.0  0.10916873727241952  0.3760307406336167  0.5936945545054898  1.0000
  C   C51       1.0  0.7330532423251482  0.2177106108973277  0.6239999695371949  1.0000
  C   C52       1.0  0.6336458818092153  0.3872233103736988  0.7414729687980781  1.0000
  C   C53       1.0  0.24632156525296975  0.3542331279460597  0.6127899099698196  1.0000
  C   C54       1.0  0.8921076285147366  0.2585776285742085  0.6457667407539135  1.0000
  C   C55       1.0  0.3089539897704299  0.39125935591940936  0.7765207114653307  1.0000
  C   C56       1.0  0.9177440781826718  0.3852282866700206  0.6086876123007912  1.0000
  C   C57       1.0  0.5324585025017683  0.2235346205305575  0.6148243147716171  1.0000
  C   C58       1.0  0.20907506907873602  0.4138217374559191  0.8175443371606052  1.0000
  C   C59       1.0  0.7953314498974677  0.4037059633021727  0.5861385590123902  1.0000
  C   C60       1.0  0.39151156900148015  0.1825064416021291  0.5963353734278556  1.0000
  N   N1        1.0  0.6606424151478123  0.5536005864684057  0.09262295433703827  1.0000
  N   N2        1.0  0.10678248097703147  0.5390362098903481  0.446429710881354  1.0000
  N   N3        1.0  0.56795653351395  0.9073951097809214  0.4609281164430499  1.0000
  N   N4        1.0  0.8242266888879186  0.5770882047365474  0.0963725016532565  1.0000
  N   N5        1.0  0.24673037015477922  0.5192668917656178  0.42291700289997897  1.0000
  N   N6        1.0  0.7277620740236871  0.9036227112094508  0.4806508088962573  1.0000
  N   N7        1.0  0.2630402682853941  0.5032498228679003  0.9397033322021712  1.0000
  N   N8        1.0  0.7594454805412382  0.4364229194851034  0.4966979894787258  1.0000
  N   N9        1.0  0.3233113878176539  0.0603243576874561  0.5635930410302876  1.0000
  N   N10       1.0  0.180838526932142  0.46869311015942833  0.8992144500609173  1.0000
  N   N11       1.0  0.7120980380760213  0.4305178529202819  0.5312928491252435  1.0000
  N   N12       1.0  0.2816549816967111  0.1008040204525926  0.5694851457193907  1.0000
  O   O1        1.0  0.06747400879914521  0.6030797133412733  0.25027695076535394  1.0000
  O   O2        1.0  0.464390924976321  0.6471811988993179  0.39690667325260875  1.0000
  O   O3        1.0  0.8171642018924601  0.7497154158239923  0.3527948298049921  1.0000
  O   O4        1.0  0.3331126893788009  0.6493963672640816  0.3009401460738205  1.0000
  O   O5        1.0  0.683754098383474  0.6515231034627857  0.3505880389883842  1.0000
  O   O6        1.0  0.03214774258162834  0.6990635972069229  0.34847345499510857  1.0000
  O   O7        1.0  0.6790080135243741  0.6502288840289553  0.26683601170424975  1.0000
  O   O8        1.0  0.028772623266576147  0.6165979672869497  0.3497731250226438  1.0000
  O   O9        1.0  0.41218223079185623  0.7331765658762919  0.3834226206980561  1.0000
  O   O10       1.0  0.8145488824078128  0.4030354648318948  0.7470409478219935  1.0000
  O   O11       1.0  0.4113502987317831  0.3439564214925  0.5969672163316064  1.0000
  O   O12       1.0  0.06743587611918397  0.25300400215429864  0.6559949111050046  1.0000
  O   O13       1.0  0.5484660711248139  0.35380003558930184  0.6992578638699529  1.0000
  O   O14       1.0  0.19461434144278666  0.3454935489506  0.6462521655298445  1.0000
  O   O15       1.0  0.8491791397646296  0.30078250180633154  0.65453203207489  1.0000
  O   O16       1.0  0.2039549029045844  0.3575516752948716  0.734571540881511  1.0000
  O   O17       1.0  0.8464074089507035  0.3769666515016468  0.6423886525782478  1.0000
  O   O18       1.0  0.4694512285697526  0.26548339789511033  0.6230641992796108  1.0000
