data_image0
_chemical_formula_structural       Na2H24C10N14O8
_chemical_formula_sum              "Na2 H24 C10 N14 O8"
_cell_length_a       6.9251881244033475
_cell_length_b       9.36586877299473
_cell_length_c       9.523393787662561
_cell_angle_alpha    106.98775787945495
_cell_angle_beta     92.10877073250448
_cell_angle_gamma    107.4740450062347

_space_group_name_H-M_alt    "P 1"
_space_group_IT_number       1

loop_
  _space_group_symop_operation_xyz
  'x, y, z'

loop_
  _atom_site_type_symbol
  _atom_site_label
  _atom_site_symmetry_multiplicity
  _atom_site_fract_x
  _atom_site_fract_y
  _atom_site_fract_z
  _atom_site_occupancy
  Na  Na1       1.0  0.4999824306514356  0.9999955273160597  0.4999989228304925  1.0000
  Na  Na2       1.0  0.999991140338487  0.9999918564444812  0.5000020437966981  1.0000
  H   H1        1.0  0.2186289721177062  0.19743136013040902  0.34030537800979493  1.0000
  H   H2        1.0  0.7813542493213319  0.8025606431287713  0.6596935997757924  1.0000
  H   H3        1.0  0.16970102175088894  0.3274571023179504  0.46737754938797593  1.0000
  H   H4        1.0  0.8302613026827003  0.6725237903119422  0.5326278296996919  1.0000
  H   H5        1.0  0.32972362974935254  0.7371364391169805  0.5865840856986964  1.0000
  H   H6        1.0  0.6702518725326172  0.2628678791223109  0.4134145219079528  1.0000
  H   H7        1.0  0.5076510852744675  0.7090117766815779  0.49431988815732814  1.0000
  H   H8        1.0  0.492319576814772  0.29097721333285154  0.5056746617914669  1.0000
  H   H9        1.0  0.22153588943137953  0.7778375802033325  0.35385534564718313  1.0000
  H   H10       1.0  0.7784374356086445  0.2221506833961655  0.6461337747766719  1.0000
  H   H11       1.0  0.2035017326416977  0.8539499434515749  0.22590079757637235  1.0000
  H   H12       1.0  0.7964816140021045  0.14604250312669362  0.7740888688615116  1.0000
  H   H13       1.0  0.29604979682625304  0.48307874437115583  0.005391413317404734  1.0000
  H   H14       1.0  0.7040252046011091  0.5169376013000431  0.9945997716159811  1.0000
  H   H15       1.0  0.1343640821478544  0.5924614916088302  0.0836876533923245  1.0000
  H   H16       1.0  0.8656574341046193  0.4075094631474414  0.9162948474502456  1.0000
  H   H17       1.0  0.4050793682383826  0.68400876138449  0.11679540047781951  1.0000
  H   H18       1.0  0.5949355165254673  0.31602843635384664  0.8832085356448971  1.0000
  H   H19       1.0  0.23905912538867113  0.4122203522972613  0.7725073978911894  1.0000
  H   H20       1.0  0.7609120385318703  0.5877794561809039  0.22748123095745137  1.0000
  H   H21       1.0  0.41341285097639957  0.5604981347170083  0.7143707394690963  1.0000
  H   H22       1.0  0.5865877121477964  0.43948446272030856  0.28563083198614697  1.0000
  H   H23       1.0  0.1442029113695895  0.5199414923326842  0.6759821015663476  1.0000
  H   H24       1.0  0.8558272737905454  0.4800890879420621  0.32401162676723066  1.0000
  C   C1        1.0  0.262508534979851  0.7870002747877934  0.9082691295730854  1.0000
  C   C2        1.0  0.7375006755554097  0.21300514881005483  0.0917316752297239  1.0000
  C   C3        1.0  0.2450262148728797  0.022879220262083805  0.04630716193018711  1.0000
  C   C4        1.0  0.754990938417947  0.9771237216658689  0.9537087838352036  1.0000
  C   C5        1.0  0.2632462892387579  0.9685332281067787  0.7816931698857417  1.0000
  C   C6        1.0  0.736752287766862  0.03147530506054609  0.21829999266779515  1.0000
  C   C7        1.0  0.27628126340932363  0.5987849733915596  0.03431773316128782  1.0000
  C   C8        1.0  0.7237543411482507  0.4012213938639421  0.9656776887840695  1.0000
  C   C9        1.0  0.2667810162230211  0.527836853984553  0.7574124567121886  1.0000
  C   C10       1.0  0.7332188761654096  0.47217118939158104  0.24259318855047954  1.0000
  N   N1        1.0  0.2479488740138009  0.0682830405597414  0.9217675005183138  1.0000
  N   N2        1.0  0.7520734965725707  0.931722654396694  0.07824736221865448  1.0000
  N   N3        1.0  0.2673215434237193  0.8256808475181218  0.7804068700592453  1.0000
  N   N4        1.0  0.7326794851710189  0.17432162044939054  0.219594882614274  1.0000
  N   N5        1.0  0.2545567811878017  0.8827892538189063  0.045353299903332825  1.0000
  N   N6        1.0  0.7454489682453271  0.1172143485528281  0.9546562893777804  1.0000
  N   N7        1.0  0.229737975693844  0.14419294878889133  0.15844671441267622  1.0000
  N   N8        1.0  0.7702770137904196  0.8558169380979805  0.841567240509569  1.0000
  N   N9        1.0  0.23617556264948553  0.2175746867243902  0.9580176728055534  1.0000
  N   N10       1.0  0.7638420287648626  0.7824250768773737  0.04199199243265639  1.0000
  N   N11       1.0  0.2683302492223305  0.6423643523754237  0.8996319571247255  1.0000
  N   N12       1.0  0.7316826850614149  0.3576482736120425  0.10037023093292419  1.0000
  N   N13       1.0  0.22553263017059072  0.25907477153330666  0.09902367622085964  1.0000
  N   N14       1.0  0.7744802179562384  0.7409329589883599  0.9009832201340017  1.0000
  O   O1        1.0  0.21877392642232957  0.23771548038287446  0.45163262716650376  1.0000
  O   O2        1.0  0.7812037176933442  0.7622680438805957  0.5483645080736963  1.0000
  O   O3        1.0  0.18705550006934146  0.8641723393882331  0.3314249863734631  1.0000
  O   O4        1.0  0.8129219451077674  0.1358198005016646  0.6685623405606195  1.0000
  O   O5        1.0  0.36544879620433324  0.7109195987566607  0.48407055511206926  1.0000
  O   O6        1.0  0.6345229684175135  0.2890774678353338  0.5159277038339312  1.0000
  O   O7        1.0  0.2720617700649299  0.018417240610808995  0.6734604535516837  1.0000
  O   O8        1.0  0.7279365233337314  0.9815811075634997  0.3265504023497953  1.0000
