data_image0
_chemical_formula_structural       Zn4H32C32N24O16
_chemical_formula_sum              "Zn4 H32 C32 N24 O16"
_cell_length_a       8.667251194023859
_cell_length_b       9.890680111487127
_cell_length_c       13.629570502004634
_cell_angle_alpha    89.99992725177175
_cell_angle_beta     89.99995241730635
_cell_angle_gamma    99.2149976860883

_space_group_name_H-M_alt    "P 1"
_space_group_IT_number       1

loop_
  _space_group_symop_operation_xyz
  'x, y, z'

loop_
  _atom_site_type_symbol
  _atom_site_label
  _atom_site_symmetry_multiplicity
  _atom_site_fract_x
  _atom_site_fract_y
  _atom_site_fract_z
  _atom_site_occupancy
  Zn  Zn1       1.0  0.2962368476109347  0.8553194534318607  0.9505878111054362  1.0000
  Zn  Zn2       1.0  0.7037639268905381  0.6446801049857243  0.4505867170058978  1.0000
  Zn  Zn3       1.0  0.7037634316370784  0.14468241197558737  0.04941362943792882  1.0000
  Zn  Zn4       1.0  0.2962359736011848  0.35531971188427747  0.5494125224420048  1.0000
  H   H1        1.0  0.9457705253269495  0.67370425126186  0.9936551094074279  1.0000
  H   H2        1.0  0.05422959237010616  0.8262982960426227  0.4936571293391341  1.0000
  H   H3        1.0  0.054232439500339076  0.3262996587824175  0.006343396338948502  1.0000
  H   H4        1.0  0.9457726149385266  0.17370151691947197  0.5063443112046573  1.0000
  H   H5        1.0  0.22830872447419637  0.6868014287439833  0.7402643308493284  1.0000
  H   H6        1.0  0.771691245939607  0.8131985509919771  0.24026378003569  1.0000
  H   H7        1.0  0.7716911760169226  0.3131983881252934  0.2597356422974074  1.0000
  H   H8        1.0  0.2283063477327758  0.18680126978301803  0.759736193111657  1.0000
  H   H9        1.0  0.8689810646890238  0.4127658294614775  0.7062690840687227  1.0000
  H   H10       1.0  0.13102019746985147  0.08723495346611537  0.20626908092081214  1.0000
  H   H11       1.0  0.1310215213795445  0.5872360320424406  0.29373015537752434  1.0000
  H   H12       1.0  0.8689783602334558  0.9127638410869281  0.7937301585279146  1.0000
  H   H13       1.0  0.05281238589447669  0.4758444952444166  0.6509784617541218  1.0000
  H   H14       1.0  0.9471878146858401  0.02415639988019789  0.15097881590843099  1.0000
  H   H15       1.0  0.947186739944776  0.524157372116619  0.3490222450907155  1.0000
  H   H16       1.0  0.05281074301563388  0.9758423946706573  0.8490226246368028  1.0000
  H   H17       1.0  0.6740997655705883  0.8214142919849436  0.96637325656387  1.0000
  H   H18       1.0  0.32590463231833405  0.6785862533667596  0.4663745335161736  1.0000
  H   H19       1.0  0.3259001349211418  0.17858552488506516  0.03362598288403262  1.0000
  H   H20       1.0  0.6740952681721738  0.3214135635017853  0.5336261733293954  1.0000
  H   H21       1.0  0.2710701869423318  0.610377181384173  0.10535733382182853  1.0000
  H   H22       1.0  0.7289300075347  0.8896230673427894  0.6053581663530567  1.0000
  H   H23       1.0  0.7289285601388046  0.3896226374372346  0.8946433730240462  1.0000
  H   H24       1.0  0.2710687395470471  0.1103767514793432  0.3946418067939846  1.0000
  H   H25       1.0  0.6037805901802642  0.42218362543300697  0.16593370839967755  1.0000
  H   H26       1.0  0.39622054959192354  0.07781621365003838  0.6659335359740982  1.0000
  H   H27       1.0  0.39622046372082304  0.5778161894841388  0.8340655310479125  1.0000
  H   H28       1.0  0.6037805043079487  0.922183601265644  0.3340671708711654  1.0000
  H   H29       1.0  0.40402076906588746  0.4234408747761761  0.19163303004990695  1.0000
  H   H30       1.0  0.5959805174013371  0.07655993733393268  0.6916334862151319  1.0000
  H   H31       1.0  0.5959814382433494  0.5765589381866504  0.8083676767950511  1.0000
  H   H32       1.0  0.404019383089171  0.923439879534605  0.3083672206304372  1.0000
  C   C1        1.0  0.9866345304756692  0.6559117711938994  0.920192043423228  1.0000
  C   C2        1.0  0.013364555826598134  0.8440909245436286  0.42019260140514814  1.0000
  C   C3        1.0  0.013364027227019895  0.3440870233584192  0.07980792972433193  1.0000
  C   C4        1.0  0.986636498073274  0.15590889037205358  0.5798081054401154  1.0000
  C   C5        1.0  0.13377872717150294  0.6645403137028578  0.7930319864003795  1.0000
  C   C6        1.0  0.8662211556009822  0.8354595608184923  0.29303209862189317  1.0000
  C   C7        1.0  0.8662225161074276  0.33546052548263816  0.20696872044436537  1.0000
  C   C8        1.0  0.13377740210110287  0.16453923373309454  0.7069686082245001  1.0000
  C   C9        1.0  0.950484160364148  0.5056996017600282  0.6874452425379193  1.0000
  C   C10       1.0  0.04951608715410314  0.9943015075612888  0.18744564377008296  1.0000
  C   C11       1.0  0.04951611888507295  0.49430226364887614  0.3125547306077722  1.0000
  C   C12       1.0  0.9504836239579577  0.005697285038166898  0.8125543293771716  1.0000
  C   C13       1.0  0.8759130767890397  0.5978146859999711  0.6168039626645342  1.0000
  C   C14       1.0  0.12408709867623462  0.9021855399031014  0.11680514226145533  1.0000
  C   C15       1.0  0.12408759835394526  0.40218308037753997  0.3831952767840933  1.0000
  C   C16       1.0  0.8759131805736048  0.0978163255065354  0.8831940971854028  1.0000
  C   C17       1.0  0.5976830479828975  0.7481306731075675  0.010858975034466303  1.0000
  C   C18       1.0  0.4023196102630918  0.7518697601345748  0.5108601074152903  1.0000
  C   C19       1.0  0.40231550971979146  0.2518681214447511  0.9891409981130938  1.0000
  C   C20       1.0  0.5976818223955008  0.24813210332146698  0.48913986573010265  1.0000
  C   C21       1.0  0.3900919820544573  0.6444800007084976  0.08093171863662015  1.0000
  C   C22       1.0  0.609909612913377  0.8555151714653136  0.5809333794015503  1.0000
  C   C23       1.0  0.6099069715419887  0.3555146948124274  0.919067520813876  1.0000
  C   C24       1.0  0.3900893235474285  0.14448567162664006  0.4190665937449723  1.0000
  C   C25       1.0  0.5189955304240356  0.48813557773304694  0.18548310622058045  1.0000
  C   C26       1.0  0.4810055768789284  0.011864222370249396  0.6854829490748033  1.0000
  C   C27       1.0  0.4810055234758366  0.5118642371826353  0.814517600624683  1.0000
  C   C28       1.0  0.5189943236121833  0.9881355944990273  0.31451702407193255  1.0000
  C   C29       1.0  0.5598393835098889  0.5637323324996046  0.28265853666415114  1.0000
  C   C30       1.0  0.4401618592800033  0.9362685850223257  0.7826587463976369  1.0000
  C   C31       1.0  0.4401614810109323  0.4362664581462638  0.7173421701816312  1.0000
  C   C32       1.0  0.5598380412111156  0.06373123184694411  0.2173412267490918  1.0000
  N   N1        1.0  0.0020445535875949525  0.5763586325850553  0.7774006081213047  1.0000
  N   N2        1.0  0.9979555445259223  0.9236422973738172  0.2774005695375409  1.0000
  N   N3        1.0  0.9979566896913356  0.4236422066004408  0.2226000987234401  1.0000
  N   N4        1.0  0.002044166586138397  0.07635649522563878  0.7225994036097136  1.0000
  N   N5        1.0  0.9057173872684883  0.5712014766137866  0.8566816651584975  1.0000
  N   N6        1.0  0.09428276854794143  0.9288003195358882  0.3566813688462461  1.0000
  N   N7        1.0  0.09428173857259024  0.4288003907494441  0.14331684058983296  1.0000
  N   N8        1.0  0.9057182853525347  0.07119949538052588  0.6433186043001842  1.0000
  N   N9        1.0  0.12846756439413545  0.7162141893547725  0.8838139884215085  1.0000
  N   N10       1.0  0.8715336997677453  0.7837875507421825  0.3838141451245393  1.0000
  N   N11       1.0  0.8715292546263883  0.28378768191198833  0.11618671842393984  1.0000
  N   N12       1.0  0.12846754351118508  0.2162132884433206  0.6161865617201985  1.0000
  N   N13       1.0  0.5127935694110731  0.586891061291446  0.10785992700901664  1.0000
  N   N14       1.0  0.4872087383502616  0.9131081542713912  0.6078593992210417  1.0000
  N   N15       1.0  0.48720595232071406  0.41310670703673225  0.8921415135364231  1.0000
  N   N16       1.0  0.5127925049292729  0.08689268491484368  0.39214057392486285  1.0000
  N   N17       1.0  0.6472198180235297  0.6528715148045733  0.06531046451039661  1.0000
  N   N18       1.0  0.35278274978632135  0.8471288098677405  0.5653100686331458  1.0000
  N   N19       1.0  0.35277873967795154  0.34712727974628166  0.9346909760348371  1.0000
  N   N20       1.0  0.647218304113551  0.15287100504794177  0.4346906382121178  1.0000
  N   N21       1.0  0.4397402016760593  0.7466593518001401  0.018372093786617007  1.0000
  N   N22       1.0  0.5602607225462961  0.7533379956064863  0.5183716734098385  1.0000
  N   N23       1.0  0.5602568238573298  0.2533373961632107  0.9816300804587859  1.0000
  N   N24       1.0  0.4397405207326273  0.246662843579017  0.4816290334349065  1.0000
  O   O1        1.0  0.8047591086167785  0.5306268100291118  0.5439029623919397  1.0000
  O   O2        1.0  0.1952419625808871  0.969371510741048  0.04390257523164112  1.0000
  O   O3        1.0  0.19524098125339148  0.46937403110997866  0.4560970107542774  1.0000
  O   O4        1.0  0.8047585231830398  0.030625231366641987  0.956096664217505  1.0000
  O   O5        1.0  0.8908873644899061  0.7233221414721668  0.6310127128704794  1.0000
  O   O6        1.0  0.10911278737683715  0.7766780561005501  0.13101328163713796  1.0000
  O   O7        1.0  0.10911253600181679  0.27667767539784177  0.36898652657742315  1.0000
  O   O8        1.0  0.8908848062955456  0.22332176467444492  0.868986691510209  1.0000
  O   O9        1.0  0.6422146773865904  0.5055210618042948  0.3442092703755792  1.0000
  O   O10       1.0  0.3577864631755077  0.9944797329917634  0.8442087369353717  1.0000
  O   O11       1.0  0.3577886833326289  0.4944787492064009  0.65579070277024  1.0000
  O   O12       1.0  0.642210751739981  0.005518039245060898  0.15578976881533896  1.0000
  O   O13       1.0  0.5148965471426409  0.6758258622979625  0.2966926886235371  1.0000
  O   O14       1.0  0.4851044829590733  0.8241740029712403  0.7966929770737254  1.0000
  O   O15       1.0  0.4851043173781733  0.32417292834789885  0.7033080182222452  1.0000
  O   O16       1.0  0.5148977243495593  0.1758258099908545  0.20330846347006576  1.0000
