data_image0
_chemical_formula_structural       Cu2H16C24N10Cl2O8
_chemical_formula_sum              "Cu2 H16 C24 N10 Cl2 O8"
_cell_length_a       8.440230956936402
_cell_length_b       8.44168380253611
_cell_length_c       11.622304708698623
_cell_angle_alpha    96.8432549604147
_cell_angle_beta     107.56303507047866
_cell_angle_gamma    114.88418433506014

_space_group_name_H-M_alt    "P 1"
_space_group_IT_number       1

loop_
  _space_group_symop_operation_xyz
  'x, y, z'

loop_
  _atom_site_type_symbol
  _atom_site_label
  _atom_site_symmetry_multiplicity
  _atom_site_fract_x
  _atom_site_fract_y
  _atom_site_fract_z
  _atom_site_occupancy
  Cu  Cu1       1.0  0.47543351780062443  0.5126957935556717  0.5727459800800927  1.0000
  Cu  Cu2       1.0  0.5600355339286481  0.09764810916026792  0.07290041590749038  1.0000
  H   H1        1.0  0.5233925571244883  0.22331703352242732  0.6916457879269513  1.0000
  H   H2        1.0  0.9678038568553547  0.16784304681690537  0.19138026718786688  1.0000
  H   H3        1.0  0.30452141702888025  0.9435925908379588  0.7279581205238796  1.0000
  H   H4        1.0  0.2841881305267791  0.4225327324426118  0.22771972595648282  1.0000
  H   H5        1.0  0.9612577631383061  0.8739939950157094  0.6742205628754973  1.0000
  H   H6        1.0  0.30065248134967265  0.7122473238129745  0.17418878376189187  1.0000
  H   H7        1.0  0.8581534013320324  0.08107989792038238  0.5854766418914463  1.0000
  H   H8        1.0  0.005179116699132262  0.7273631797749474  0.08578315698575523  1.0000
  H   H9        1.0  0.7839799980569214  0.25238750273918953  0.48247226864663867  1.0000
  H   H10       1.0  0.7305232762455276  0.698928086257375  0.9828679516033813  1.0000
  H   H11       1.0  0.7383926817915241  0.48431353773226254  0.388898503162629  1.0000
  H   H12       1.0  0.40495903329887284  0.6509837971559306  0.8891846675229471  1.0000
  H   H13       1.0  0.025441742948167527  0.7584164199691157  0.3898201073105481  1.0000
  H   H14       1.0  0.13159447635700874  0.36486609851188234  0.8899594198980051  1.0000
  H   H15       1.0  0.34061183150870283  0.7715463389985969  0.4750867122043941  1.0000
  H   H16       1.0  0.20358955947138924  0.1349402509058137  0.9752648339293725  1.0000
  C   C1        1.0  0.374650113041895  0.1855182612972897  0.6678094130558205  1.0000
  C   C2        1.0  0.9821019400007246  0.2928315362012341  0.16766239060640234  1.0000
  C   C3        1.0  0.25049226492322424  0.029617094035664603  0.6877707601270585  1.0000
  C   C4        1.0  0.15813751913289317  0.43667472668008867  0.1875831231960348  1.0000
  C   C5        1.0  0.0630587590279037  0.9919471873102952  0.6582279700502197  1.0000
  C   C6        1.0  0.16654097376896007  0.5946939707444585  0.1582377909612376  1.0000
  C   C7        1.0  0.003485139662231507  0.10792615870681031  0.6072183595784819  1.0000
  C   C8        1.0  0.9997156888852813  0.6036632999209319  0.10744045352863911  1.0000
  C   C9        1.0  0.1331870016124129  0.2586347289956096  0.5859547764220138  1.0000
  C   C10       1.0  0.827522378698241  0.45289870676933214  0.08615316961152074  1.0000
  C   C11       1.0  0.08693405048935438  0.386652436398805  0.5279528223225113  1.0000
  C   C12       1.0  0.6415588316748996  0.4413718181519855  0.028196559629407092  1.0000
  C   C13       1.0  0.905409153015981  0.3681199676075906  0.48004741813431895  1.0000
  C   C14       1.0  0.6123085872309632  0.575043930748322  0.980376202238382  1.0000
  C   C15       1.0  0.8805096777327608  0.5003781461855965  0.42780428448777724  1.0000
  C   C16       1.0  0.4277766062029827  0.5477805266139769  0.9280970628891293  1.0000
  C   C17       1.0  0.037174476803194516  0.6498882843802463  0.42745075085358736  1.0000
  C   C18       1.0  0.277804370467834  0.3908096791000943  0.927714019151679  1.0000
  C   C19       1.0  0.21447452848872944  0.6590361215933528  0.47508089575700996  1.0000
  C   C20       1.0  0.3161883846704968  0.26114204062251645  0.9753732065794549  1.0000
  C   C21       1.0  0.871052979168468  0.5832764109080985  0.7446998511609376  1.0000
  C   C22       1.0  0.6611652021062328  0.8737052242034338  0.24460373796942747  1.0000
  C   C23       1.0  0.17336462861322138  0.7695729622656701  0.897404316330572  1.0000
  C   C24       1.0  0.6277389794793253  0.7238713271545693  0.3971748963765335  1.0000
  N   N1        1.0  0.3164395019478405  0.29671635339213503  0.6187757394111202  1.0000
  N   N2        1.0  0.8219969658204395  0.30234478002051196  0.11884463772937437  1.0000
  N   N3        1.0  0.23702550627682942  0.5288876633221307  0.5218712893724556  1.0000
  N   N4        1.0  0.4931336954077211  0.2853083448888327  0.022157842433429713  1.0000
  N   N5        1.0  0.711413666706399  0.5303045888584563  0.679862214310205  1.0000
  N   N6        1.0  0.6495700431013206  0.9688132282045032  0.18002028222517913  1.0000
  N   N7        1.0  0.04308260261697693  0.6236634254525202  0.8090795552445939  1.0000
  N   N8        1.0  0.6849271371042178  0.7657323946760001  0.3086906058372277  1.0000
  N   N9        1.0  0.30476406338134165  0.8933645848453156  0.9796287233307905  1.0000
  N   N10       1.0  0.5864478030470794  0.6745978670472043  0.47941942990833997  1.0000
  Cl  Cl1       1.0  0.7333313213959586  0.009272726188385098  0.8325378196987853  1.0000
  Cl  Cl2       1.0  0.323115407603929  0.09892040561022243  0.3325737561356518  1.0000
  O   O1        1.0  0.6530730422170168  0.9067410434729412  0.7005752005729987  1.0000
  O   O2        1.0  0.29300133550478347  0.0470049481678387  0.20049841013894817  1.0000
  O   O3        1.0  0.5797201233181043  0.954684379362078  0.8795850196574049  1.0000
  O   O4        1.0  0.42485437909775925  0.29959169930618407  0.3795277282038966  1.0000
  O   O5        1.0  0.8781339639061941  0.9685710185483815  0.9065028241011318  1.0000
  O   O6        1.0  0.4380439726114106  0.028146898436325802  0.406322303814555  1.0000
  O   O7        1.0  0.8154771181761903  0.2041984768460736  0.8445215871542044  1.0000
  O   O8        1.0  0.14045379057881044  0.0288918863220289  0.34498028441211653  1.0000
