data_image0
_chemical_formula_structural       Ba2H16C20N8O12
_chemical_formula_sum              "Ba2 H16 C20 N8 O12"
_cell_length_a       6.876727725845851
_cell_length_b       9.785048959307746
_cell_length_c       11.559735462621946
_cell_angle_alpha    115.21978332305086
_cell_angle_beta     105.01409701328083
_cell_angle_gamma    91.68560733783119

_space_group_name_H-M_alt    "P 1"
_space_group_IT_number       1

loop_
  _space_group_symop_operation_xyz
  'x, y, z'

loop_
  _atom_site_type_symbol
  _atom_site_label
  _atom_site_symmetry_multiplicity
  _atom_site_fract_x
  _atom_site_fract_y
  _atom_site_fract_z
  _atom_site_occupancy
  Ba  Ba1       1.0  0.03920672065716247  0.27639282866422826  0.606215997617994  1.0000
  Ba  Ba2       1.0  0.9607923934131365  0.7236074373764367  0.39378290700843616  1.0000
  H   H1        1.0  0.16408479118438626  0.018314487595262104  0.3573792438050488  1.0000
  H   H2        1.0  0.8359170675415443  0.9816846300054325  0.6426214105331667  1.0000
  H   H3        1.0  0.9415617237921767  0.023569962356077688  0.2862669975929677  1.0000
  H   H4        1.0  0.058441901677731715  0.9764302626436034  0.7137317288841202  1.0000
  H   H5        1.0  0.5549330814777279  0.11878388116833351  0.4292470529756542  1.0000
  H   H6        1.0  0.4450642658485862  0.8812152774733448  0.5707537795119108  1.0000
  H   H7        1.0  0.5612624152195025  0.1556935349055451  0.5762343036025752  1.0000
  H   H8        1.0  0.43873544496791783  0.8443079297574558  0.42376915661211706  1.0000
  H   H9        1.0  0.7611845011871737  0.4251598723227161  0.4187953157705167  1.0000
  H   H10       1.0  0.2388155943476207  0.574838120461898  0.581205530606148  1.0000
  H   H11       1.0  0.8030149210498578  0.2713160341442773  0.307167091945999  1.0000
  H   H12       1.0  0.19698719943589538  0.7286842103414343  0.6928322725217554  1.0000
  H   H13       1.0  0.3413638201057766  0.32718127318928947  0.437255505146112  1.0000
  H   H14       1.0  0.6586345653777386  0.672822436535178  0.5627445074163333  1.0000
  H   H15       1.0  0.48910141503674975  0.41387591774982724  0.5842232664454271  1.0000
  H   H16       1.0  0.510894430858265  0.5861232429607811  0.41577646821012587  1.0000
  C   C1        1.0  0.2348454435091439  0.9830537964849312  0.9599749266357874  1.0000
  C   C2        1.0  0.7651602015824536  0.016948706341487707  0.040024921666414956  1.0000
  C   C3        1.0  0.32210571363116713  0.93004584282415  0.06082449889770193  1.0000
  C   C4        1.0  0.6778986775775521  0.0699578586246119  0.9391799049927555  1.0000
  C   C5        1.0  0.31619013762381337  0.07968706261346628  0.16745386120381767  1.0000
  C   C6        1.0  0.683811471777261  0.9203108671423692  0.83254200762547  1.0000
  C   C7        1.0  0.23126947616240298  0.1334801249077557  0.06698067309636709  1.0000
  C   C8        1.0  0.7687323932220808  0.8665189404416439  0.9330147737738058  1.0000
  C   C9        1.0  0.38383629425190696  0.7939547808093439  0.05727337250724673  1.0000
  C   C10       1.0  0.6161613095049674  0.2060455308429923  0.9427287738438821  1.0000
  C   C11       1.0  0.34497150222453854  0.6609049566754096  0.9346124563322532  1.0000
  C   C12       1.0  0.6550238219272374  0.3390919415566315  0.06538899015287572  1.0000
  C   C13       1.0  0.47797525548342173  0.7873002652096232  0.17763808359821798  1.0000
  C   C14       1.0  0.5220181039629495  0.21270118824305942  0.8223603472977813  1.0000
  C   C15       1.0  0.17557802568076397  0.2724052006020869  0.0741187049810677  1.0000
  C   C16       1.0  0.8244193251983987  0.7275939406224909  0.925880391683812  1.0000
  C   C17       1.0  0.0942367445819059  0.2931506031865325  0.958812090905802  1.0000
  C   C18       1.0  0.9057585866755745  0.7068462602113074  0.041185883933962955  1.0000
  C   C19       1.0  0.20786564224482623  0.39955426734872646  0.19908095906714604  1.0000
  C   C20       1.0  0.7921294732869769  0.6004483457542378  0.8009207514357614  1.0000
  N   N1        1.0  0.30739718683521033  0.5518231015759838  0.8312301099435969  1.0000
  N   N2        1.0  0.6925986466248232  0.44817612009447333  0.16877570009133788  1.0000
  N   N3        1.0  0.5591268042289103  0.7875460351356198  0.2803168942331952  1.0000
  N   N4        1.0  0.44087431702809715  0.21245656969163212  0.7196892075977246  1.0000
  N   N5        1.0  0.024294368536196462  0.30925061780317253  0.8625950275610775  1.0000
  N   N6        1.0  0.9756967166343601  0.6907473961035607  0.13740009973490427  1.0000
  N   N7        1.0  0.236624615836881  0.5057897901727274  0.3036724622272899  1.0000
  N   N8        1.0  0.7633649218682166  0.4942013492127943  0.6963191214439988  1.0000
  O   O1        1.0  0.36038491869617684  0.136986726930985  0.2926471012007639  1.0000
  O   O2        1.0  0.6396144571339519  0.8630146659946905  0.7073505135552124  1.0000
  O   O3        1.0  0.18656647113422758  0.9230786379184511  0.8348086199984265  1.0000
  O   O4        1.0  0.8134461771348995  0.0769215049992624  0.1651897501799624  1.0000
  O   O5        1.0  0.026644145273266397  0.014935857060457598  0.3663321130459778  1.0000
  O   O6        1.0  0.9733562137977856  0.9850632539006201  0.6336665755488865  1.0000
  O   O7        1.0  0.6454493381099695  0.12922821726762376  0.514953414631229  1.0000
  O   O8        1.0  0.3545512738387798  0.870772064121212  0.4850483236498844  1.0000
  O   O9        1.0  0.8463648546598819  0.34355686090788146  0.40282233571799253  1.0000
  O   O10       1.0  0.1536355026347422  0.656442258761743  0.5971772207882182  1.0000
  O   O11       1.0  0.34433415954931945  0.391777668767574  0.5306220129522713  1.0000
  O   O12       1.0  0.6556644363305965  0.608220317377416  0.46937686768104914  1.0000
