data_image0
_chemical_formula_structural       Zn4H48C100S2N4O42
_chemical_formula_sum              "Zn4 H48 C100 S2 N4 O42"
_cell_length_a       16.51957001913761
_cell_length_b       17.8873761082747
_cell_length_c       33.13448587789082
_cell_angle_alpha    90.24135053199304
_cell_angle_beta     89.42347659661365
_cell_angle_gamma    89.99208545067859

_space_group_name_H-M_alt    "P 1"
_space_group_IT_number       1

loop_
  _space_group_symop_operation_xyz
  'x, y, z'

loop_
  _atom_site_type_symbol
  _atom_site_label
  _atom_site_symmetry_multiplicity
  _atom_site_fract_x
  _atom_site_fract_y
  _atom_site_fract_z
  _atom_site_occupancy
  Zn  Zn1       1.0  0.584083397271101  0.5014172106021916  0.5005285517478415  1.0000
  Zn  Zn2       1.0  0.41528185433125486  0.498566977609741  0.5011297153868599  1.0000
  Zn  Zn3       1.0  0.4161926937121905  0.5041344800235236  0.9618327006571763  1.0000
  Zn  Zn4       1.0  0.5850204878013657  0.5014813468471715  0.9612162335553551  1.0000
  H   H1        1.0  0.28404793847037274  0.5838143287491276  0.5414257228152979  1.0000
  H   H2        1.0  0.13229243825887954  0.5888881517492238  0.5409375077968123  1.0000
  H   H3        1.0  0.28858968241396354  0.4158415857384341  0.4547157247559  1.0000
  H   H4        1.0  0.7109696747386565  0.6007130806113352  0.5353100905497571  1.0000
  H   H5        1.0  0.7160799094996477  0.40387801026044207  0.4686533854889703  1.0000
  H   H6        1.0  0.8682709720514692  0.4043506339981064  0.4659238601913672  1.0000
  H   H7        1.0  0.630230466015604  0.7422786007475325  0.5071627216899159  1.0000
  H   H8        1.0  0.6256402363455109  0.8810676306099835  0.504359004613768  1.0000
  H   H9        1.0  0.37097510893551794  0.7350784054880607  0.4963210076484543  1.0000
  H   H10       1.0  0.6359708109048726  0.26273775147795664  0.4932430921459885  1.0000
  H   H11       1.0  0.3758189376471108  0.26026141278065734  0.4995802684400275  1.0000
  H   H12       1.0  0.3779363685885145  0.12106228007643685  0.4981317348158285  1.0000
  H   H13       1.0  0.36315209817492183  0.5020390672465707  0.6316566487101056  1.0000
  H   H14       1.0  0.29194384422285685  0.4990401401470733  0.697872234231383  1.0000
  H   H15       1.0  0.6217270984042004  0.5033605682070785  0.6252997879797777  1.0000
  H   H16       1.0  0.6369969936721419  0.5015284997662375  0.830728063212874  1.0000
  H   H17       1.0  0.7082027936389751  0.49835597802563564  0.7644912550595182  1.0000
  H   H18       1.0  0.37841286142813146  0.5042679958883766  0.837085507167487  1.0000
  H   H19       1.0  0.37248765427619185  0.5110604810241525  0.09182752478346863  1.0000
  H   H20       1.0  0.375348734154592  0.5057179682130055  0.1670364956490715  1.0000
  H   H21       1.0  0.632263298677266  0.49672807342142994  0.08827519467626391  1.0000
  H   H22       1.0  0.36774580854365985  0.492868429824938  0.37424508508294013  1.0000
  H   H23       1.0  0.6275288603116138  0.5071508161670693  0.3704616260013509  1.0000
  H   H24       1.0  0.6241915679102235  0.5037137532672773  0.29519905590617423  1.0000
  H   H25       1.0  0.7162716966212557  0.5862821674131593  0.9208053164316183  1.0000
  H   H26       1.0  0.8680735587947909  0.5909454425482181  0.9211381228864044  1.0000
  H   H27       1.0  0.7116424760289988  0.41940952384685193  0.007371662230291099  1.0000
  H   H28       1.0  0.2892628973579646  0.6029576750713302  0.9271085448599694  1.0000
  H   H29       1.0  0.2842499830599222  0.40663552055238467  0.9933090036572453  1.0000
  H   H30       1.0  0.1320501913225343  0.4070036993854345  0.9959423347713215  1.0000
  H   H31       1.0  0.36966838346922515  0.7445491891648924  0.9537281728159501  1.0000
  H   H32       1.0  0.37386048138066025  0.8834464604009751  0.9561535543836046  1.0000
  H   H33       1.0  0.6289252192094921  0.7381754790907348  0.9647157329785899  1.0000
  H   H34       1.0  0.3643487475306912  0.2658360179487501  0.9688588946321702  1.0000
  H   H35       1.0  0.6244733014472104  0.2626797976832477  0.9623161595086958  1.0000
  H   H36       1.0  0.6219652866301004  0.12348944582265632  0.9628337992464682  1.0000
  H   H37       1.0  0.0310744549334814  0.4466489731869173  0.4417901592818013  1.0000
  H   H38       1.0  0.9730620705508174  0.5895453082846627  0.539304442219539  1.0000
  H   H39       1.0  0.38249662414817465  0.9763186642330905  0.49035307251583765  1.0000
  H   H40       1.0  0.6205696932539198  0.0214241579813148  0.49208862894663247  1.0000
  H   H41       1.0  0.6179548538849389  0.48467520055436364  0.21854978430297936  1.0000
  H   H42       1.0  0.38132903676353175  0.4841945672643392  0.2437897727251013  1.0000
  H   H43       1.0  0.9692802255515007  0.4499168507508244  0.020149419300487602  1.0000
  H   H44       1.0  0.027220707081852397  0.5912979206804321  0.9227480331329904  1.0000
  H   H45       1.0  0.6167794624398155  0.9795950381103962  0.9697646172597703  1.0000
  H   H46       1.0  0.3789552643230323  0.024518581919679105  0.9683878641535987  1.0000
  H   H47       1.0  0.2948425800757946  0.4077588347105632  0.8223058603508733  1.0000
  H   H48       1.0  0.7050587202669831  0.4072086045046319  0.6396269959938794  1.0000
  C   C1        1.0  0.5026846405970674  0.6458815877059931  0.5022768706463339  1.0000
  C   C2        1.0  0.49101242104293163  0.4994917242890935  0.5794474171840066  1.0000
  C   C3        1.0  0.5046307491988457  0.3542742579805704  0.49834146673648416  1.0000
  C   C4        1.0  0.499219346575181  0.5005394806881112  0.4222734858123331  1.0000
  C   C5        1.0  0.49744668481933013  0.6485973392438706  0.9591480072988859  1.0000
  C   C6        1.0  0.5091616937761289  0.5000903175282614  0.882912383405156  1.0000
  C   C7        1.0  0.49584542593161973  0.35706138817698724  0.964294479069068  1.0000
  C   C8        1.0  0.5010401658532898  0.5051763802442223  0.04009916873024372  1.0000
  C   C9        1.0  0.24869152595260147  0.5474005907430379  0.5218864450258139  1.0000
  C   C10       1.0  0.16492534765016842  0.549799441875784  0.5214601510925976  1.0000
  C   C11       1.0  0.12258760069745021  0.5008906431815701  0.4956868969963183  1.0000
  C   C12       1.0  0.1674865370163445  0.4511347290079613  0.4707200903865002  1.0000
  C   C13       1.0  0.2518819482774433  0.45325590926611165  0.4734481485502329  1.0000
  C   C14       1.0  0.03688992953667739  0.5028414743202344  0.4965265524739095  1.0000
  C   C15       1.0  0.9630536656626988  0.5065807854534012  0.49900493598760687  1.0000
  C   C16       1.0  0.8773331059941684  0.5071710631874994  0.5008593239401196  1.0000
  C   C17       1.0  0.8322211658384475  0.5637604590157465  0.5209811145976107  1.0000
  C   C18       1.0  0.7478142676210311  0.5579426561330789  0.5204480536758211  1.0000
  C   C19       1.0  0.7513767061308985  0.4480850746184686  0.4828646034382373  1.0000
  C   C20       1.0  0.8352250023628258  0.4486852494497524  0.4815583057209311  1.0000
  C   C21       1.0  0.5008196874764722  0.7297207334461432  0.5015827983092721  1.0000
  C   C22       1.0  0.572620586123371  0.7712563686283289  0.5040985341972688  1.0000
  C   C23       1.0  0.5698834521188517  0.8486631787015924  0.5025867981303379  1.0000
  C   C24       1.0  0.49528450798511164  0.8867460348275101  0.4988710515826611  1.0000
  C   C25       1.0  0.4221951150994628  0.8448278156524792  0.4969705333555368  1.0000
  C   C26       1.0  0.42694643738080634  0.7669311340842099  0.49817280961017474  1.0000
  C   C27       1.0  0.4978863315369111  0.9658256979915621  0.49729419575596984  1.0000
  C   C28       1.0  0.5050784131110647  0.03408560090058901  0.49606400056698163  1.0000
  C   C29       1.0  0.5086522279974871  0.11317856329360856  0.49554075971171596  1.0000
  C   C30       1.0  0.5825975106697784  0.1539736982994739  0.49388420909956215  1.0000
  C   C31       1.0  0.5791414665247387  0.23200465124649838  0.49443589721421  1.0000
  C   C32       1.0  0.5057175913644513  0.27042833040351155  0.496774426625919  1.0000
  C   C33       1.0  0.4330027360746485  0.23001411821316253  0.49796774331893084  1.0000
  C   C34       1.0  0.4344105517264084  0.1525388913368531  0.4971867476093835  1.0000
  C   C35       1.0  0.42093418946717526  0.5019883652798283  0.6472531174223806  1.0000
  C   C36       1.0  0.42306897207816974  0.5024002892467153  0.6895441111328182  1.0000
  C   C37       1.0  0.3501012954928058  0.500908704907559  0.7131114383491949  1.0000
  C   C38       1.0  0.5674663892980335  0.5010406642335639  0.6441357528993308  1.0000
  C   C39       1.0  0.5727031079225  0.5013359139012721  0.6863416842879388  1.0000
  C   C40       1.0  0.6480185746600995  0.4995156179646897  0.7080641946622919  1.0000
  C   C41       1.0  0.5792095196325633  0.5017329379642205  0.8151138440107175  1.0000
  C   C42       1.0  0.5770616037523907  0.5021076073489752  0.7728306715019573  1.0000
  C   C43       1.0  0.6500441109291658  0.5003622472458529  0.7492597418225275  1.0000
  C   C44       1.0  0.43265413879226594  0.5015228264597267  0.8182447087679989  1.0000
  C   C45       1.0  0.4274172017700764  0.5016865637670804  0.7760397958641152  1.0000
  C   C46       1.0  0.35211129820952897  0.500030635238616  0.754304416542823  1.0000
  C   C47       1.0  0.4927320522679396  0.5008774614451711  0.6247460052649957  1.0000
  C   C48       1.0  0.49920252642561275  0.502138539032728  0.7097177750978432  1.0000
  C   C49       1.0  0.5073997438099696  0.5010951047947928  0.8376213406538611  1.0000
  C   C50       1.0  0.5009081263615017  0.5021535574601613  0.7526629288638846  1.0000
  C   C51       1.0  0.5020864717553196  0.5037856629229579  0.085349330758369  1.0000
  C   C52       1.0  0.4296889632056065  0.5066853814106196  0.10771529815954753  1.0000
  C   C53       1.0  0.4315094401191076  0.5038568296785826  0.14950573177063833  1.0000
  C   C54       1.0  0.5059468092799335  0.49881647283683606  0.17004227766250327  1.0000
  C   C55       1.0  0.5796646294477342  0.49650683882246915  0.14747854485360534  1.0000
  C   C56       1.0  0.5757560630538806  0.49880652889633825  0.1054326802352108  1.0000
  C   C57       1.0  0.5029324794639508  0.4969753464356188  0.21270103244481223  1.0000
  C   C58       1.0  0.496385096670423  0.4963890045373487  0.24962181294323232  1.0000
  C   C59       1.0  0.4935620023747518  0.49693398910889647  0.2923030700658701  1.0000
  C   C60       1.0  0.41997906892389386  0.4940897143264421  0.31495243646296706  1.0000
  C   C61       1.0  0.4241382657401473  0.4952601644118813  0.357025738616457  1.0000
  C   C62       1.0  0.49796032937107537  0.49972634013663264  0.3770275492574768  1.0000
  C   C63       1.0  0.570227746793222  0.5031433758275837  0.3545914894653991  1.0000
  C   C64       1.0  0.5681261586644696  0.5013696903869661  0.31279021632396115  1.0000
  C   C65       1.0  0.751602648448852  0.550012722405711  0.9402773588957631  1.0000
  C   C66       1.0  0.8353921482388175  0.5521919894247062  0.9406250022758302  1.0000
  C   C67       1.0  0.8776800760562297  0.5035361540983913  0.9663386971064728  1.0000
  C   C68       1.0  0.8327779842466542  0.4542370124111698  0.9913285079279958  1.0000
  C   C69       1.0  0.7483674176631752  0.4565105964178142  0.9886561163283362  1.0000
  C   C70       1.0  0.9633933767081401  0.5052795740253656  0.9654501443090169  1.0000
  C   C71       1.0  0.03723332323456668  0.5088879718209965  0.9629992095941945  1.0000
  C   C72       1.0  0.12294821555310881  0.5094957616317259  0.9611806942822485  1.0000
  C   C73       1.0  0.16802288720608521  0.5659608234326258  0.9412071053392739  1.0000
  C   C74       1.0  0.25242824981630463  0.5602765809494343  0.9418393096827773  1.0000
  C   C75       1.0  0.2489186236063432  0.4507177410401582  0.9791907603554582  1.0000
  C   C76       1.0  0.16507281334261853  0.45123566846356067  0.9804216646671832  1.0000
  C   C77       1.0  0.49910058107909805  0.7324419909054495  0.9594117810240876  1.0000
  C   C78       1.0  0.42719704264366953  0.773751461778957  0.9567191179930463  1.0000
  C   C79       1.0  0.42971639012545637  0.851213758230507  0.9580241649255329  1.0000
  C   C80       1.0  0.5042049418037919  0.8895272957117156  0.9616968934834136  1.0000
  C   C81       1.0  0.5774205949114233  0.8478054271789047  0.9637414167962959  1.0000
  C   C82       1.0  0.5728706919399117  0.7698747687667619  0.9627271565921093  1.0000
  C   C83       1.0  0.5014617849030716  0.9686001410553826  0.9632422072005795  1.0000
  C   C84       1.0  0.4945122046682189  0.03690076806023509  0.9646141967333365  1.0000
  C   C85       1.0  0.49121327863843334  0.115963293910049  0.9655349770623477  1.0000
  C   C86       1.0  0.41740208910176335  0.15695679097231616  0.9674678464532676  1.0000
  C   C87       1.0  0.42108684976751226  0.23496307270108469  0.9674621581929377  1.0000
  C   C88       1.0  0.4946056635856522  0.2732092719859266  0.9653651779764729  1.0000
  C   C89       1.0  0.5671970814953154  0.23259459649241174  0.9638024280671617  1.0000
  C   C90       1.0  0.565579866727866  0.15512276101735267  0.9640581912141712  1.0000
  C   C91       1.0  0.13366863617405036  0.39379287616820585  0.44196356998252645  1.0000
  C   C92       1.0  0.8652077444276998  0.6318401604153011  0.5423209787183012  1.0000
  C   C93       1.0  0.3378320861555721  0.8764211472664556  0.4939226804718048  1.0000
  C   C94       1.0  0.6665911921444875  0.12099108082981051  0.4915734370161715  1.0000
  C   C95       1.0  0.6638077273127508  0.4920121134752548  0.1646529840833111  1.0000
  C   C96       1.0  0.33575646852730057  0.49026173032144965  0.2978286000380096  1.0000
  C   C97       1.0  0.8665429624819225  0.3973133025521135  0.0200782013272232  1.0000
  C   C98       1.0  0.13497298020622137  0.6337384222741205  0.9199179043527226  1.0000
  C   C99       1.0  0.661693171674095  0.8796663089059605  0.9668149725337544  1.0000
  C   C100      1.0  0.33329900191875345  0.12423600680889985  0.9695043918786794  1.0000
  S   S1        1.0  0.2572268132704068  0.49148281192850624  0.7800263673561432  1.0000
  S   S2        1.0  0.7428671473233521  0.49082318473305264  0.6822941658216168  1.0000
  N   N1        1.0  0.29110560943791347  0.49972013131151966  0.4982801269115456  1.0000
  N   N2        1.0  0.7086747933917223  0.5020120651927513  0.5020250271370373  1.0000
  N   N3        1.0  0.7091751388854136  0.5027321049787545  0.9638958726296638  1.0000
  N   N4        1.0  0.2915861439081766  0.5045531673968354  0.9601990871786941  1.0000
  O   O1        1.0  0.571002469109807  0.61496199881919  0.5082447915688919  1.0000
  O   O2        1.0  0.4359188092732681  0.6121403626485388  0.4965639418317452  1.0000
  O   O3        1.0  0.42275603114850213  0.5097911602924794  0.5628225032293486  1.0000
  O   O4        1.0  0.5581431641686478  0.4877992566490121  0.5612667606753305  1.0000
  O   O5        1.0  0.43672419928454087  0.3852184040406996  0.505852935557684  1.0000
  O   O6        1.0  0.5717546982454351  0.3877398644348347  0.492250680230498  1.0000
  O   O7        1.0  0.5666756069783007  0.5139070685607335  0.43912087228593333  1.0000
  O   O8        1.0  0.4322110942970881  0.4874628461728818  0.4401718799799995  1.0000
  O   O9        1.0  0.42910324799340316  0.6173810198220336  0.9535276780561334  1.0000
  O   O10       1.0  0.5643523068166019  0.6152012915092229  0.9648579981636021  1.0000
  O   O11       1.0  0.5774912763892388  0.5104665414929386  0.8994914717056803  1.0000
  O   O12       1.0  0.44206499168424784  0.48868362866053167  0.901114747736159  1.0000
  O   O13       1.0  0.5638651589836955  0.3879262559346301  0.9571134768847787  1.0000
  O   O14       1.0  0.4287408354796298  0.39064140976552864  0.9704013878695434  1.0000
  O   O15       1.0  0.43359681403492084  0.5182416232145571  0.023223437818288103  1.0000
  O   O16       1.0  0.5682628747399007  0.4926347831457176  0.022212713155312307  1.0000
  O   O17       1.0  0.0562862131850466  0.4023455483677408  0.4294354093703988  1.0000
  O   O18       1.0  0.17450589559886961  0.3415317455170807  0.43007341028159374  1.0000
  O   O19       1.0  0.9454489978284998  0.6339865335658458  0.5502910538638162  1.0000
  O   O20       1.0  0.8211575661102588  0.6833308521822302  0.5521632492497872  1.0000
  O   O21       1.0  0.32919650665258626  0.9515261792155486  0.49039850023040543  1.0000
  O   O22       1.0  0.27806055738479774  0.8364655698381966  0.49458267735947475  1.0000
  O   O23       1.0  0.6742484356627757  0.045526080024174596  0.49094193008451015  1.0000
  O   O24       1.0  0.7269035515241811  0.16024391366746465  0.49021182731168267  1.0000
  O   O25       1.0  0.6715978219105736  0.4853719767874694  0.20522094511672861  1.0000
  O   O26       1.0  0.7240583255161326  0.49409812691833094  0.1431564809268551  1.0000
  O   O27       1.0  0.3277612380791126  0.48467296408475147  0.2571925111060054  1.0000
  O   O28       1.0  0.27560583120348536  0.49198462009876215  0.31940295471453345  1.0000
  O   O29       1.0  0.943956447281373  0.40593490226500245  0.032580367113006006  1.0000
  O   O30       1.0  0.8256165528206197  0.34532346920414614  0.0319909758489914  1.0000
  O   O31       1.0  0.054772982025404815  0.635657511478442  0.9118504814706371  1.0000
  O   O32       1.0  0.17892543506602013  0.685194952090846  0.9101865207474376  1.0000
  O   O33       1.0  0.6701340221494904  0.9549109206260625  0.9699219730458921  1.0000
  O   O34       1.0  0.7215535349446469  0.8398041164928286  0.9665303035168051  1.0000
  O   O35       1.0  0.32536265613715903  0.0488043067406352  0.9696165450585642  1.0000
  O   O36       1.0  0.2731372973631068  0.16369976887143176  0.9710609113276194  1.0000
  O   O37       1.0  0.26297759105224117  0.4069703268942034  0.7975060884054912  1.0000
  O   O38       1.0  0.1939900524580054  0.4883837077310531  0.7508454966049884  1.0000
  O   O39       1.0  0.25367710853343084  0.5423394471281852  0.813870893465719  1.0000
  O   O40       1.0  0.7369378476061782  0.40633167972577405  0.664419409201365  1.0000
  O   O41       1.0  0.8061112124695384  0.48757921170584245  0.7114546101918222  1.0000
  O   O42       1.0  0.7464651339910092  0.541706826246333  0.6486968285809172  1.0000
