data_image0
_chemical_formula_structural       Al2H20C28O10
_chemical_formula_sum              "Al2 H20 C28 O10"
_cell_length_a       6.607452438523051
_cell_length_b       11.173390240133672
_cell_length_c       15.221939990236802
_cell_angle_alpha    83.03106181433533
_cell_angle_beta     78.63159576949181
_cell_angle_gamma    70.87783092520394

_space_group_name_H-M_alt    "P 1"
_space_group_IT_number       1

loop_
  _space_group_symop_operation_xyz
  'x, y, z'

loop_
  _atom_site_type_symbol
  _atom_site_label
  _atom_site_symmetry_multiplicity
  _atom_site_fract_x
  _atom_site_fract_y
  _atom_site_fract_z
  _atom_site_occupancy
  Al  Al1       1.0  0.49276731428837195  0.4968561220883956  0.4989406518803251  1.0000
  Al  Al2       1.0  0.993952035770668  0.4927305578960174  0.5006223470149395  1.0000
  H   H1        1.0  0.24990572951804774  0.40656520255657813  0.6024263829211237  1.0000
  H   H2        1.0  0.6827604957619755  0.6521987703415562  0.4605787118633701  1.0000
  H   H3        1.0  0.8890054602133188  0.5559259641035084  0.7759134172198828  1.0000
  H   H4        1.0  0.7881967900492128  0.5686861516680821  0.9404298066872842  1.0000
  H   H5        1.0  0.13712483249055646  0.4030590309424865  0.22795706747525202  1.0000
  H   H6        1.0  0.22807965895377433  0.40238504266748987  0.0626033384116695  1.0000
  H   H7        1.0  0.5581606666259801  0.6253558864668706  0.22890830746369775  1.0000
  H   H8        1.0  0.6296804566292593  0.639417612186591  0.06305716034573552  1.0000
  H   H9        1.0  0.32020465229109624  0.45395100063701216  0.7688438515418667  1.0000
  H   H10       1.0  0.21277806384177458  0.46966920990020367  0.9327648818047863  1.0000
  H   H11       1.0  0.2597981271311625  0.22538078474567408  0.3809193813474821  1.0000
  H   H12       1.0  0.4580592262928177  0.7571057133656608  0.38163099784654264  1.0000
  H   H13       1.0  0.7362745934776241  0.8866280490734724  0.5497968203580613  1.0000
  H   H14       1.0  0.6244688712633247  0.12387559859410399  0.5386595985653317  1.0000
  H   H15       1.0  0.812681655484681  0.08927846804472492  0.3065560478835253  1.0000
  H   H16       1.0  0.5877163301602408  0.22513140129754564  0.2901147731637721  1.0000
  H   H17       1.0  0.687467786448785  0.1047001656295947  0.21157399909915856  1.0000
  H   H18       1.0  0.7864186933863306  0.8707378163294379  0.21259412739490818  1.0000
  H   H19       1.0  0.7947016759281594  0.7413178525090841  0.29434669930184043  1.0000
  H   H20       1.0  0.9107638737164403  0.8593795314575916  0.3071477403031367  1.0000
  C   C1        1.0  0.8641556724090902  0.2713652637192965  0.48096588194691503  1.0000
  C   C2        1.0  0.6760280027916037  0.49117188432514075  0.663053020857973  1.0000
  C   C3        1.0  0.1261431026435388  0.7245016232248602  0.4992551536271892  1.0000
  C   C4        1.0  0.30037358354004334  0.5054118179164959  0.33850454978629335  1.0000
  C   C5        1.0  0.6128661085838869  0.5021471094755512  0.7619068336939423  1.0000
  C   C6        1.0  0.34371134239874107  0.5130582692770885  0.23872125229284794  1.0000
  C   C7        1.0  0.7418480902326362  0.5361619786374588  0.8111564408169871  1.0000
  C   C8        1.0  0.6829739827420551  0.5440937660074566  0.9036408825655189  1.0000
  C   C9        1.0  0.24697016069013228  0.4533012404810323  0.19096667140200912  1.0000
  C   C10       1.0  0.2965226322529445  0.4550730405846934  0.09787735365181051  1.0000
  C   C11       1.0  0.48406068694739435  0.5785003279771104  0.19150748193879968  1.0000
  C   C12       1.0  0.5262371011708565  0.584161572623124  0.09825038444297723  1.0000
  C   C13       1.0  0.42172355843084824  0.4789697978190475  0.807238735256725  1.0000
  C   C14       1.0  0.36318782812991657  0.4873102387322135  0.8995822157253246  1.0000
  C   C15       1.0  0.4936998450658832  0.5183975468315154  0.950370947532264  1.0000
  C   C16       1.0  0.4371985589367  0.520401631386612  0.04926862631301529  1.0000
  C   C17       1.0  0.9389113216992299  0.13120715536000202  0.47363070396296814  1.0000
  C   C18       1.0  0.1525738581225866  0.062425735738081294  0.43140372501748925  1.0000
  C   C19       1.0  0.789608155276049  0.0685450279309592  0.511383929261527  1.0000
  C   C20       1.0  0.30310222871409553  0.12242833116508219  0.3823140263205006  1.0000
  C   C21       1.0  0.5020874592767511  0.0547703897098231  0.3357827989442726  1.0000
  C   C22       1.0  0.061566659109537666  0.8649656315557691  0.48218773034240325  1.0000
  C   C23       1.0  0.851521185458928  0.9355523208326986  0.5166378111101652  1.0000
  C   C24       1.0  0.21289410877572124  0.9264800963157427  0.4339077972203428  1.0000
  C   C25       1.0  0.4164075928043972  0.8594420727434835  0.3843723738956443  1.0000
  C   C26       1.0  0.5599031785395566  0.919561367934847  0.3363425296910024  1.0000
  C   C27       1.0  0.6546448158226356  0.1223997994560904  0.28342890817040006  1.0000
  C   C28       1.0  0.773260987909573  0.8434650249868414  0.2849907957939735  1.0000
  O   O1        1.0  0.6697193872611747  0.3305282220873949  0.4695657734340913  1.0000
  O   O2        1.0  0.8592095746701174  0.5042203405942728  0.6261281161452177  1.0000
  O   O3        1.0  0.9889566029238563  0.6693940315232537  0.4924670529241126  1.0000
  O   O4        1.0  0.4341795823108329  0.5294168167403014  0.3781952820869919  1.0000
  O   O5        1.0  0.31376215851458517  0.6692853296373045  0.5203022380397756  1.0000
  O   O6        1.0  0.1325292386274413  0.47597094088337133  0.37744309251030483  1.0000
  O   O7        1.0  0.9939238064239361  0.3217742162336776  0.5018821713916353  1.0000
  O   O8        1.0  0.5422167728115497  0.46863960603359806  0.622224905826201  1.0000
  O   O9        1.0  0.25923352201387195  0.43515273384702635  0.5394858715152893  1.0000
  O   O10       1.0  0.7255334954040363  0.560049951332161  0.4639531235594063  1.0000
