data_image0
_chemical_formula_structural       Cu2H12C16N8O12
_chemical_formula_sum              "Cu2 H12 C16 N8 O12"
_cell_length_a       6.795237103446097
_cell_length_b       7.60606508660376
_cell_length_c       12.042917510678398
_cell_angle_alpha    76.66298968861447
_cell_angle_beta     73.60362174649379
_cell_angle_gamma    63.43653969332506

_space_group_name_H-M_alt    "P 1"
_space_group_IT_number       1

loop_
  _space_group_symop_operation_xyz
  'x, y, z'

loop_
  _atom_site_type_symbol
  _atom_site_label
  _atom_site_symmetry_multiplicity
  _atom_site_fract_x
  _atom_site_fract_y
  _atom_site_fract_z
  _atom_site_occupancy
  Cu  Cu1       1.0  0.48019322269454534  0.230199685565843  0.8095857957088413  1.0000
  Cu  Cu2       1.0  0.5198132899856277  0.769855188396619  0.19035786138553595  1.0000
  H   H1        1.0  0.07418305314267579  0.23762653660152472  0.9833412897244358  1.0000
  H   H2        1.0  0.29513016260797553  0.762367088727693  0.016678110939643914  1.0000
  H   H3        1.0  0.9258498233091504  0.7623158369266676  0.01665003823676881  1.0000
  H   H4        1.0  0.7049203219184509  0.23759009227017466  0.9833168111329726  1.0000
  H   H5        1.0  0.44655866264396604  0.24470926403552798  0.5939623067773568  1.0000
  H   H6        1.0  0.28487609238266043  0.7554955280260885  0.40600669586875426  1.0000
  H   H7        1.0  0.5534904311299942  0.7552093997598419  0.40601788271317213  1.0000
  H   H8        1.0  0.7151740149425765  0.2444379506925074  0.593979859490922  1.0000
  H   H9        1.0  0.35792256631508945  0.2427112654930994  0.409639414755013  1.0000
  H   H10       1.0  0.009745886249973848  0.7573701923674037  0.5903954561531605  1.0000
  H   H11       1.0  0.6421254969474436  0.7571807564268483  0.590352995432106  1.0000
  H   H12       1.0  0.9903097277131754  0.24253071739796178  0.40960150231681797  1.0000
  C   C1        1.0  0.03474970584498789  0.23617652464508146  0.9020746567002148  1.0000
  C   C2        1.0  0.17288358870730047  0.7639201886856599  0.0979223962772906  1.0000
  C   C3        1.0  0.9652815217093579  0.7638013824635833  0.09791001670033964  1.0000
  C   C4        1.0  0.8271372280466457  0.23606661065951326  0.9020663711560671  1.0000
  C   C5        1.0  0.1365158941012083  0.2369968704582277  0.7011914567902906  1.0000
  C   C6        1.0  0.07442909093406068  0.76313300077004  0.29880304011379616  1.0000
  C   C7        1.0  0.863504494289558  0.7629825245763725  0.2987971083657611  1.0000
  C   C8        1.0  0.925587396509592  0.23685676271302467  0.7011869284301468  1.0000
  C   C9        1.0  0.2889504275698941  0.24046824018503093  0.5942252653018585  1.0000
  C   C10       1.0  0.12327617505592794  0.7597610085346674  0.40576494287053316  1.0000
  C   C11       1.0  0.7110856623625355  0.7594652458099561  0.4057645525166008  1.0000
  C   C12       1.0  0.8767571615347478  0.2402006141416777  0.5942248094099086  1.0000
  C   C13       1.0  0.23827962217485796  0.24032369456680405  0.4914071400940188  1.0000
  C   C14       1.0  0.9696266535670193  0.759768116436156  0.5085981619984851  1.0000
  C   C15       1.0  0.761764340108947  0.7595920225752693  0.5085858641040062  1.0000
  C   C16       1.0  0.030412091908367276  0.24016537253270795  0.4913951271782864  1.0000
  N   N1        1.0  0.1855282225749878  0.23510894221907108  0.8042656582302995  1.0000
  N   N2        1.0  0.22464454567108336  0.7650986723509162  0.19574437294689775  1.0000
  N   N3        1.0  0.8144943543140785  0.7648719282723919  0.1957184048933343  1.0000
  N   N4        1.0  0.775374122315548  0.23489553148198183  0.8042441060627183  1.0000
  N   N5        1.0  0.2876874635421204  0.633285324226392  0.7914486580976714  1.0000
  N   N6        1.0  0.7124155651889625  0.36670125167441364  0.2083511278198103  1.0000
  N   N7        1.0  0.677317437548233  0.8233404303313848  0.8220241074913517  1.0000
  N   N8        1.0  0.32243031262680694  0.17686441311820292  0.17823354823303816  1.0000
  O   O1        1.0  0.3175182572183462  0.48752076379685855  0.8776033157536175  1.0000
  O   O2        1.0  0.6825174660536035  0.5125428828909122  0.12224224762193363  1.0000
  O   O3        1.0  0.1886221802068849  0.8050943085878332  0.8178366525612262  1.0000
  O   O4        1.0  0.8114734668474529  0.1949277434197683  0.18190101557729585  1.0000
  O   O5        1.0  0.3599075252544782  0.5912546446080428  0.6888780012878186  1.0000
  O   O6        1.0  0.6402674600871878  0.4086208696632596  0.3109415834878463  1.0000
  O   O7        1.0  0.6434733406359572  0.9739667517129718  0.7391664644365933  1.0000
  O   O8        1.0  0.35649248069121603  0.026000941115377398  0.26094398682374736  1.0000
  O   O9        1.0  0.7767167860468622  0.6546225968224705  0.7921418783849674  1.0000
  O   O10       1.0  0.2229968192109056  0.34545215143509017  0.20831277511302196  1.0000
  O   O11       1.0  0.6065860006111171  0.8610669197506693  0.9255553872240297  1.0000
  O   O12       1.0  0.39299087828700163  0.1394977537533535  0.07464495446153313  1.0000
