data_image0
_chemical_formula_structural       Zn2H12C30N12O30
_chemical_formula_sum              "Zn2 H12 C30 N12 O30"
_cell_length_a       10.224486559131538
_cell_length_b       10.907596258784709
_cell_length_c       13.03414617377987
_cell_angle_alpha    108.02163806514902
_cell_angle_beta     98.56955243041388
_cell_angle_gamma    92.35626316883531

_space_group_name_H-M_alt    "P 1"
_space_group_IT_number       1

loop_
  _space_group_symop_operation_xyz
  'x, y, z'

loop_
  _atom_site_type_symbol
  _atom_site_label
  _atom_site_symmetry_multiplicity
  _atom_site_fract_x
  _atom_site_fract_y
  _atom_site_fract_z
  _atom_site_occupancy
  Zn  Zn1       1.0  0.35942820389932717  0.470058475508921  0.472367511244265  1.0000
  Zn  Zn2       1.0  0.6466892210191375  0.5034648422742477  0.4898116588756666  1.0000
  H   H1        1.0  0.7023124716765992  0.6555573613173777  0.8548695855622626  1.0000
  H   H2        1.0  0.3384675506246495  0.41076155393232466  0.7789551443654972  1.0000
  H   H3        1.0  0.7566392825466083  0.1325063846079999  0.5006778753765673  1.0000
  H   H4        1.0  0.24477349097783474  0.894825769169074  0.5395068616886789  1.0000
  H   H5        1.0  0.18434636198958293  0.5189652236808229  0.7293151225916716  1.0000
  H   H6        1.0  0.19609368077519213  0.675604151959412  0.7107583125088935  1.0000
  H   H7        1.0  0.0953051535601404  0.6356279347447539  0.31279912927205084  1.0000
  H   H8        1.0  0.035575156988024  0.7935322411744322  0.34104021390743366  1.0000
  H   H9        1.0  0.08802483639282602  0.7324519733469045  0.45159042171127334  1.0000
  H   H10       1.0  0.0131629544970053  0.37974838375698977  0.027603696919449285  1.0000
  H   H11       1.0  0.06922236529692329  0.5367730777683802  0.022300914062910203  1.0000
  H   H12       1.0  0.9946329467674603  0.5242043667740148  0.13480262658390532  1.0000
  C   C1        1.0  0.5629986490869427  0.7432154292944799  0.5268793797304241  1.0000
  C   C2        1.0  0.5094035549622545  0.5107558249580109  0.6851404771604875  1.0000
  C   C3        1.0  0.5319271643940412  0.24950772542932503  0.4555475222221403  1.0000
  C   C4        1.0  0.431786201320044  0.5152353785795895  0.2914722746532803  1.0000
  C   C5        1.0  0.41702058127400227  0.532410265680319  0.17928618340736344  1.0000
  C   C6        1.0  0.5190571767252479  0.5282855627570697  0.8048529395777918  1.0000
  C   C7        1.0  0.6235875030267336  0.6327108298823774  0.991655530806689  1.0000
  C   C8        1.0  0.6241959155089206  0.6083644921080661  0.8816162755754675  1.0000
  C   C9        1.0  0.41805861264897715  0.4725229885440569  0.839789198571232  1.0000
  C   C10       1.0  0.4148403162434279  0.4969849418430812  0.9524880932998983  1.0000
  C   C11       1.0  0.5232136344853017  0.5755475303950774  0.032659711001457536  1.0000
  C   C12       1.0  0.522857036548622  0.5811277170966705  0.14336843079816936  1.0000
  C   C13       1.0  0.296749152472323  0.48328694111656734  0.10157626881871104  1.0000
  C   C14       1.0  0.30538808957020086  0.4499839501625331  0.9901601773130864  1.0000
  C   C15       1.0  0.43870549086093286  0.9227261963097885  0.4867379503084948  1.0000
  C   C16       1.0  0.5592656170585926  0.8758000678889674  0.515406655027178  1.0000
  C   C17       1.0  0.6711302598781189  0.9583386769839066  0.5195900787177267  1.0000
  C   C18       1.0  0.6651286494784755  0.07537840280014763  0.49710873670552064  1.0000
  C   C19       1.0  0.5425621292318539  0.120926836699681  0.4714524168615952  1.0000
  C   C20       1.0  0.4314749390668524  0.0401482373012954  0.4669385918203091  1.0000
  C   C21       1.0  0.2831856000120396  0.030282845310431114  0.44188088753746513  1.0000
  C   C22       1.0  0.288827461832483  0.890138513655998  0.466192650535497  1.0000
  C   C23       1.0  0.9612366593001554  0.5273465451539678  0.5648641938153602  1.0000
  C   C24       1.0  0.9110056845355529  0.3989139574047726  0.39224368481190197  1.0000
  C   C25       1.0  0.047504729465885  0.39286780922507347  0.3879209511234833  1.0000
  C   C26       1.0  0.09597671159524171  0.5153332451515948  0.5631934520128965  1.0000
  C   C27       1.0  0.1386647271295303  0.5808435896248625  0.6846660307242445  1.0000
  C   C28       1.0  0.9862805756490685  0.5908983851175619  0.6881492874205434  1.0000
  C   C29       1.0  0.10624401080188052  0.7340151186298485  0.3707045880496622  1.0000
  C   C30       1.0  0.05731362282027422  0.47777078972729475  0.07547583889214593  1.0000
  N   N1        1.0  0.8644694373499179  0.47250837556403963  0.48022204802332175  1.0000
  N   N2        1.0  0.1432607846828446  0.45198112055145145  0.4735240006070782  1.0000
  N   N3        1.0  0.6428190744205935  0.6429236290236986  0.22572761415432302  1.0000
  N   N4        1.0  0.22321137046175468  0.011627685107122004  0.3237661035380057  1.0000
  N   N5        1.0  0.8116701627597112  0.3079770102866988  0.3023281685290868  1.0000
  N   N6        1.0  0.0903054309661826  0.3145476804022919  0.2847684059808984  1.0000
  N   N7        1.0  0.9301551711866766  0.503176469537145  0.7477545609559684  1.0000
  N   N8        1.0  0.9456447237702506  0.7274303884365523  0.7406712749844147  1.0000
  N   N9        1.0  0.7262342221730762  0.7353554622482434  0.06385201418419231  1.0000
  N   N10       1.0  0.2016612253828995  0.3565033286670812  0.9117202688872723  1.0000
  N   N11       1.0  0.807201888602151  0.9273772772346259  0.5532880568111977  1.0000
  N   N12       1.0  0.21951094696441234  0.1329372285030459  0.5221307455918662  1.0000
  O   O1        1.0  0.45565292742701763  0.6884223995344954  0.534620963421979  1.0000
  O   O2        1.0  0.6744785232980491  0.6928542048709188  0.5215823520449234  1.0000
  O   O3        1.0  0.39080268764175224  0.4977896433845642  0.6322850022253945  1.0000
  O   O4        1.0  0.6158000715045445  0.5110499234677731  0.6466601513854684  1.0000
  O   O5        1.0  0.4166182602145269  0.2889007803531314  0.45073391102967975  1.0000
  O   O6        1.0  0.6383735367999036  0.3115739737410265  0.4520569445455251  1.0000
  O   O7        1.0  0.3280523049160635  0.5120819854904537  0.3344311588019337  1.0000
  O   O8        1.0  0.5467257225681266  0.49742168140678433  0.3319886331371151  1.0000
  O   O9        1.0  0.749687063072706  0.5992341938558992  0.206729436707846  1.0000
  O   O10       1.0  0.6272294405612017  0.7350878993615452  0.30434305702561193  1.0000
  O   O11       1.0  0.3020398832022195  0.015758452079971605  0.2617789183451649  1.0000
  O   O12       1.0  0.10170632826210382  0.9877540217472072  0.2988094256899885  1.0000
  O   O13       1.0  0.2415873078220869  0.7821501135373552  0.3778143406795138  1.0000
  O   O14       1.0  0.7364120209130504  0.35330492277792297  0.24452722758013581  1.0000
  O   O15       1.0  0.8170024555631625  0.1944037285467317  0.2995993276307019  1.0000
  O   O16       1.0  0.1992658444638735  0.2725941510912051  0.2932723559103749  1.0000
  O   O17       1.0  0.010656150950644901  0.3001602893386064  0.1999409693052314  1.0000
  O   O18       1.0  0.9390483631955605  0.5515107487820571  0.8471917317835107  1.0000
  O   O19       1.0  0.8869213133392863  0.39272879042644593  0.6906007473217032  1.0000
  O   O20       1.0  0.0349450081194789  0.8159740092546455  0.7741010915679141  1.0000
  O   O21       1.0  0.8267987633214418  0.7332270375382989  0.7445022631177949  1.0000
  O   O22       1.0  0.1844594261906281  0.47347747576788624  0.14039378643685302  1.0000
  O   O23       1.0  0.8417563020871199  0.7271475956170049  0.04693408902091536  1.0000
  O   O24       1.0  0.685691385374902  0.8256409598535085  0.13203187175692221  1.0000
  O   O25       1.0  0.152409718075063  0.3771796802423637  0.8260690541911373  1.0000
  O   O26       1.0  0.1703854305700929  0.25960069389224566  0.9360633595128361  1.0000
  O   O27       1.0  0.8808671629229252  0.9034116951438873  0.4838689166974746  1.0000
  O   O28       1.0  0.8381044063229481  0.9345250721513876  0.6502847005839669  1.0000
  O   O29       1.0  0.1257014902535971  0.1865628361961029  0.4900103416321571  1.0000
  O   O30       1.0  0.2706233973146013  0.15337600234861526  0.6187952580050862  1.0000
