data_image0
_chemical_formula_structural       Zn6H72C60N12O24
_chemical_formula_sum              "Zn6 H72 C60 N12 O24"
_cell_length_a       10.206392191004015
_cell_length_b       17.61240990543625
_cell_length_c       17.61059361901013
_cell_angle_alpha    120.01186738333536
_cell_angle_beta     89.99990050022514
_cell_angle_gamma    90.0000677743832

_space_group_name_H-M_alt    "P 1"
_space_group_IT_number       1

loop_
  _space_group_symop_operation_xyz
  'x, y, z'

loop_
  _atom_site_type_symbol
  _atom_site_label
  _atom_site_symmetry_multiplicity
  _atom_site_fract_x
  _atom_site_fract_y
  _atom_site_fract_z
  _atom_site_occupancy
  Zn  Zn1       1.0  0.9904463996471263  0.5357735662767454  0.07747790751879786  1.0000
  Zn  Zn2       1.0  0.823645845458529  0.07736247574899838  0.5414918075219292  1.0000
  Zn  Zn3       1.0  0.657151755578937  0.5415128218038917  0.46408185705563193  1.0000
  Zn  Zn4       1.0  0.4904446778407562  0.46422438224281154  0.9225210973375226  1.0000
  Zn  Zn5       1.0  0.3236444908196887  0.922637791544915  0.4585083930762791  1.0000
  Zn  Zn6       1.0  0.15715118060787603  0.45848773288717143  0.5359181630565076  1.0000
  H   H1        1.0  0.21881806789630084  0.43454866329037867  0.09870134288012615  1.0000
  H   H2        1.0  0.05188227772729451  0.09852685895928902  0.663872347263549  1.0000
  H   H3        1.0  0.8853342205870902  0.6640865668856579  0.5653361048663329  1.0000
  H   H4        1.0  0.7188183613058854  0.5654498749034574  0.901297246697837  1.0000
  H   H5        1.0  0.5518820117173603  0.9014739103245192  0.3361286617883578  1.0000
  H   H6        1.0  0.3853336987249207  0.33591380301940194  0.434662817522785  1.0000
  H   H7        1.0  0.2805585779896589  0.3850815570109489  0.20491782151065507  1.0000
  H   H8        1.0  0.1136552053763751  0.20480465482886262  0.8195811289595413  1.0000
  H   H9        1.0  0.9469084629994173  0.8197812234820037  0.614752554473668  1.0000
  H   H10       1.0  0.7805592907271475  0.6149181319413516  0.7950818492885077  1.0000
  H   H11       1.0  0.6136561687191033  0.7951961294351833  0.1804198254202163  1.0000
  H   H12       1.0  0.4469077712584522  0.1802197292480373  0.3852468813519111  1.0000
  H   H13       1.0  0.910416706613418  0.4890662695052016  0.3355857951470825  1.0000
  H   H14       1.0  0.7436046364621376  0.3355218848660615  0.8462715305121195  1.0000
  H   H15       1.0  0.5767318068334076  0.8462176728296599  0.5106725148282081  1.0000
  H   H16       1.0  0.41041683345796554  0.510933123165657  0.6644140885624097  1.0000
  H   H17       1.0  0.2436056275025322  0.6644792586833291  0.1537289810170889  1.0000
  H   H18       1.0  0.07673270875513791  0.15378196669417588  0.48932733636602427  1.0000
  H   H19       1.0  0.8663141648129483  0.536647955168995  0.22665568964848856  1.0000
  H   H20       1.0  0.6995039657316299  0.22657472915479815  0.6897237275969276  1.0000
  H   H21       1.0  0.53289840375254  0.6896628135421565  0.4630229217109657  1.0000
  H   H22       1.0  0.366312888269931  0.4633523224720975  0.7733444731864481  1.0000
  H   H23       1.0  0.1995037303562697  0.7734249401414388  0.31027601493935447  1.0000
  H   H24       1.0  0.0328985028262565  0.3103368153518745  0.5369769682779975  1.0000
  H   H25       1.0  0.0644222203566116  0.36623781430741087  0.3511512380039576  1.0000
  H   H26       1.0  0.8974168763829481  0.350977591066517  0.9846793924730052  1.0000
  H   H27       1.0  0.7306519711634536  0.9847482458806172  0.6336379244611834  1.0000
  H   H28       1.0  0.5644214502457316  0.6337623901242113  0.64884919201765  1.0000
  H   H29       1.0  0.39741825063229896  0.6490226941173773  0.015320742833573263  1.0000
  H   H30       1.0  0.2306529586693244  0.01525265440690052  0.36636170275961893  1.0000
  H   H31       1.0  0.2339023192134775  0.38336193457355006  0.3394442476909276  1.0000
  H   H32       1.0  0.0669520535013177  0.3392559802538885  0.9559732263050762  1.0000
  H   H33       1.0  0.9001398692929214  0.9559688290327842  0.6166447453343978  1.0000
  H   H34       1.0  0.733901479047944  0.6166388788505017  0.6605566002659415  1.0000
  H   H35       1.0  0.5669541307729987  0.6607445525638482  0.044026873636362034  1.0000
  H   H36       1.0  0.40014184442573253  0.04403202470461311  0.3833559554940962  1.0000
  H   H37       1.0  0.2567861197427632  0.550743623884415  0.38531029326018273  1.0000
  H   H38       1.0  0.0901348130318809  0.3852424528252102  0.8345734025637342  1.0000
  H   H39       1.0  0.9234547968568876  0.8345506393523083  0.44924508625892656  1.0000
  H   H40       1.0  0.7567860549701066  0.44925752286138027  0.6146902066033277  1.0000
  H   H41       1.0  0.5901354528050149  0.6147575177211307  0.16542610892849294  1.0000
  H   H42       1.0  0.4234555385224467  0.16544932437349058  0.5507553538431864  1.0000
  H   H43       1.0  0.09748887293039842  0.6647365987326809  0.4744980450358582  1.0000
  H   H44       1.0  0.930882566812592  0.4744590768264417  0.8097926107035747  1.0000
  H   H45       1.0  0.7641439958294357  0.8096857436968535  0.33523257287420444  1.0000
  H   H46       1.0  0.5974878628500306  0.3352636137176504  0.5255023557204979  1.0000
  H   H47       1.0  0.4308831647906857  0.5255421121382469  0.19020773507706665  1.0000
  H   H48       1.0  0.2641444466100538  0.19031426904712126  0.6647667846127518  1.0000
  H   H49       1.0  0.256235434326193  0.6994389357659473  0.5200803146090607  1.0000
  H   H50       1.0  0.0896725161311025  0.5199892036062651  0.8206983391288035  1.0000
  H   H51       1.0  0.9228955521136867  0.8205793963316951  0.3005215894088948  1.0000
  H   H52       1.0  0.7562335101949103  0.30056098740842435  0.4799202734903147  1.0000
  H   H53       1.0  0.5896728391373856  0.48001133472102714  0.17930174070486518  1.0000
  H   H54       1.0  0.42289489684819864  0.17942179069596886  0.6994787634411352  1.0000
  H   H55       1.0  0.14191186599449424  0.6604312199168518  0.5703339927376092  1.0000
  H   H56       1.0  0.9753370084860505  0.5702670978528985  0.9099796229822984  1.0000
  H   H57       1.0  0.8085339201923033  0.9098354822908731  0.3395734036280088  1.0000
  H   H58       1.0  0.6419121316821476  0.33956933107860715  0.429666040862088  1.0000
  H   H59       1.0  0.47533771103486794  0.4297337741198318  0.09002101129417635  1.0000
  H   H60       1.0  0.3085322198929603  0.0901653492314126  0.6604273782771771  1.0000
  H   H61       1.0  0.9061670052617002  0.771909036050019  0.14376454065767758  1.0000
  H   H62       1.0  0.739136383410454  0.14368490218059551  0.37178837506606044  1.0000
  H   H63       1.0  0.5726362733988637  0.3718138403623215  0.2279436548337443  1.0000
  H   H64       1.0  0.4061659796293853  0.22808856425938026  0.856234866628995  1.0000
  H   H65       1.0  0.239135364543742  0.8563159125126989  0.6282124682585251  1.0000
  H   H66       1.0  0.0726372969015827  0.628184814851501  0.7720571835048489  1.0000
  H   H67       1.0  0.03817004903201851  0.5168927278001761  0.4509700865596997  1.0000
  H   H68       1.0  0.8714646908090133  0.45096125122882585  0.9340817926184286  1.0000
  H   H69       1.0  0.7047252558327345  0.9339967551359011  0.4829779948590127  1.0000
  H   H70       1.0  0.5381692703801662  0.4831075579166966  0.5490291430842263  1.0000
  H   H71       1.0  0.3714637496821211  0.5490390276613227  0.0659183656579358  1.0000
  H   H72       1.0  0.2047268752730318  0.0660038110921235  0.5170219831476359  1.0000
  C   C1        1.0  0.1545710062684122  0.4464588489462714  0.1531198054205376  1.0000
  C   C2        1.0  0.9876899303198029  0.15299587971954764  0.7063740072801465  1.0000
  C   C3        1.0  0.8210853300864542  0.7065236907864048  0.5533414546944327  1.0000
  C   C4        1.0  0.654570458654689  0.5535417051189598  0.8468802169756557  1.0000
  C   C5        1.0  0.48768989510661953  0.8470046674764263  0.2936269439037034  1.0000
  C   C6        1.0  0.3210856653882459  0.2934765758867783  0.44665874816919166  1.0000
  C   C7        1.0  0.18745518332136163  0.4183826216501672  0.21193814383968151  1.0000
  C   C8        1.0  0.020604741843605702  0.21183716510752515  0.7932725270813635  1.0000
  C   C9        1.0  0.8538716928301185  0.7934279202291705  0.58139596824941  1.0000
  C   C10       1.0  0.6874548693085245  0.5816172848450165  0.7880625051323521  1.0000
  C   C11       1.0  0.5206065917624514  0.7881624608054736  0.2067273737872242  1.0000
  C   C12       1.0  0.3538709549457693  0.20657292228774793  0.4186047735295446  1.0000
  C   C13       1.0  0.10161575437811622  0.43455971399976795  0.28032524566543066  1.0000
  C   C14       1.0  0.9347945691050796  0.28025013385003944  0.8455151762937162  1.0000
  C   C15       1.0  0.7679716811136643  0.845591645647929  0.5652081642189303  1.0000
  C   C16       1.0  0.6016146324899978  0.5654408272236183  0.7196748235986163  1.0000
  C   C17       1.0  0.4347956707573246  0.7197501603980074  0.15448492593217367  1.0000
  C   C18       1.0  0.2679717679662872  0.1544089359173171  0.4347917578126825  1.0000
  C   C19       1.0  0.9830937728887719  0.47693789090313743  0.2853602303214585  1.0000
  C   C20       1.0  0.8162865445646829  0.2852994176922366  0.808168910424918  1.0000
  C   C21       1.0  0.6495037917127605  0.8081695386525567  0.5227869584146844  1.0000
  C   C22       1.0  0.4830927942102293  0.5230632230712402  0.7146412928627441  1.0000
  C   C23       1.0  0.3162885037672467  0.7147015033619937  0.19183064100530323  1.0000
  C   C24       1.0  0.1495048076423373  0.1918301185186736  0.4772128283732685  1.0000
  C   C25       1.0  0.9574413390806241  0.5038698019662393  0.22525325326290607  1.0000
  C   C26       1.0  0.790625244251622  0.22518713273471752  0.721111819833972  1.0000
  C   C27       1.0  0.6239844416706648  0.7211011374228563  0.49581789746880384  1.0000
  C   C28       1.0  0.4574391454974887  0.4961316335594932  0.7747479647854051  1.0000
  C   C29       1.0  0.29062412599296295  0.7748133666724614  0.278889305760778  1.0000
  C   C30       1.0  0.12398359504062742  0.2788988413319231  0.5041815840657549  1.0000
  C   C31       1.0  0.1357618748649969  0.4128380058213992  0.3506924777439052  1.0000
  C   C32       1.0  0.9688790248614937  0.3505481540979504  0.9376867076407862  1.0000
  C   C33       1.0  0.8020709612072708  0.937724971567022  0.5870578635215153  1.0000
  C   C34       1.0  0.6357610082110484  0.5871625436825313  0.6493075612992952  1.0000
  C   C35       1.0  0.46888025916295123  0.6494515805225805  0.06231279648673644  1.0000
  C   C36       1.0  0.3020728849347876  0.06227618616070176  0.41294259626215535  1.0000
  C   C37       1.0  0.23029185085188428  0.5587773154057913  0.4495776867412289  1.0000
  C   C38       1.0  0.0636180786608804  0.4494945993074283  0.8908246823955039  1.0000
  C   C39       1.0  0.8969058179228355  0.8907631528943015  0.44120993304289857  1.0000
  C   C40       1.0  0.7302919622650988  0.44122292924972584  0.5504225964784837  1.0000
  C   C41       1.0  0.5636177760079093  0.5505053648084298  0.10917485256555179  1.0000
  C   C42       1.0  0.3969064207090298  0.10923680439329095  0.5587905305562304  1.0000
  C   C43       1.0  0.35762080799381124  0.5450385125178698  0.487696607007166  1.0000
  C   C44       1.0  0.19093139171724968  0.48763967061663765  0.9427019517556161  1.0000
  C   C45       1.0  0.024193942536754796  0.9426681277741481  0.45499971080059237  1.0000
  C   C46       1.0  0.8576210616984169  0.45496119512215233  0.5123029955889322  1.0000
  C   C47       1.0  0.6909321464018491  0.5123608046147652  0.057299262071502606  1.0000
  C   C48       1.0  0.5241952457529849  0.057331171236896246  0.545000514731548  1.0000
  C   C49       1.0  0.17828523478852526  0.6517862460698892  0.5077355668932312  1.0000
  C   C50       1.0  0.011681130604635798  0.507669626860718  0.8559960534974849  1.0000
  C   C51       1.0  0.8449384889194677  0.8558779121251803  0.3481839135667286  1.0000
  C   C52       1.0  0.6782853305388059  0.34821398597389225  0.4922647623545018  1.0000
  C   C53       1.0  0.5116815845485831  0.4923314604465858  0.14400466329387732  1.0000
  C   C54       1.0  0.3449379043969643  0.14412236033233944  0.6518162681862663  1.0000
  C   C55       1.0  0.9083558111336031  0.6988216654110601  0.1063045787882898  1.0000
  C   C56       1.0  0.7415583033581754  0.10624504656990306  0.4074229897479782  1.0000
  C   C57       1.0  0.5749357395446497  0.4074280827035112  0.3010397038852943  1.0000
  C   C58       1.0  0.4083538427279621  0.30117739898749124  0.8936956345860096  1.0000
  C   C59       1.0  0.24155550818554164  0.8937560964827828  0.5925775235939952  1.0000
  C   C60       1.0  0.0749349498098297  0.5925717965053751  0.6989610446713287  1.0000
  N   N1        1.0  0.13247270896279417  0.49248128730690155  0.4387864687129337  1.0000
  N   N2        1.0  0.9657349939176642  0.4386862511066812  0.9462820507321795  1.0000
  N   N3        1.0  0.7989838082269713  0.9462322604594531  0.5074615450596266  1.0000
  N   N4        1.0  0.6324719436521704  0.5075189336271322  0.5612139010811745  1.0000
  N   N5        1.0  0.46573509419879844  0.5613140506443699  0.05371802411059424  1.0000
  N   N6        1.0  0.29898449627155804  0.05376800085410589  0.49253867736459966  1.0000
  N   N7        1.0  0.042162072788677604  0.4898074029645585  0.1604855806704251  1.0000
  N   N8        1.0  0.8752996408450571  0.16038889373256654  0.6704026011814009  1.0000
  N   N9        1.0  0.7087410569448949  0.670463439325019  0.5099409230246509  1.0000
  N   N10       1.0  0.542161458717942  0.5101924682966584  0.8395151968921725  1.0000
  N   N11       1.0  0.3752994827371197  0.8396113860876612  0.32959755370052335  1.0000
  N   N12       1.0  0.2087403560538021  0.32953688775575074  0.4900581556568255  1.0000
  O   O1        1.0  0.3544236884825125  0.4996889137273116  0.5258173375611009  1.0000
  O   O2        1.0  0.1877328485234599  0.525779477912458  0.026189087045857068  1.0000
  O   O3        1.0  0.0209439943778378  0.026148978337033817  0.5003503796960305  1.0000
  O   O4        1.0  0.8544241490411436  0.5003116888028033  0.4741825079567334  1.0000
  O   O5        1.0  0.6877327383163916  0.474219948408461  0.9738097701362421  1.0000
  O   O6        1.0  0.5209433861455396  0.9738511278995647  0.49965131241749117  1.0000
  O   O7        1.0  0.4575611687435242  0.582632462159019  0.47947601976488846  1.0000
  O   O8        1.0  0.290825712519954  0.4794467863671415  0.8968540343701292  1.0000
  O   O9        1.0  0.12415679701548042  0.8968671167843497  0.4174217427684395  1.0000
  O   O10       1.0  0.9575603412605176  0.4173658938096453  0.5205214627439715  1.0000
  O   O11       1.0  0.7908243869878078  0.520553232847  0.10314529950318975  1.0000
  O   O12       1.0  0.6241580811588605  0.1031328620124868  0.5825777386126347  1.0000
  O   O13       1.0  0.9875854873589914  0.6655065850518724  0.13926527698387034  1.0000
  O   O14       1.0  0.8207478265055171  0.13932378741778717  0.47373349532453096  1.0000
  O   O15       1.0  0.6541939305218422  0.47369735490308784  0.3343357175372859  1.0000
  O   O16       1.0  0.4875876048806234  0.334490554760457  0.8607322666985766  1.0000
  O   O17       1.0  0.320747122048573  0.8606767192942402  0.5262676036103003  1.0000
  O   O18       1.0  0.15419114567144018  0.5263001843020164  0.6656639127567843  1.0000
  O   O19       1.0  0.8383781546163077  0.6583135559317554  0.0399243439010277  1.0000
  O   O20       1.0  0.6718646953302141  0.03975367995751367  0.3815135019813881  1.0000
  O   O21       1.0  0.5050725718093858  0.3815610480618192  0.34158279351068904  1.0000
  O   O22       1.0  0.3383799891297059  0.3416836353488722  0.9600721082242673  1.0000
  O   O23       1.0  0.1718629380819436  0.9602441913051936  0.6184857848329699  1.0000
  O   O24       1.0  0.0050748957333226  0.6184408456570267  0.6584193928328972  1.0000
