data_image0
_chemical_formula_structural       Zr6H22C50N12O52
_chemical_formula_sum              "Zr6 H22 C50 N12 O52"
_cell_length_a       14.765553240718134
_cell_length_b       14.785202731706764
_cell_length_c       14.842069300821846
_cell_angle_alpha    59.93075725107668
_cell_angle_beta     59.894252942894745
_cell_angle_gamma    60.25833376129896

_space_group_name_H-M_alt    "P 1"
_space_group_IT_number       1

loop_
  _space_group_symop_operation_xyz
  'x, y, z'

loop_
  _atom_site_type_symbol
  _atom_site_label
  _atom_site_symmetry_multiplicity
  _atom_site_fract_x
  _atom_site_fract_y
  _atom_site_fract_z
  _atom_site_occupancy
  Zr  Zr1       1.0  0.881601618426373  0.8779173888249191  0.6185176905200153  1.0000
  Zr  Zr2       1.0  0.12269121746543736  0.1162009510059506  0.38059342127886703  1.0000
  Zr  Zr3       1.0  0.12042484384087956  0.8780365609805046  0.6176259854343299  1.0000
  Zr  Zr4       1.0  0.8838306583493462  0.11954737232605352  0.37769579204737613  1.0000
  Zr  Zr5       1.0  0.1207609187181762  0.8790806531661417  0.37852841733640474  1.0000
  Zr  Zr6       1.0  0.8825361399118918  0.1172630997751584  0.6181137023754174  1.0000
  H   H1        1.0  0.09215664297306604  0.715532305465331  0.5948198327178246  1.0000
  H   H2        1.0  0.09667156185992815  0.09590984804553675  0.21645784232445206  1.0000
  H   H3        1.0  0.09803406062662395  0.08989332162664009  0.5932827819076393  1.0000
  H   H4        1.0  0.7194935682241095  0.09252931338011203  0.5913092233000795  1.0000
  H   H5        1.0  0.15861001707641248  0.5727892948563779  0.37190389265570184  1.0000
  H   H6        1.0  0.8382957860395451  0.43236652889831384  0.6135595354572844  1.0000
  H   H7        1.0  0.6105240470354046  0.12154358964728137  0.9266103364541037  1.0000
  H   H8        1.0  0.3981587607718636  0.871461604872522  0.07454032578920795  1.0000
  H   H9        1.0  0.8513231555440085  0.13493864117563  0.0927777903759548  1.0000
  H   H10       1.0  0.14655448248878847  0.859081816039357  0.9081661405540301  1.0000
  H   H11       1.0  0.5905222752310026  0.4087330761079144  0.3568309026015867  1.0000
  H   H12       1.0  0.41938934303778547  0.5927890659133653  0.6344382495894152  1.0000
  H   H13       1.0  0.7413619085045513  0.633893594482089  0.9642647820327213  1.0000
  H   H14       1.0  0.8277109540092624  0.5416768730844624  0.8872439028758095  1.0000
  H   H15       1.0  0.8192182617532708  0.38005936646484906  0.06466702332878775  1.0000
  H   H16       1.0  0.7361376847659217  0.4732293104785017  0.14115570428903376  1.0000
  H   H17       1.0  0.5912539135021507  0.8550726941790078  0.6408626271519751  1.0000
  H   H18       1.0  0.41738016013570706  0.13603987589020522  0.353674085291857  1.0000
  H   H19       1.0  0.16852602876321035  0.34964168885725405  0.15904965274598476  1.0000
  H   H20       1.0  0.2363475801939501  0.43360687799064834  0.03936137263944065  1.0000
  H   H21       1.0  0.15004009187273237  0.6795814442205953  0.861530924108436  1.0000
  H   H22       1.0  0.18029032970286338  0.5960963480177173  0.9828563124776294  1.0000
  C   C1        1.0  0.9941278616379917  0.7020969351931119  0.4913998438273596  1.0000
  C   C2        1.0  0.31077506117244286  0.9943575141946113  0.2008036776009661  1.0000
  C   C3        1.0  0.00385827745080287  0.3009769287127215  0.4976602431560906  1.0000
  C   C4        1.0  0.6984825389188032  0.9971896496728335  0.8018105365623853  1.0000
  C   C5        1.0  0.9958443889094111  0.7004841525558169  0.8079441682531012  1.0000
  C   C6        1.0  0.702195343776964  0.99698269277652  0.4938866402787451  1.0000
  C   C7        1.0  0.9982485691153896  0.30839468638907885  0.20276175558191778  1.0000
  C   C8        1.0  0.30909704123094184  0.9916640165211702  0.49798882313022813  1.0000
  C   C9        1.0  0.3076371833678805  0.6969137872366248  0.4942612038707921  1.0000
  C   C10       1.0  0.9971927638748498  0.9949353456027625  0.8058641398482321  1.0000
  C   C11       1.0  0.702576115324604  0.3053361903366538  0.49617488256885184  1.0000
  C   C12       1.0  0.0003441157389971351  0.996910577835841  0.19632263319182644  1.0000
  C   C13       1.0  0.004184267286582592  0.4025214352787998  0.49656278461514347  1.0000
  C   C14       1.0  0.9930126773746081  0.6021328506837736  0.49005820108934733  1.0000
  C   C15       1.0  0.09347960124254932  0.44361822485645785  0.42995959383459587  1.0000
  C   C16       1.0  0.9042616831532728  0.5604262327560366  0.5573082102888804  1.0000
  C   C17       1.0  0.08829544128456503  0.5423863678589527  0.4245624430891084  1.0000
  C   C18       1.0  0.9087191306802255  0.4626058820336141  0.5613378971811614  1.0000
  C   C19       1.0  0.4116793866103093  0.9954136503025738  0.0993677171746582  1.0000
  C   C20       1.0  0.595691308452018  0.9988853152344107  0.9014209466899955  1.0000
  C   C21       1.0  0.471777644255468  0.06650655655767693  0.05451407842461013  1.0000
  C   C22       1.0  0.5325420623173965  0.9313578886382889  0.9435668191886107  1.0000
  C   C23       1.0  0.5632822637175325  0.06768240708359509  0.9584533263953076  1.0000
  C   C24       1.0  0.44448995598125407  0.9262755928550562  0.04233680493338454  1.0000
  C   C25       1.0  0.996371647239478  0.9977069169811231  0.905873401035862  1.0000
  C   C26       1.0  0.001381142944154668  0.9958814576818895  0.09528718611068868  1.0000
  C   C27       1.0  0.9152511826320547  0.07591829314428404  0.9583533407030627  1.0000
  C   C28       1.0  0.08362741679048472  0.9189726716261221  0.0415474893890249  1.0000
  C   C29       1.0  0.916411082446615  0.07502644614902491  0.051715419131092254  1.0000
  C   C30       1.0  0.08140686421022993  0.9188280876886878  0.9493343520791057  1.0000
  C   C31       1.0  0.40887359542917784  0.5958758790257549  0.49351992412739076  1.0000
  C   C32       1.0  0.6007034363303347  0.4056020580412893  0.49787208394902643  1.0000
  C   C33       1.0  0.4587075171012458  0.542175257363873  0.4163040994830213  1.0000
  C   C34       1.0  0.5496765838180552  0.4579915686414114  0.5763887312711872  1.0000
  C   C35       1.0  0.5530641815894695  0.44955230355412124  0.41726323932520143  1.0000
  C   C36       1.0  0.4564977037377745  0.5518633921925372  0.5741769591310658  1.0000
  C   C37       1.0  0.9953307972211219  0.6064148271786822  0.9108887252816303  1.0000
  C   C38       1.0  0.9952152511069913  0.41198294372261324  0.10940413569687038  1.0000
  C   C39       1.0  0.9147234930082816  0.5540958964920296  0.9647320837455026  1.0000
  C   C40       1.0  0.0781602963208528  0.46232498396169325  0.0580308814363093  1.0000
  C   C41       1.0  0.9129120213321045  0.4636540453378473  0.06044736912037505  1.0000
  C   C42       1.0  0.07512328876021004  0.5621373701003948  0.9622430418392938  1.0000
  C   C43       1.0  0.8132362693903727  0.5586070855993984  0.9583393185598439  1.0000
  C   C44       1.0  0.809541328560037  0.456379719330883  0.06941679720954147  1.0000
  C   C45       1.0  0.40970690361805817  0.9915461170362081  0.4991685643266948  1.0000
  C   C46       1.0  0.6002989544462382  0.9981279985323684  0.49413150994058685  1.0000
  C   C47       1.0  0.45975951788455677  0.9136027310573667  0.579873833710586  1.0000
  C   C48       1.0  0.5491232003310247  0.0771909439460856  0.4144985739512563  1.0000
  C   C49       1.0  0.553193778618038  0.9161449784771705  0.5780087624687127  1.0000
  C   C50       1.0  0.4559549329476127  0.07437674111970702  0.41608990016338504  1.0000
  N   N1        1.0  0.20164814935219516  0.38003567757327517  0.36771893931663874  1.0000
  N   N2        1.0  0.7977477708037948  0.6212337658169957  0.6237579173751158  1.0000
  N   N3        1.0  0.44280351571866555  0.1440079201074768  0.10737718018948066  1.0000
  N   N4        1.0  0.5493463208314465  0.8691063065841295  0.8805898689221718  1.0000
  N   N5        1.0  0.8235604423715588  0.16526509779676263  0.9170779890223315  1.0000
  N   N6        1.0  0.17946767500049532  0.8338578618523655  0.0780034745812515  1.0000
  N   N7        1.0  0.41328063446258073  0.5798548205050907  0.3294399711158817  1.0000
  N   N8        1.0  0.5907716581976246  0.4159898049245002  0.6677598903363772  1.0000
  N   N9        1.0  0.41587907738140467  0.8237191097641134  0.6722306226046298  1.0000
  N   N10       1.0  0.5904563541185153  0.16946081717157574  0.3243635532065952  1.0000
  N   N11       1.0  0.16282500223303492  0.4228792968925319  0.09582987449412167  1.0000
  N   N12       1.0  0.15575177946954705  0.6061929039796539  0.924562700400159  1.0000
  O   O1        1.0  0.9194362648082262  0.738461412266844  0.570255343597317  1.0000
  O   O2        1.0  0.27128017807532245  0.07143771334341416  0.2393121802673903  1.0000
  O   O3        1.0  0.08021647328812521  0.2622266446180888  0.42093081038827757  1.0000
  O   O4        1.0  0.7390354362582201  0.9186900118757253  0.765095617358689  1.0000
  O   O5        1.0  0.07453984836667611  0.7422338974895483  0.7613476046693393  1.0000
  O   O6        1.0  0.7426771811125691  0.07325242951459637  0.41677969018653027  1.0000
  O   O7        1.0  0.9235174499634339  0.26548779769162695  0.24011632689447288  1.0000
  O   O8        1.0  0.2685345873748731  0.9152969327227397  0.5747880033713598  1.0000
  O   O9        1.0  0.26789464431934096  0.7359456694473253  0.4183074016112798  1.0000
  O   O10       1.0  0.9200694167579042  0.06991276924338778  0.7670297951260067  1.0000
  O   O11       1.0  0.7432158520193326  0.2668652766575122  0.5713205838540815  1.0000
  O   O12       1.0  0.0765578853743064  0.9202279357785202  0.235748970150027  1.0000
  O   O13       1.0  0.0753651904700092  0.9189327286202769  0.7671833042406603  1.0000
  O   O14       1.0  0.7394303218354993  0.2661436273595684  0.42056551303664946  1.0000
  O   O15       1.0  0.924420190787984  0.07442926757143215  0.23377884533264381  1.0000
  O   O16       1.0  0.2689709208783029  0.7346368914837529  0.5715005261114782  1.0000
  O   O17       1.0  0.921474627800187  0.7370232926895854  0.7659941438392366  1.0000
  O   O18       1.0  0.2706881699576229  0.06865429775325557  0.42139795073025965  1.0000
  O   O19       1.0  0.07701694312527964  0.26195923416819505  0.24327224952958906  1.0000
  O   O20       1.0  0.7398796253642247  0.9206867566763889  0.5712307709235417  1.0000
  O   O21       1.0  0.7377120786668527  0.07415716339998824  0.7629044383337983  1.0000
  O   O22       1.0  0.07251107137493305  0.7399096338855459  0.41577907255975066  1.0000
  O   O23       1.0  0.27075885918091563  0.9184670447711551  0.238346308721546  1.0000
  O   O24       1.0  0.9263541539305606  0.26241823756580396  0.5745871722437884  1.0000
  O   O25       1.0  0.7998393481121225  0.06625372729679685  0.5651253536720448  1.0000
  O   O26       1.0  0.06992684684936291  0.06373930457176169  0.5672685115142571  1.0000
  O   O27       1.0  0.0708572865891099  0.06522228503730083  0.29653977539189913  1.0000
  O   O28       1.0  0.06798668318020154  0.7956761308476602  0.5648304436951789  1.0000
  O   O29       1.0  0.1511883043323862  0.9473154466252682  0.44899852717393407  1.0000
  O   O30       1.0  0.9523724290313994  0.9495692995249031  0.4485713293808829  1.0000
  O   O31       1.0  0.9533446970392488  0.14653864683810994  0.4498619517896713  1.0000
  O   O32       1.0  0.951402880938765  0.948763956468334  0.6468005392403878  1.0000
  O   O33       1.0  0.2556223527218434  0.29526213023985554  0.42407740643906777  1.0000
  O   O34       1.0  0.23148773508410864  0.4186507794360211  0.2660092955272688  1.0000
  O   O35       1.0  0.7755216612256816  0.5841108135596045  0.7247431023916135  1.0000
  O   O36       1.0  0.7373304096314045  0.7018160202793597  0.5715961185039545  1.0000
  O   O37       1.0  0.3884231196081699  0.24092825380999017  0.06869343357236352  1.0000
  O   O38       1.0  0.47976847277791285  0.10659574868373775  0.18190844125130207  1.0000
  O   O39       1.0  0.5278603689684901  0.9260272158297058  0.7935625541862094  1.0000
  O   O40       1.0  0.5765633603098194  0.7675979176877237  0.9217579040446751  1.0000
  O   O41       1.0  0.8415771694105205  0.2522382282806817  0.8480762636042274  1.0000
  O   O42       1.0  0.7354345202060983  0.14672610346892187  0.9594820864279184  1.0000
  O   O43       1.0  0.2599608085980805  0.8629175699753304  0.042382025851161055  1.0000
  O   O44       1.0  0.17316692892528335  0.7401460870413176  0.13546502999385973  1.0000
  O   O45       1.0  0.3414936319029279  0.5427092618965548  0.3556513905587905  1.0000
  O   O46       1.0  0.4547108420242125  0.6402127310055619  0.23740662984304353  1.0000
  O   O47       1.0  0.5542328200319133  0.3462335100642164  0.7534303746232281  1.0000
  O   O48       1.0  0.6533639593068659  0.4585375442301115  0.6523550175139688  1.0000
  O   O49       1.0  0.3465305078746825  0.8441455258983551  0.7578588067401171  1.0000
  O   O50       1.0  0.4554092846481837  0.7345098101349948  0.6577158913869069  1.0000
  O   O51       1.0  0.5537743081164378  0.2549375001357961  0.34491127346323214  1.0000
  O   O52       1.0  0.6540963162625317  0.15504291710850296  0.23497599079657766  1.0000
