data_image0
_chemical_formula_structural       Zn2H28C28O14
_chemical_formula_sum              "Zn2 H28 C28 O14"
_cell_length_a       5.912253932736203
_cell_length_b       7.44682094296843
_cell_length_c       15.864450652359883
_cell_angle_alpha    90.00207151368728
_cell_angle_beta     97.05233249409771
_cell_angle_gamma    90.00282811865874

_space_group_name_H-M_alt    "P 1"
_space_group_IT_number       1

loop_
  _space_group_symop_operation_xyz
  'x, y, z'

loop_
  _atom_site_type_symbol
  _atom_site_label
  _atom_site_symmetry_multiplicity
  _atom_site_fract_x
  _atom_site_fract_y
  _atom_site_fract_z
  _atom_site_occupancy
  Zn  Zn1       1.0  0.25823642509337214  0.42594619196182737  0.8522741415120052  1.0000
  Zn  Zn2       1.0  0.7417789307887049  0.9259024255067555  0.1477317658554256  1.0000
  H   H1        1.0  0.669495540923478  0.3902063758096688  0.9346698384277088  1.0000
  H   H2        1.0  0.3304997493025894  0.8902251887844199  0.06532832007418679  1.0000
  H   H3        1.0  0.6893886604138046  0.4037719877355385  0.8335508107361136  1.0000
  H   H4        1.0  0.3106213985103707  0.9037503319612838  0.16644947364262916  1.0000
  H   H5        1.0  0.032840644970164604  0.3128380071751096  0.9771318800540738  1.0000
  H   H6        1.0  0.9671534020569582  0.8128107301221588  0.02286942868621369  1.0000
  H   H7        1.0  0.15932382704288983  0.13286260598734148  0.9488742618513155  1.0000
  H   H8        1.0  0.8406723154311281  0.6328150745995275  0.05111928953498079  1.0000
  H   H9        1.0  0.16589371609199333  0.397684970995975  0.5771330857414724  1.0000
  H   H10       1.0  0.8341056749412559  0.8976670547778981  0.4228723044903758  1.0000
  H   H11       1.0  0.5248381435027908  0.23732866205670422  0.6568975783036564  1.0000
  H   H12       1.0  0.47512407183090494  0.7373254408400739  0.3430992524100489  1.0000
  H   H13       1.0  0.38093606108867556  0.1516260115476413  0.5091711288338558  1.0000
  H   H14       1.0  0.6190105486628354  0.6516341485085064  0.4908243045804497  1.0000
  H   H15       1.0  0.2087204669422675  0.4118732353055278  0.425384047084755  1.0000
  H   H16       1.0  0.7912885876940194  0.9119097144920686  0.5746188410228965  1.0000
  H   H17       1.0  0.43283769323542043  0.14755805440773878  0.3515474064909796  1.0000
  H   H18       1.0  0.5671256233332117  0.6475805194826377  0.6484487033063857  1.0000
  H   H19       1.0  0.061312447462086105  0.34511678852940963  0.27567451312392416  1.0000
  H   H20       1.0  0.9386893940256585  0.8451836981985534  0.7243282752857638  1.0000
  H   H21       1.0  0.757315605496082  0.4674875353320401  0.1946752443730588  1.0000
  H   H22       1.0  0.24272375853666264  0.9675308013678927  0.8053430904943539  1.0000
  H   H23       1.0  0.3989507924905241  0.5220473272637773  0.08996950879792108  1.0000
  H   H24       1.0  0.6011418424322912  0.0220754103103005  0.910025956727246  1.0000
  H   H25       1.0  0.3033256373601461  0.3037739898194046  0.11656843724694  1.0000
  H   H26       1.0  0.6966981680123752  0.8037851489332511  0.8834182893860002  1.0000
  H   H27       1.0  0.34542463401926676  0.4763455308857019  0.19548907195174078  1.0000
  H   H28       1.0  0.65462370354728  0.976352832527361  0.8045039539662467  1.0000
  C   C1        1.0  0.9516305574804848  0.3677972270370019  0.714634263797464  1.0000
  C   C2        1.0  0.048342506448356894  0.867757469516462  0.2853701247505  1.0000
  C   C3        1.0  0.8585218462256137  0.31946678624869657  0.6259934008337139  1.0000
  C   C4        1.0  0.1414608196163343  0.8194466715805714  0.3740075074355147  1.0000
  C   C5        1.0  0.9932110777899013  0.3464669159317423  0.561824998979972  1.0000
  C   C6        1.0  0.006758497865568802  0.8464615373190582  0.4381770116462391  1.0000
  C   C7        1.0  0.6322243138745307  0.25439047372618967  0.6061801478257891  1.0000
  C   C8        1.0  0.367722201928963  0.7543788574334442  0.3938099503738073  1.0000
  C   C9        1.0  0.907247676097441  0.3152057317215409  0.4760466038634234  1.0000
  C   C10       1.0  0.0927312569221925  0.8152114831830913  0.5239565942483253  1.0000
  C   C11       1.0  0.550555005665359  0.2096418527247295  0.523574569079372  1.0000
  C   C12       1.0  0.44941687661207647  0.7096543999486042  0.476424779305809  1.0000
  C   C13       1.0  0.6830003728566681  0.240941622303211  0.4558840756023982  1.0000
  C   C14       1.0  0.3169758174046606  0.7409585260420499  0.5441172124567828  1.0000
  C   C15       1.0  0.0394781340920929  0.3542910829799695  0.4095733355887532  1.0000
  C   C16       1.0  0.9605209744814543  0.8543165442679308  0.5904219104497272  1.0000
  C   C17       1.0  0.6008106097347364  0.20616487689056123  0.3695308209762159  1.0000
  C   C18       1.0  0.39914222529836246  0.7062062726755511  0.630466369361855  1.0000
  C   C19       1.0  0.9567557881326182  0.3199512301300516  0.32641690862732986  1.0000
  C   C20       1.0  0.0432370789959364  0.8200190544162635  0.6735781561112901  1.0000
  C   C21       1.0  0.7357918167677512  0.24635996986111044  0.3069519430130327  1.0000
  C   C22       1.0  0.2641762809310109  0.7463998458626477  0.6930471803921066  1.0000
  C   C23       1.0  0.6547752132292999  0.3564829723221122  0.16402155159256174  1.0000
  C   C24       1.0  0.3452633778839099  0.8565198200871436  0.8359849320565828  1.0000
  C   C25       1.0  0.7685594683713363  0.2961147820436522  0.08741298051076277  1.0000
  C   C26       1.0  0.23149629014165643  0.7961532692708744  0.9125939520029006  1.0000
  C   C27       1.0  0.4097504722915985  0.418558419177593  0.1393736377235015  1.0000
  C   C28       1.0  0.5903101136151889  0.9185832514813794  0.8606177686068576  1.0000
  O   O1        1.0  0.3468461436823135  0.708063418839707  0.7769734917218969  1.0000
  O   O2        1.0  0.6531187885716889  0.20802072478938521  0.22302552388848074  1.0000
  O   O3        1.0  0.18636794746269914  0.6324509796769462  0.9236181038795195  1.0000
  O   O4        1.0  0.8138040300535466  0.13242636363921184  0.0764134832248686  1.0000
  O   O5        1.0  0.587978901039051  0.3674279210963575  0.8773064293780662  1.0000
  O   O6        1.0  0.41201959559638374  0.8674177481039463  0.12268962453840969  1.0000
  O   O7        1.0  0.1524657761581096  0.266783892669423  0.9444309171304893  1.0000
  O   O8        1.0  0.8475090052223848  0.7667436546981035  0.05555810428067079  1.0000
  O   O9        1.0  0.1611739849730682  0.3242321715884842  0.7395570062642418  1.0000
  O   O10       1.0  0.8387938449599377  0.8241954133946262  0.260453404842572  1.0000
  O   O11       1.0  0.828942663145149  0.45377492040869777  0.7604340260386308  1.0000
  O   O12       1.0  0.17102038990230994  0.9537229459152881  0.23956369608327313  1.0000
  O   O13       1.0  0.8152864101641201  0.416678826605377  0.0348388416928884  1.0000
  O   O14       1.0  0.1847451774963673  0.9167189645958514  0.9651632280517147  1.0000
