data_image0
_chemical_formula_structural       Zn2H60C32O8
_chemical_formula_sum              "Zn2 H60 C32 O8"
_cell_length_a       4.678917613000071
_cell_length_b       9.2242798386273
_cell_length_c       21.02569468338404
_cell_angle_alpha    101.16179140509418
_cell_angle_beta     90.00000859472577
_cell_angle_gamma    90.00001603705748

_space_group_name_H-M_alt    "P 1"
_space_group_IT_number       1

loop_
  _space_group_symop_operation_xyz
  'x, y, z'

loop_
  _atom_site_type_symbol
  _atom_site_label
  _atom_site_symmetry_multiplicity
  _atom_site_fract_x
  _atom_site_fract_y
  _atom_site_fract_z
  _atom_site_occupancy
  Zn  Zn1       1.0  0.06325855845521032  0.0027891084130118  0.9991991825987296  1.0000
  Zn  Zn2       1.0  0.9367406289973701  0.502789892263145  0.9991981865798888  1.0000
  H   H1        1.0  0.3062401344315617  0.7166652129069815  0.9076646772260517  1.0000
  H   H2        1.0  0.6937612462508937  0.21666563993802865  0.9076648465297196  1.0000
  H   H3        1.0  0.278447397834654  0.8396243039859992  0.8549948513218764  1.0000
  H   H4        1.0  0.7215540150019351  0.33962473554694117  0.8549950219356646  1.0000
  H   H5        1.0  0.7718135794278922  0.6185053486306555  0.8560938218284235  1.0000
  H   H6        1.0  0.2281855750721604  0.11850570133875489  0.8560934937100054  1.0000
  H   H7        1.0  0.7647884698146753  0.7503944101700737  0.8060574334070691  1.0000
  H   H8        1.0  0.2352107235394172  0.2503936559065068  0.8060579620559448  1.0000
  H   H9        1.0  0.30552194771474456  0.6422701489151306  0.7554929457310278  1.0000
  H   H10       1.0  0.6944792891401121  0.14227057606322543  0.7554931150685531  1.0000
  H   H11       1.0  0.3117861967745981  0.5085393830262318  0.8045994163444588  1.0000
  H   H12       1.0  0.6882171368296142  0.008539807593137999  0.8046000608622988  1.0000
  H   H13       1.0  0.7768253520203245  0.5474692916766271  0.7059487026624891  1.0000
  H   H14       1.0  0.22317366187244397  0.047468535451180585  0.7059492307439541  1.0000
  H   H15       1.0  0.7777635814678873  0.41028414456217627  0.7534622439727412  1.0000
  H   H16       1.0  0.22223780168518914  0.9102837038397168  0.753462070709318  1.0000
  H   H17       1.0  0.31131166019787326  0.4461219036432453  0.6546369203192198  1.0000
  H   H18       1.0  0.6886896759158034  0.9461226423827112  0.6546373390342097  1.0000
  H   H19       1.0  0.32036501306745185  0.3060224853808932  0.7006750717982655  1.0000
  H   H20       1.0  0.6796362769664128  0.8060232226447608  0.7006754900864961  1.0000
  H   H21       1.0  0.7753163676435976  0.3546319197416706  0.6015776565054691  1.0000
  H   H22       1.0  0.2246827449569579  0.8546325828535257  0.6015780533478787  1.0000
  H   H23       1.0  0.7860880662652292  0.21376598989787243  0.6471050750002333  1.0000
  H   H24       1.0  0.2139109994880286  0.7137666512540618  0.6471054713348747  1.0000
  H   H25       1.0  0.33409245508659774  0.10334076059119468  0.5940979501520187  1.0000
  H   H26       1.0  0.6659065140021241  0.6033414971778085  0.5940978923175493  1.0000
  H   H27       1.0  0.589132194422568  0.12173195861650037  0.5338118957230049  1.0000
  H   H28       1.0  0.41086674405836016  0.6217326520742218  0.533812301341868  1.0000
  H   H29       1.0  0.3041154624725735  0.25020805941049656  0.5510628628947885  1.0000
  H   H30       1.0  0.6958835584544046  0.7502088008830226  0.5510628064733892  1.0000
  H   H31       1.0  0.8527807933988428  0.6632468719486295  0.13873292489677874  1.0000
  H   H32       1.0  0.14722003820867974  0.16324721302048312  0.13873211748617104  1.0000
  H   H33       1.0  0.5348739248992588  0.6787282654236291  0.09681521242564627  1.0000
  H   H34       1.0  0.4651268869102053  0.17872755175432078  0.09681480096129749  1.0000
  H   H35       1.0  0.7863146604047914  0.9283069691738246  0.20072132849733035  1.0000
  H   H36       1.0  0.2136842218914339  0.42830731951838885  0.20072099969534207  1.0000
  H   H37       1.0  0.45715518794752796  0.9356834214951345  0.16107911746788514  1.0000
  H   H38       1.0  0.5428458088693516  0.43568382548907886  0.1610788041820683  1.0000
  H   H39       1.0  0.2739888519872693  0.7247006841022453  0.2094811566105221  1.0000
  H   H40       1.0  0.7260099240452573  0.22470001139368617  0.20948123291943685  1.0000
  H   H41       1.0  0.6070680317929771  0.7110458789312871  0.2464941496020288  1.0000
  H   H42       1.0  0.39293503622264586  0.21104736348731018  0.24649392376455376  1.0000
  H   H43       1.0  0.5526281836500786  0.9721876778052372  0.3091528422540079  1.0000
  H   H44       1.0  0.44737079610204933  0.47219027622998067  0.3091527134976316  1.0000
  H   H45       1.0  0.21260081530826366  0.9818972913335098  0.27426843299188863  1.0000
  H   H46       1.0  0.7874002834646844  0.48189773518701157  0.27426813123402377  1.0000
  H   H47       1.0  0.38675003342048336  0.757996689651456  0.35809090420833195  1.0000
  H   H48       1.0  0.6132488613881222  0.2579982101164404  0.358090688756242  1.0000
  H   H49       1.0  0.0446196158976164  0.770906390902155  0.3244846981744373  1.0000
  H   H50       1.0  0.9553814005589699  0.2709057555783189  0.32448478529555297  1.0000
  H   H51       1.0  0.3382514549202469  0.018824170644876386  0.42111629337064466  1.0000
  H   H52       1.0  0.6617494879472402  0.5188249065537816  0.4211162353401717  1.0000
  H   H53       1.0  0.9947066901207221  0.029649958192798885  0.388333966168254  1.0000
  H   H54       1.0  0.005296373803425099  0.529649482111246  0.3883337826784724  1.0000
  H   H55       1.0  0.1774987000378303  0.8098750984761336  0.4743596550592598  1.0000
  H   H56       1.0  0.8225003019281445  0.3098744446150759  0.4743587849654887  1.0000
  H   H57       1.0  0.9624815846603598  0.9689169294391956  0.49950764535087433  1.0000
  H   H58       1.0  0.037519659176808794  0.4689172495104185  0.49950778372024013  1.0000
  H   H59       1.0  0.8309297306909257  0.8185024802660336  0.4408889481906185  1.0000
  H   H60       1.0  0.1690692534097806  0.3185028217785159  0.4408890927610968  1.0000
  C   C1        1.0  0.5940311096496271  0.8957668375124114  0.9278723099627227  1.0000
  C   C2        1.0  0.4059639716308964  0.3957661157610416  0.9278714202340976  1.0000
  C   C3        1.0  0.43670407706644443  0.7813579681708303  0.8796234567123801  1.0000
  C   C4        1.0  0.5632930458174954  0.28135837393740804  0.8796236198660593  1.0000
  C   C5        1.0  0.6262393216631068  0.6818567417090761  0.8305941407163856  1.0000
  C   C6        1.0  0.3737577132635437  0.18185711658358628  0.8305942949356432  1.0000
  C   C7        1.0  0.451376183951659  0.5770093456702906  0.7801487104280935  1.0000
  C   C8        1.0  0.5486228963620051  0.0770108524812727  0.7801494428807271  1.0000
  C   C9        1.0  0.6343949636732306  0.47792402959083785  0.7293390936707096  1.0000
  C   C10       1.0  0.3656064404463564  0.9779247156714488  0.7293394971560117  1.0000
  C   C11       1.0  0.4583777136750342  0.37771149392040115  0.6774513980906319  1.0000
  C   C12       1.0  0.5416236001640228  0.8777133136857669  0.677451904388114  1.0000
  C   C13       1.0  0.638323133385036  0.28237744044722735  0.6246654510687362  1.0000
  C   C14       1.0  0.3616780922537117  0.7823781258875752  0.6246658543688637  1.0000
  C   C15       1.0  0.4574201386657961  0.18408489432257355  0.573092272672781  1.0000
  C   C16       1.0  0.5425809979621831  0.6840856123687187  0.5730917335493115  1.0000
  C   C17       1.0  0.8767863619860278  0.806018978457217  0.07145866975744039  1.0000
  C   C18       1.0  0.1232080910801159  0.3060093722124435  0.0714565351047725  1.0000
  C   C19       1.0  0.7128510113976958  0.7445604538775751  0.12203360227335477  1.0000
  C   C20       1.0  0.28715199097340616  0.24456081619620557  0.12203327693444517  1.0000
  C   C21       1.0  0.605443742659439  0.8598850005529709  0.17888558889167425  1.0000
  C   C22       1.0  0.3945593616740197  0.3598853788174097  0.17888574409134608  1.0000
  C   C23       1.0  0.45976688660568504  0.7904975194386662  0.23065289482783402  1.0000
  C   C24       1.0  0.5402319399878622  0.29049902956307955  0.23065220045828028  1.0000
  C   C25       1.0  0.36630942571407127  0.9045031533227713  0.2896122123845969  1.0000
  C   C26       1.0  0.6336895035389318  0.4045035721233602  0.28961190338107196  1.0000
  C   C27       1.0  0.23394975339967766  0.836833018108855  0.3434921024560892  1.0000
  C   C28       1.0  0.7660513122266153  0.3368334584827223  0.34349179969186844  1.0000
  C   C29       1.0  0.149188748749431  0.9519521565661434  0.4029846988110605  1.0000
  C   C30       1.0  0.8508124205102163  0.4519515041987601  0.4029847810029351  1.0000
  C   C31       1.0  0.022909542659135695  0.8839883743201322  0.45742732485685156  1.0000
  C   C32       1.0  0.9770894886994341  0.38398774253462864  0.457427413001305  1.0000
  O   O1        1.0  0.4696348552392918  0.9694001285722604  0.9780525402221726  1.0000
  O   O2        1.0  0.5303624377704494  0.4693994224151864  0.9780530827841287  1.0000
  O   O3        1.0  0.8592548460539859  0.9164828074593742  0.9183499514649325  1.0000
  O   O4        1.0  0.14074237745204948  0.4164809328027345  0.9183503811457708  1.0000
  O   O5        1.0  0.9235408062747013  0.9448009452864381  0.08030012455315468  1.0000
  O   O6        1.0  0.0764601409772112  0.44480790636146106  0.08029940542130726  1.0000
  O   O7        1.0  0.9665442596919432  0.7205852886797498  0.019976125820988993  1.0000
  O   O8        1.0  0.0334565232549906  0.22059223650430929  0.01997730656422899  1.0000
