data_image0
_chemical_formula_structural       Cd2H16C22N6O8
_chemical_formula_sum              "Cd2 H16 C22 N6 O8"
_cell_length_a       7.589682279734343
_cell_length_b       8.550173350937085
_cell_length_c       9.913689224971819
_cell_angle_alpha    82.95565981644897
_cell_angle_beta     67.066648814495
_cell_angle_gamma    82.83654127330225

_space_group_name_H-M_alt    "P 1"
_space_group_IT_number       1

loop_
  _space_group_symop_operation_xyz
  'x, y, z'

loop_
  _atom_site_type_symbol
  _atom_site_label
  _atom_site_symmetry_multiplicity
  _atom_site_fract_x
  _atom_site_fract_y
  _atom_site_fract_z
  _atom_site_occupancy
  Cd  Cd1       1.0  0.24041530780122858  0.5854317177348778  0.03486544374167269  1.0000
  Cd  Cd2       1.0  0.7595853568708861  0.4145688702027429  0.9651353164855646  1.0000
  H   H1        1.0  0.7556273119143524  0.9430878292126368  0.671253407617378  1.0000
  H   H2        1.0  0.24437356190729534  0.056910387734269804  0.3287465423044294  1.0000
  H   H3        1.0  0.9166229026595756  0.7786028765554108  0.6881920555039894  1.0000
  H   H4        1.0  0.08338072781744188  0.22139649699752081  0.3118079613376705  1.0000
  H   H5        1.0  0.15023965480244778  0.21530914514089972  0.5408737243623347  1.0000
  H   H6        1.0  0.8497643939736436  0.7846854864306182  0.45912467186847267  1.0000
  H   H7        1.0  0.9015506926729201  0.21221108396795782  0.5753137660732646  1.0000
  H   H8        1.0  0.0984542745570565  0.7877894502751986  0.424684719504121  1.0000
  H   H9        1.0  0.44615939864074516  0.15135683879022113  0.7904880562079267  1.0000
  H   H10       1.0  0.5538381339275346  0.8486472930809511  0.2095071885080769  1.0000
  H   H11       1.0  0.4264648831609462  0.9021220928026282  0.9623282790439587  1.0000
  H   H12       1.0  0.5735381627180799  0.09788435228058032  0.03766709951175071  1.0000
  H   H13       1.0  0.9977471075442422  0.76247199169314  0.8540566602757022  1.0000
  H   H14       1.0  0.0022493377194763055  0.23752748516449876  0.14594950404978135  1.0000
  H   H15       1.0  0.1698061887419513  0.520104003626436  0.5055832142335743  1.0000
  H   H16       1.0  0.8301916177607821  0.479896610240381  0.49441737928350443  1.0000
  C   C1        1.0  0.9051845313833694  0.8907774135607982  0.6245514064935447  1.0000
  C   C2        1.0  0.0948191235797111  0.10922193631108715  0.37544457080398513  1.0000
  C   C3        1.0  0.04327413439174418  0.14508910596436664  0.5342936215757985  1.0000
  C   C4        1.0  0.9567280639398276  0.8549102835132915  0.46570681685379595  1.0000
  C   C5        1.0  0.12720228894801267  0.9791319376669635  0.7251129705946222  1.0000
  C   C6        1.0  0.8727956251902497  0.020867487744375496  0.27488671282672056  1.0000
  C   C7        1.0  0.3503009492154164  0.06187698181879139  0.7998628865363099  1.0000
  C   C8        1.0  0.64969811089081  0.9381259575126891  0.20013304626808542  1.0000
  C   C9        1.0  0.33853689491267136  0.927791009731152  0.8966835770438802  1.0000
  C   C10       1.0  0.6614635850959657  0.0722119255161218  0.10331395394464948  1.0000
  C   C11       1.0  0.10288307474966266  0.8474844295356619  0.8323268134738124  1.0000
  C   C12       1.0  0.8971131980936135  0.15251738279111043  0.16767410184089462  1.0000
  C   C13       1.0  0.469640801477581  0.5302333894314589  0.3671877073884031  1.0000
  C   C14       1.0  0.5303588432266367  0.46976247836974494  0.63281286370195  1.0000
  C   C15       1.0  0.6570020574887963  0.5180841652741323  0.3654243927238026  1.0000
  C   C16       1.0  0.3429987979683133  0.4819140694335645  0.6345785868561006  1.0000
  C   C17       1.0  0.3159677706386007  0.5122528646155687  0.5017473728620911  1.0000
  C   C18       1.0  0.6840332046970587  0.4877441697961232  0.4982526768500221  1.0000
  C   C19       1.0  0.4194206941997293  0.5585403291291797  0.2332644286573639  1.0000
  C   C20       1.0  0.5805774229665487  0.44145673121171586  0.7667354543445907  1.0000
  C   C21       1.0  0.8294505489342325  0.5408939778036911  0.22650761652717225  1.0000
  C   C22       1.0  0.1705489881344633  0.4591030784529977  0.7734938646589026  1.0000
  N   N1        1.0  0.034509636861436405  4.7524202017297673e-05  0.6304390249233617  1.0000
  N   N2        1.0  0.9654911476892352  0.9999518634395914  0.369558805436071  1.0000
  N   N3        1.0  0.24766614481862345  0.08808488223354521  0.7152511170259853  1.0000
  N   N4        1.0  0.7523274728832874  0.9119145909519946  0.2847498311591748  1.0000
  N   N5        1.0  0.21113499769523963  0.8233996619369252  0.9123962328932148  1.0000
  N   N6        1.0  0.7888670930008101  0.17660091599621813  0.08760511563211541  1.0000
  O   O1        1.0  0.343475687211118  0.6928742050060562  0.2069493898836327  1.0000
  O   O2        1.0  0.6565237361005386  0.30712404562637374  0.793054011284212  1.0000
  O   O3        1.0  0.438064361018469  0.43984865988143446  0.15872844623269333  1.0000
  O   O4        1.0  0.5619351821717443  0.5601483904549839  0.8412720250673541  1.0000
  O   O5        1.0  0.9927355473703441  0.5120707288979959  0.23749622687685698  1.0000
  O   O6        1.0  0.0072636851563245815  0.48792987496435103  0.7625049549383145  1.0000
  O   O7        1.0  0.8067447060422878  0.5881337909753699  0.10674295343431327  1.0000
  O   O8        1.0  0.19325595250830924  0.41186680288250715  0.893258816678951  1.0000
