data_image0
_chemical_formula_structural       Dy2H62C54O28
_chemical_formula_sum              "Dy2 H62 C54 O28"
_cell_length_a       9.165223595679894
_cell_length_b       12.615760757325493
_cell_length_c       13.2014
_cell_angle_alpha    92.86625664789503
_cell_angle_beta     94.51522459825178
_cell_angle_gamma    92.31421268120664

_space_group_name_H-M_alt    "P 1"
_space_group_IT_number       1

loop_
  _space_group_symop_operation_xyz
  'x, y, z'

loop_
  _atom_site_type_symbol
  _atom_site_label
  _atom_site_symmetry_multiplicity
  _atom_site_fract_x
  _atom_site_fract_y
  _atom_site_fract_z
  _atom_site_occupancy
  Dy  Dy1       1.0  0.7470735600855177  0.49114553843131153  0.49035624531654776  1.0000
  Dy  Dy2       1.0  0.2529157443288312  0.508850417156637  0.5096491125606235  1.0000
  H   H1        1.0  0.6478869348581711  0.2842599868288005  0.4317027110056983  1.0000
  H   H2        1.0  0.3521158933947177  0.7157423242751548  0.5682961147707175  1.0000
  H   H3        1.0  0.49609354664528377  0.3390675735819926  0.405859454657474  1.0000
  H   H4        1.0  0.5039037604561116  0.6609339430824619  0.5941420613784344  1.0000
  H   H5        1.0  0.806366361763139  0.4691514808386188  0.28776229413717397  1.0000
  H   H6        1.0  0.19362369578512778  0.5308389136728167  0.7122367791951303  1.0000
  H   H7        1.0  0.965794047925506  0.4380285189368252  0.3322103741993772  1.0000
  H   H8        1.0  0.0342042073633522  0.5619706144091268  0.6677895647786015  1.0000
  H   H9        1.0  0.2300632185655758  0.5932469031346628  0.2722282883631877  1.0000
  H   H10       1.0  0.769934381116137  0.4067593801667968  0.7277749864351931  1.0000
  H   H11       1.0  0.555136240987089  0.7998544009117269  0.062143417752061184  1.0000
  H   H12       1.0  0.4448585628956181  0.2001598267847484  0.9378714463074828  1.0000
  H   H13       1.0  0.6607632094105824  0.7069200736135386  0.21126130317561118  1.0000
  H   H14       1.0  0.339233344556895  0.2930870041274218  0.7887502848822479  1.0000
  H   H15       1.0  0.0321813818676091  0.5399813234534463  0.16986045003766748  1.0000
  H   H16       1.0  0.9678169221846316  0.46001860433200653  0.8301516494955905  1.0000
  H   H17       1.0  0.8893145573220237  0.6228350079200027  0.12331003730051288  1.0000
  H   H18       1.0  0.11068111890450888  0.37715776990993544  0.8767053644149456  1.0000
  H   H19       1.0  0.99184757901579  0.6574654202199142  0.2428243660648945  1.0000
  H   H20       1.0  0.008143719300257101  0.3425273576100238  0.7571960988436286  1.0000
  H   H21       1.0  0.40678366612569755  0.9226119870876346  0.9824360823824918  1.0000
  H   H22       1.0  0.5932135922123081  0.077388735137319  0.017563878033975303  1.0000
  H   H23       1.0  0.2794542019650875  0.8802079842677912  0.8770297150774766  1.0000
  H   H24       1.0  0.7205403797838201  0.1197847935621468  0.12297577937884087  1.0000
  H   H25       1.0  0.4366346705665336  0.803736826754438  0.9060219163948915  1.0000
  H   H26       1.0  0.5633621489010069  0.19625674551500086  0.0939852533182943  1.0000
  H   H27       1.0  0.6249247411497761  0.8155493476988411  0.6885394919406808  1.0000
  H   H28       1.0  0.37509547953514033  0.1844688521951383  0.3114519537435569  1.0000
  H   H29       1.0  0.9707416273473227  0.7525391730950235  0.98667415906322  1.0000
  H   H30       1.0  0.029246046192163498  0.24744804365840173  0.0133367520439123  1.0000
  H   H31       1.0  0.9467096396309458  0.625217531984319  0.8381694372515582  1.0000
  H   H32       1.0  0.05328693601966711  0.37477206808761576  0.1618367718231895  1.0000
  H   H33       1.0  0.6092213839537521  0.9962334901099226  0.6894146943038848  1.0000
  H   H34       1.0  0.3908159853462648  0.0037966263765767  0.3105820455672443  1.0000
  H   H35       1.0  0.498668601665507  0.0661076942192693  0.7743530816551498  1.0000
  H   H36       1.0  0.5013775722188711  0.9339232167067311  0.2256434198988799  1.0000
  H   H37       1.0  0.45574672809078703  0.9287363212029334  0.7378545606716287  1.0000
  H   H38       1.0  0.5442768518706345  0.0713009452390807  0.262137222241158  1.0000
  H   H39       1.0  0.8752924705869771  0.8383632668568382  0.1264444255477031  1.0000
  H   H40       1.0  0.12469194659989569  0.1616422220051206  0.8735633932654139  1.0000
  H   H41       1.0  0.8945017588991391  0.979906963919305  0.1448600861242539  1.0000
  H   H42       1.0  0.10548241447080639  0.0200945527451495  0.8551482870412528  1.0000
  H   H43       1.0  0.02243669921740119  0.9094648077810987  0.0734719537010093  1.0000
  H   H44       1.0  0.9775607054107667  0.0905382977623574  0.9265500959683735  1.0000
  H   H45       1.0  0.7581223528505274  0.7520839592607942  0.4586387334621732  1.0000
  H   H46       1.0  0.2418724727153148  0.2479127907666481  0.5413722666050944  1.0000
  H   H47       1.0  0.097792153963745  0.020425834017181906  0.3278330241370213  1.0000
  H   H48       1.0  0.9022051748207784  0.979558204978247  0.6721312981082547  1.0000
  H   H49       1.0  0.1854474062688851  0.8430139156972772  0.37231946699616  1.0000
  H   H50       1.0  0.8145550535600419  0.1569645622216385  0.6276554748782885  1.0000
  H   H51       1.0  0.5163108385396383  0.8013002808040426  0.3993651298120112  1.0000
  H   H52       1.0  0.4836810937004188  0.1987028247394136  0.6006369258829523  1.0000
  H   H53       1.0  0.4437913165994586  0.9086338240627684  0.4722866872278075  1.0000
  H   H54       1.0  0.5562154777736977  0.09137960919420611  0.527701524373981  1.0000
  H   H55       1.0  0.5882563711648316  0.8331827268690476  0.5277979728340796  1.0000
  H   H56       1.0  0.4117446582398969  0.16682593975091464  0.4722040883154222  1.0000
  H   H57       1.0  0.0118309096269371  0.18024640624588534  0.3717722634185918  1.0000
  H   H58       1.0  0.9881576633366222  0.8197376327495364  0.6282226375890756  1.0000
  H   H59       1.0  0.8550076541378786  0.23398785518836726  0.3062227080541788  1.0000
  H   H60       1.0  0.14498140645953578  0.76600412820207  0.6937672967716252  1.0000
  H   H61       1.0  0.9597845135092982  0.1375635551610941  0.24209540618321057  1.0000
  H   H62       1.0  0.040211525744062705  0.8624173060763242  0.7579012660318654  1.0000
  C   C1        1.0  0.514246838502082  0.589061795841971  0.3393495672761873  1.0000
  C   C2        1.0  0.485745142501365  0.410942104140986  0.6606593465061366  1.0000
  C   C3        1.0  0.45174738746298704  0.644241974721254  0.2502586764671477  1.0000
  C   C4        1.0  0.5482442305136317  0.35577384185422295  0.7497530594118017  1.0000
  C   C5        1.0  0.2993523539262171  0.6386435595557955  0.22538871791783774  1.0000
  C   C6        1.0  0.7006443950947981  0.3613666959431683  0.7746139427094363  1.0000
  C   C7        1.0  0.2397658043686022  0.6879297917751543  0.1411407635362352  1.0000
  C   C8        1.0  0.7602241339697642  0.3120764915263052  0.8588658800082314  1.0000
  C   C9        1.0  0.33229794652674366  0.7470138463636858  0.08093784009443539  1.0000
  C   C10       1.0  0.667693741896386  0.2529852869822662  0.9190587099895849  1.0000
  C   C11       1.0  0.4835308716986545  0.7537927986280337  0.10710510435026069  1.0000
  C   C12       1.0  0.5164632982600351  0.24621110135492333  0.8928993840969921  1.0000
  C   C13       1.0  0.5430471812437361  0.7017752834033075  0.19066042732868738  1.0000
  C   C14       1.0  0.45695637845993525  0.2982389442931677  0.8093480978218254  1.0000
  C   C15       1.0  0.9972523199830121  0.622127956763876  0.1653914480994203  1.0000
  C   C16       1.0  0.0027384202526548  0.3778735599005785  0.8346286464096335  1.0000
  C   C17       1.0  0.3539456921449045  0.8533408347743006  0.9384207975342918  1.0000
  C   C18       1.0  0.6460435147426721  0.1466535319346391  0.06158978155359309  1.0000
  C   C19       1.0  0.771996831904353  0.6367678878932993  0.6637468161473663  1.0000
  C   C20       1.0  0.2280026153888954  0.36323283433165443  0.3362540214019489  1.0000
  C   C21       1.0  0.7832721884803959  0.7113554293491333  0.7540227588848865  1.0000
  C   C22       1.0  0.216726115571845  0.2886444984363195  0.24598555317128054  1.0000
  C   C23       1.0  0.6995874112702082  0.8027223275113189  0.7544596923514034  1.0000
  C   C24       1.0  0.3004266543392048  0.1972847502296489  0.2455392178883784  1.0000
  C   C25       1.0  0.7116324793296157  0.8753889142530795  0.8377517950491651  1.0000
  C   C26       1.0  0.2883818788601076  0.1246229301248931  0.1622473589622473  1.0000
  C   C27       1.0  0.8084002256142638  0.8561769837938371  0.9240434267470333  1.0000
  C   C28       1.0  0.1916159801870023  0.1438292995076225  0.07595480500615541  1.0000
  C   C29       1.0  0.8922900215204521  0.7661709604973339  0.9229025096796803  1.0000
  C   C30       1.0  0.10771013014333157  0.23382340621160586  0.077101850136593  1.0000
  C   C31       1.0  0.8794223500845959  0.6943496573849259  0.8385354996411039  1.0000
  C   C32       1.0  0.1205668568029807  0.3056447093240138  0.16146674699719196  1.0000
  C   C33       1.0  0.5445991596030026  0.9895665538152587  0.7558400549014124  1.0000
  C   C34       1.0  0.45543244472860067  0.010458796034235704  0.24415159713201004  1.0000
  C   C35       1.0  0.9076261350473516  0.9123001623611345  0.09171950434522097  1.0000
  C   C36       1.0  0.0923558006039613  0.0877005598638192  0.9082826485909192  1.0000
  C   C37       1.0  0.02878552909205471  0.682847762285519  0.44900787541089215  1.0000
  C   C38       1.0  0.9712297014414943  0.3171426322259094  0.5509903012655926  1.0000
  C   C39       1.0  0.9767638886329664  0.7873880562577825  0.4183328883097417  1.0000
  C   C40       1.0  0.0232448725616337  0.2126039271326547  0.5816650107116743  1.0000
  C   C41       1.0  0.8303468686734732  0.8119235258150397  0.4298312827532911  1.0000
  C   C42       1.0  0.1696711359759533  0.18807640197041314  0.5701743185626498  1.0000
  C   C43       1.0  0.7811590730592427  0.9114771230378198  0.4079997392689449  1.0000
  C   C44       1.0  0.2188480084971047  0.0885053270786074  0.591979432500473  1.0000
  C   C45       1.0  0.8781087442058889  0.9879498694301674  0.3701184612750125  1.0000
  C   C46       1.0  0.1218901396098602  0.012023841851736  0.6298386349770624  1.0000
  C   C47       1.0  0.022846484950505903  0.9622338627740277  0.3568066699156276  1.0000
  C   C48       1.0  0.9771346921697696  0.0377366707498794  0.6431387017867536  1.0000
  C   C49       1.0  0.0724648273624524  0.8628653699550385  0.38164906241296137  1.0000
  C   C50       1.0  0.9275371719128742  0.1371234356773883  0.6183339227688194  1.0000
  C   C51       1.0  0.5426004180723824  0.8664403477107641  0.45730307709193607  1.0000
  C   C52       1.0  0.4574036021848968  0.133563552272193  0.5426905872924905  1.0000
  C   C53       1.0  0.9184337253001685  0.1629315973156835  0.31509583294825916  1.0000
  C   C54       1.0  0.08155543282401818  0.8370619749537553  0.6848972831164202  1.0000
  O   O1        1.0  0.6525115755787638  0.5759281220069568  0.3478801652444545  1.0000
  O   O2        1.0  0.34748935629919236  0.4240789557340037  0.6521210571524206  1.0000
  O   O3        1.0  0.43164261119565583  0.5567582968412879  0.4058311944038877  1.0000
  O   O4        1.0  0.5683554002762746  0.4432368643071598  0.5941715714127298  1.0000
  O   O5        1.0  0.9370347052508449  0.609298553257844  0.4678349921494913  1.0000
  O   O6        1.0  0.0629806228094694  0.39069343013258623  0.532172355729216  1.0000
  O   O7        1.0  0.1669873391499834  0.6696695998384357  0.4566564859503046  1.0000
  O   O8        1.0  0.833010526031792  0.3303231779915023  0.543341613007982  1.0000
  O   O9        1.0  0.0938509824114959  0.683647762863302  0.1090970250344085  1.0000
  O   O10       1.0  0.9061342854360673  0.3163537538011525  0.8909182254085621  1.0000
  O   O11       1.0  0.2637675501617522  0.792630562526668  0.0003419151911288003  1.0000
  O   O12       1.0  0.7362121965343248  0.2073701596982787  0.9996646630800824  1.0000
  O   O13       1.0  0.6431099259238096  0.9437965108285269  0.4221711897484752  1.0000
  O   O14       1.0  0.356892414695217  0.0561978558804128  0.5778211697785522  1.0000
  O   O15       1.0  0.8205645921099958  0.08289102312312481  0.3492514326017043  1.0000
  O   O16       1.0  0.179428407527439  0.9170938103118047  0.6507323858781646  1.0000
  O   O17       1.0  0.6816985344081771  0.6518963993160014  0.5866535906311084  1.0000
  O   O18       1.0  0.318302056126079  0.3481051173484531  0.41334431738386  1.0000
  O   O19       1.0  0.8527037948571703  0.5558184749112841  0.6601316809912277  1.0000
  O   O20       1.0  0.147287796039187  0.4441790695556662  0.33986554533100116  1.0000
  O   O21       1.0  0.6365640316814023  0.9662306879049183  0.844172609483408  1.0000
  O   O22       1.0  0.3634661855922587  0.0337898953075637  0.1558255564184137  1.0000
  O   O23       1.0  0.8119788585931076  0.929688854164958  0.0030370851773966192  1.0000
  O   O24       1.0  0.18802421347670864  0.0703174291365016  0.9969627012374644  1.0000
  O   O25       1.0  0.6037777719907211  0.3437873386590412  0.3982931434846647  1.0000
  O   O26       1.0  0.3962188307401391  0.6562205335214202  0.6017207576880494  1.0000
  O   O27       1.0  0.8582190797363011  0.42576316747670273  0.3367291838551125  1.0000
  O   O28       1.0  0.14177450506175399  0.5742311992322442  0.6632733020580375  1.0000
