data_image0
_chemical_formula_structural       Cu4H28C8N44
_chemical_formula_sum              "Cu4 H28 C8 N44"
_cell_length_a       7.331984698274657
_cell_length_b       9.406995972179464
_cell_length_c       12.524795343012366
_cell_angle_alpha    89.99984211774974
_cell_angle_beta     90.00006297615558
_cell_angle_gamma    90.8624851082432

_space_group_name_H-M_alt    "P 1"
_space_group_IT_number       1

loop_
  _space_group_symop_operation_xyz
  'x, y, z'

loop_
  _atom_site_type_symbol
  _atom_site_label
  _atom_site_symmetry_multiplicity
  _atom_site_fract_x
  _atom_site_fract_y
  _atom_site_fract_z
  _atom_site_occupancy
  Cu  Cu1       1.0  0.0999882583572216  0.7841487834287193  0.09704663810985893  1.0000
  Cu  Cu2       1.0  0.8999883359824851  0.7157874464661449  0.5969776508522033  1.0000
  Cu  Cu3       1.0  0.9000064207624945  0.2157949478899752  0.9030007786948888  1.0000
  Cu  Cu4       1.0  0.09995600376977623  0.284133959025617  0.4029228573762255  1.0000
  H   H1        1.0  0.3412437553465679  0.8048841023462431  0.24792818605011047  1.0000
  H   H2        1.0  0.6588699498558342  0.6951827504125988  0.7479038287146055  1.0000
  H   H3        1.0  0.6588112674697301  0.19509025198547655  0.752149570553293  1.0000
  H   H4        1.0  0.34129040487216145  0.3049712846693212  0.25212522432392603  1.0000
  H   H5        1.0  0.6118951178959123  0.06533899315206071  0.07498494670463172  1.0000
  H   H6        1.0  0.3880898979156838  0.4346926475372614  0.5749096065467827  1.0000
  H   H7        1.0  0.3881013676781961  0.9346876917010435  0.9250480985149497  1.0000
  H   H8        1.0  0.6119142149596116  0.5653487696856347  0.42496774749151467  1.0000
  H   H9        1.0  0.38863211456867225  0.9213774925428666  0.15390976482115806  1.0000
  H   H10       1.0  0.6114356295967126  0.5786512880172624  0.6539255653564525  1.0000
  H   H11       1.0  0.6114752177504317  0.07860531340401879  0.8461975331874715  1.0000
  H   H12       1.0  0.3885619336384707  0.4214200616783401  0.3462152660055084  1.0000
  H   H13       1.0  0.450984872683506  0.7541877132227414  0.13907858940999776  1.0000
  H   H14       1.0  0.5490868118711275  0.7458389032710216  0.6390724233975718  1.0000
  H   H15       1.0  0.5491041885684069  0.24576037332006007  0.8610231197191782  1.0000
  H   H16       1.0  0.45097393678350534  0.254265136504401  0.3610133172238222  1.0000
  H   H17       1.0  0.3273059734113701  0.6593937065969089  0.9622937113206976  1.0000
  H   H18       1.0  0.6726393093059999  0.8405781754700214  0.4622526938775665  1.0000
  H   H19       1.0  0.6726497971021603  0.3405870372239337  0.037737737107299614  1.0000
  H   H20       1.0  0.32729749808035546  0.15940510409265582  0.5377013081673071  1.0000
  H   H21       1.0  0.11235205582968184  0.6360095355830568  0.9259689353982596  1.0000
  H   H22       1.0  0.8876164593209168  0.8639396220519657  0.42593276985198275  1.0000
  H   H23       1.0  0.8876281289366761  0.3639685554618383  0.07405692412551453  1.0000
  H   H24       1.0  0.1123444982395654  0.13601121826283702  0.5740316116469091  1.0000
  H   H25       1.0  0.19642428049527894  0.5377827705061123  0.02338825228918041  1.0000
  H   H26       1.0  0.8035540100857902  0.9621377041348113  0.5233905169444528  1.0000
  H   H27       1.0  0.8035486518137702  0.4621624923425571  0.9766072674525008  1.0000
  H   H28       1.0  0.19642442631089813  0.037758496160300616  0.4766321490060507  1.0000
  C   C1        1.0  0.7290253036825832  0.8807524158947614  0.019554012815554207  1.0000
  C   C2        1.0  0.2709114341825369  0.6192317408620484  0.519476126729707  1.0000
  C   C3        1.0  0.27090897892232857  0.11920963770748472  0.9804870166226468  1.0000
  C   C4        1.0  0.7290563742690638  0.38079449660924775  0.48042438138698895  1.0000
  C   C5        1.0  0.8580676744522647  0.032989832807395224  0.15484423749893494  1.0000
  C   C6        1.0  0.14188387032616842  0.46697523336139574  0.654759911482124  1.0000
  C   C7        1.0  0.14184981612105224  0.966939597570168  0.8452143571287964  1.0000
  C   C8        1.0  0.8581234594410533  0.5330501545977455  0.3451493792246439  1.0000
  N   N1        1.0  0.1087643601879762  0.032252526666098916  0.24452933743011585  1.0000
  N   N2        1.0  0.8912490199826878  0.4676917643139619  0.7444869247998798  1.0000
  N   N3        1.0  0.891287878812186  0.9677208236593916  0.7554502139762038  1.0000
  N   N4        1.0  0.10871874625857461  0.5322089215646457  0.25540480087943973  1.0000
  N   N5        1.0  0.7251918823703889  0.9993020214070613  0.08178723062100351  1.0000
  N   N6        1.0  0.27472251318975077  0.5006451715286603  0.5816864593187037  1.0000
  N   N7        1.0  0.27469394153985865  0.0005972334772650002  0.9182905260220341  1.0000
  N   N8        1.0  0.7252567470373706  0.4993659237412019  0.41820686307190885  1.0000
  N   N9        1.0  0.8624187585211021  0.7838920892738701  0.017620393040978406  1.0000
  N   N10       1.0  0.137526500673026  0.7160982746360177  0.5175709612193772  1.0000
  N   N11       1.0  0.1374645722157197  0.2160114751877488  0.9824757271700623  1.0000
  N   N12       1.0  0.8624758163698801  0.28396020507691605  0.48241657424030404  1.0000
  N   N13       1.0  0.016998991552426918  0.9638425391591315  0.16558885125255782  1.0000
  N   N14       1.0  0.982912387928593  0.5360459237604474  0.665474004285038  1.0000
  N   N15       1.0  0.9829685476797537  0.03610390356399762  0.8344386051359581  1.0000
  N   N16       1.0  0.01692511956862571  0.46376818578726664  0.33431632259472377  1.0000
  N   N17       1.0  0.6485126711234129  0.7183120644228467  0.9078960349554851  1.0000
  N   N18       1.0  0.35147075386285553  0.7817857924762921  0.4079156592672463  1.0000
  N   N19       1.0  0.351537787615392  0.2818283729905248  0.09199968255718723  1.0000
  N   N20       1.0  0.648459857476844  0.2182838046293227  0.5920335521814126  1.0000
  N   N21       1.0  0.5944614548447621  0.8432100652413655  0.9514351144673301  1.0000
  N   N22       1.0  0.4055216831235029  0.6568557350778975  0.45141512773935955  1.0000
  N   N23       1.0  0.4055993834101984  0.1569205729996881  0.048478168216398415  1.0000
  N   N24       1.0  0.5944160855371265  0.34317008409499294  0.548478993039929  1.0000
  N   N25       1.0  0.8066966604856561  0.6828544998661813  0.9470001489645202  1.0000
  N   N26       1.0  0.19325657084365133  0.8171885496900303  0.4470012460759138  1.0000
  N   N27       1.0  0.19323585780075092  0.3171501519097576  0.05299457228338162  1.0000
  N   N28       1.0  0.8067097058542603  0.18288453674323085  0.5529934751039323  1.0000
  N   N29       1.0  0.3494593289623324  0.817797026903506  0.1661487935213232  1.0000
  N   N30       1.0  0.6506291739734706  0.6822365874231054  0.6661300498328873  1.0000
  N   N31       1.0  0.6506327219636391  0.18218078754377132  0.833925769423047  1.0000
  N   N32       1.0  0.3494493756003648  0.31784366171389433  0.3339053905968968  1.0000
  N   N33       1.0  0.8468879764583406  0.14160099608365337  0.22360052521715099  1.0000
  N   N34       1.0  0.15318301389994823  0.35844958953277484  0.7236058721036047  1.0000
  N   N35       1.0  0.1530851566406426  0.8583229822742666  0.7764484884365931  1.0000
  N   N36       1.0  0.8470303528716415  0.641775658261736  0.2764886510005057  1.0000
  N   N37       1.0  0.006895563025402401  0.1363258463848922  0.27759799712841027  1.0000
  N   N38       1.0  0.9932131205687328  0.36371311199120987  0.7776253348598846  1.0000
  N   N39       1.0  0.9931616042736947  0.863637821944337  0.7223967241986601  1.0000
  N   N40       1.0  0.006978953731248799  0.6364221531467396  0.22244523585263926  1.0000
  N   N41       1.0  0.19856038348254407  0.6382496350119169  0.9903644191279712  1.0000
  N   N42       1.0  0.8013919160526441  0.8616996601477782  0.4903234224039822  1.0000
  N   N43       1.0  0.801402866611177  0.3617181799841731  0.009667827732791104  1.0000
  N   N44       1.0  0.19855199061526463  0.13823877862722614  0.5096353701906581  1.0000
