data_image0
_chemical_formula_structural       Ni3H40C54N12O14
_chemical_formula_sum              "Ni3 H40 C54 N12 O14"
_cell_length_a       9.995544969222754
_cell_length_b       12.372169959510794
_cell_length_c       13.427937116000965
_cell_angle_alpha    85.70766075288766
_cell_angle_beta     67.44759937046264
_cell_angle_gamma    73.60602322414542

_space_group_name_H-M_alt    "P 1"
_space_group_IT_number       1

loop_
  _space_group_symop_operation_xyz
  'x, y, z'

loop_
  _atom_site_type_symbol
  _atom_site_label
  _atom_site_symmetry_multiplicity
  _atom_site_fract_x
  _atom_site_fract_y
  _atom_site_fract_z
  _atom_site_occupancy
  Ni  Ni1       1.0  0.6160590289577712  0.078616136117553  0.5784647929331046  1.0000
  Ni  Ni2       1.0  0.3839458946902713  0.9213868872013221  0.42153793261469735  1.0000
  Ni  Ni3       1.0  0.9999903583490023  0.4999955936395752  5.956367594762416e-06  1.0000
  H   H1        1.0  0.9350135317378803  0.8815815687174934  0.5452376071898897  1.0000
  H   H2        1.0  0.06500078274108033  0.118419853301198  0.4547605249587008  1.0000
  H   H3        1.0  0.48142536690835425  0.8751900616013373  0.7040196618099233  1.0000
  H   H4        1.0  0.5185893950686663  0.12481387725077299  0.29597148807227575  1.0000
  H   H5        1.0  0.669119335784586  0.6612315016875813  0.7067396991847944  1.0000
  H   H6        1.0  0.33090382645852406  0.33876662932453183  0.29325632375260113  1.0000
  H   H7        1.0  0.05314998473353694  0.6922368329221129  0.4242021423143215  1.0000
  H   H8        1.0  0.9468531107382321  0.30776104870663096  0.5757909537795102  1.0000
  H   H9        1.0  0.9220331820513793  0.5923866488157898  0.7547336116950164  1.0000
  H   H10       1.0  0.0779784945796393  0.40762152013388697  0.24526553099886436  1.0000
  H   H11       1.0  0.3154403503264049  0.2802153510579259  0.6410791061212465  1.0000
  H   H12       1.0  0.6845707822287043  0.7197775684171006  0.35891964997402687  1.0000
  H   H13       1.0  0.7329286587283619  0.2552386520071082  0.38728118005183637  1.0000
  H   H14       1.0  0.2670781043803743  0.7447686053499968  0.6127163259997561  1.0000
  H   H15       1.0  0.5296165810253586  0.45388042546966284  0.36832828635562015  1.0000
  H   H16       1.0  0.47038801324662693  0.5461157975875751  0.6316689928109797  1.0000
  H   H17       1.0  0.29150230184056625  0.5401475346818643  0.3750819771325809  1.0000
  H   H18       1.0  0.708486978421398  0.45984763436492687  0.624908945985567  1.0000
  H   H19       1.0  0.15575345811834748  0.4422802254120342  0.7085708462145279  1.0000
  H   H20       1.0  0.844261410696255  0.55772033766376  0.2914227239702357  1.0000
  H   H21       1.0  0.323504016266135  0.3103384976560406  0.977976115862383  1.0000
  H   H22       1.0  0.6764862736371383  0.6896567741114056  0.02203689123548716  1.0000
  H   H23       1.0  0.8741350903571645  0.3093987981891928  0.16009217818224633  1.0000
  H   H24       1.0  0.12585756979550683  0.6905913862039483  0.8399123322206067  1.0000
  H   H25       1.0  0.06476194227344931  0.09438586107438598  0.15863452059208072  1.0000
  H   H26       1.0  0.935240597853522  0.9055993197290207  0.8413602666789616  1.0000
  H   H27       1.0  0.44365058011540986  0.12787623814912755  0.8604753476683272  1.0000
  H   H28       1.0  0.55633602405252  0.8721240394825643  0.1395301121729844  1.0000
  H   H29       1.0  0.3214649395181511  0.0246383286252652  0.19159401644733262  1.0000
  H   H30       1.0  0.6785143539164128  0.97536357879018  0.8084169806744157  1.0000
  H   H31       1.0  0.07851855067387702  0.0203460858582218  0.5981372458436738  1.0000
  H   H32       1.0  0.9214653695769003  0.979659214530827  0.4018618936852081  1.0000
  H   H33       1.0  0.7204707775427294  0.2860103220975603  0.8099864324561992  1.0000
  H   H34       1.0  0.27952147778187725  0.7139866271048305  0.19001701235909965  1.0000
  H   H35       1.0  0.17379527003241446  0.22397477535076862  0.7943505139411472  1.0000
  H   H36       1.0  0.8262018841463432  0.776033191562547  0.20564126658059226  1.0000
  H   H37       1.0  0.7511686489110901  0.4610953398030091  0.045932559227452444  1.0000
  H   H38       1.0  0.24881092340643113  0.5389040004038608  0.9540710750938504  1.0000
  H   H39       1.0  0.7097701506636798  0.5661846803021078  0.13033747939704907  1.0000
  H   H40       1.0  0.290216013860345  0.4338164483185096  0.8696702773975248  1.0000
  C   C1        1.0  0.8346389719312273  0.8531625705656654  0.5873770851756605  1.0000
  C   C2        1.0  0.16536554688875074  0.14684721756245986  0.41262457478458714  1.0000
  C   C3        1.0  0.6030377492405354  0.84509306030197  0.672493129392393  1.0000
  C   C4        1.0  0.396971051311276  0.154906584893439  0.3275005972200305  1.0000
  C   C5        1.0  0.6938160937304617  0.7392766407462618  0.6745106732429349  1.0000
  C   C6        1.0  0.30619316215804565  0.2607272481075  0.32548415696432187  1.0000
  C   C7        1.0  0.9741687562762568  0.6536678507564632  0.5924559094276206  1.0000
  C   C8        1.0  0.025849374338093943  0.34633529308869976  0.4075381343407401  1.0000
  C   C9        1.0  0.0780614936714842  0.637824694256345  0.4859628844071865  1.0000
  C   C10       1.0  0.9219464692378241  0.36217073379394543  0.514037288645568  1.0000
  C   C11       1.0  0.001797509836400566  0.5809727977467674  0.6713141806932015  1.0000
  C   C12       1.0  0.9982149887288049  0.4190328527033316  0.32868788618658595  1.0000
  C   C13       1.0  0.40249497647509014  0.30090793471916305  0.5711816465055435  1.0000
  C   C14       1.0  0.5975075759299247  0.6990882572031796  0.42881393377629706  1.0000
  C   C15       1.0  0.6150595214193475  0.29034362860873847  0.43715732594128554  1.0000
  C   C16       1.0  0.38495260612447185  0.7096611407026998  0.5628374420235078  1.0000
  C   C17       1.0  0.5152446185005604  0.3882214862843226  0.42625511075628714  1.0000
  C   C18       1.0  0.4847612643112101  0.6117739132823915  0.5737441184152346  1.0000
  C   C19       1.0  0.2418924191412303  0.4809655168300608  0.5381495047860768  1.0000
  C   C20       1.0  0.7581160294967263  0.5190324254023224  0.4618429309967669  1.0000
  C   C21       1.0  0.21185050400966082  0.5517808646063571  0.4586100708562456  1.0000
  C   C22       1.0  0.7881458845483567  0.4482135955651998  0.5413939389492199  1.0000
  C   C23       1.0  0.13575297381910198  0.49516024942672493  0.6443353976716183  1.0000
  C   C24       1.0  0.8642668085177834  0.5048412252416412  0.3556598091554336  1.0000
  C   C25       1.0  0.22380671603599478  0.2835669137450978  0.02479178638731839  1.0000
  C   C26       1.0  0.7761828744789839  0.7164342363902921  0.975211346200972  1.0000
  C   C27       1.0  0.9954860029734577  0.27764420950421714  0.12198595087568981  1.0000
  C   C28       1.0  0.004507219353499315  0.7223468427709605  0.8780220834245684  1.0000
  C   C29       1.0  0.08784390091827281  0.17179157997720307  0.12257574386498504  1.0000
  C   C30       1.0  0.9121503423499322  0.8282003083641244  0.8774267542904682  1.0000
  C   C31       1.0  0.36780777729826764  0.08621199675029351  0.02979375501125499  1.0000
  C   C32       1.0  0.6321941060793607  0.9137850620689252  0.9702086522449708  1.0000
  C   C33       1.0  0.46849115474581293  0.07339232359635871  0.9222822873427888  1.0000
  C   C34       1.0  0.531502095567497  0.9266164754424437  0.07771716934203  1.0000
  C   C35       1.0  0.3982257115048073  0.013251264496801701  0.1074936556392885  1.0000
  C   C36       1.0  0.6017761414963871  0.9867491647960807  0.8925048213073341  1.0000
  C   C37       1.0  0.14322093007583453  0.11353507674477471  0.6929846686443923  1.0000
  C   C38       1.0  0.8567799784452821  0.886464511179305  0.3070178344399963  1.0000
  C   C39       1.0  0.03986931112624602  0.08825452045745412  0.6583007754102042  1.0000
  C   C40       1.0  0.9601338607911674  0.9117417148712406  0.3417035818509505  1.0000
  C   C41       1.0  0.8886117730477211  0.15197460515925343  0.6982189626539894  1.0000
  C   C42       1.0  0.11138884875180137  0.8480258231484611  0.3017828173695989  1.0000
  C   C43       1.0  0.838621690864244  0.23785920637045885  0.7771466004531932  1.0000
  C   C44       1.0  0.16136741393761167  0.7621410705802347  0.2228514982306536  1.0000
  C   C45       1.0  0.9420604636472377  0.26509346055077293  0.8104050800613012  1.0000
  C   C46       1.0  0.057934056098325484  0.734915336821878  0.18959031854303282  1.0000
  C   C47       1.0  0.09362381142445032  0.20272615958058546  0.7680875557615395  1.0000
  C   C48       1.0  0.9063628005976344  0.7972774858734508  0.23191321876664261  1.0000
  C   C49       1.0  0.3080603377156593  0.0520748997602922  0.6415943408027545  1.0000
  C   C50       1.0  0.6919346936800398  0.9479221160293817  0.35841731486605255  1.0000
  C   C51       1.0  0.7851273815140873  0.13298802443894436  0.6497289020241298  1.0000
  C   C52       1.0  0.21487646829402268  0.8670242715834605  0.3502668137361411  1.0000
  C   C53       1.0  0.8950741067428896  0.3622514835207085  0.8884756976478557  1.0000
  C   C54       1.0  0.10492562793017882  0.6377489199399164  0.11152259042104624  1.0000
  N   N1        1.0  0.6917736876186285  0.9153120461611124  0.6183950077812527  1.0000
  N   N2        1.0  0.30823093462419143  0.08470028266234658  0.3816064649442553  1.0000
  N   N3        1.0  0.840745105972694  0.7449126672115368  0.6192339423208112  1.0000
  N   N4        1.0  0.1592636416649001  0.2550954457561474  0.3807600095336313  1.0000
  N   N5        1.0  0.5429493963659056  0.23690562264255283  0.5274944099181271  1.0000
  N   N6        1.0  0.45706281105381685  0.7630932248945894  0.4725014555769391  1.0000
  N   N7        1.0  0.3795907329226155  0.39463106063550424  0.5124784637798498  1.0000
  N   N8        1.0  0.6204110279246395  0.6053642793127381  0.4875181226256944  1.0000
  N   N9        1.0  0.08167440833138784  0.3467140706429035  0.06075612000731922  1.0000
  N   N10       1.0  0.9183056800756904  0.6532827722749843  0.9392564785280302  1.0000
  N   N11       1.0  0.23290142085127735  0.17640968608056806  0.05967506581965413  1.0000
  N   N12       1.0  0.7670891366815766  0.8235872081250052  0.9403198850792408  1.0000
  O   O1        1.0  0.39687460146716097  0.08851841799715031  0.6695664601185811  1.0000
  O   O2        1.0  0.6031199947240469  0.9114887330754442  0.3304401996530688  1.0000
  O   O3        1.0  0.3485006855755516  0.9703983418528214  0.575859739937414  1.0000
  O   O4        1.0  0.6514985408466032  0.029606285721733606  0.42413766977867357  1.0000
  O   O5        1.0  0.8399830549006995  0.09755484458886343  0.5511614027860076  1.0000
  O   O6        1.0  0.1600342111094692  0.9024415361132014  0.4488377646503921  1.0000
  O   O7        1.0  0.6447313932335207  0.151089818026378  0.7062145396931498  1.0000
  O   O8        1.0  0.3552708994115933  0.8489097602775787  0.2937816403001961  1.0000
  O   O9        1.0  0.7583033576583272  0.3953393276605724  0.9527344260400387  1.0000
  O   O10       1.0  0.24169254518656666  0.6046542593263028  0.04726454986098361  1.0000
  O   O11       1.0  0.0013773402184896124  0.403717176524566  0.8832283976096491  1.0000
  O   O12       1.0  0.9986203604262514  0.5962849226261042  0.11677627743574004  1.0000
  O   O13       1.0  0.7781503970525705  0.4921219009506288  0.10384751464349046  1.0000
  O   O14       1.0  0.22182589434216032  0.5078740393138261  0.8961624091831625  1.0000
