data_image0
_chemical_formula_structural       Al2H16C30O10F2
_chemical_formula_sum              "Al2 H16 C30 O10 F2"
_cell_length_a       6.64271034213347
_cell_length_b       15.456877661984363
_cell_length_c       17.751817570959815
_cell_angle_alpha    87.51202496100684
_cell_angle_beta     79.67432469108826
_cell_angle_gamma    76.15711943721188

_space_group_name_H-M_alt    "P 1"
_space_group_IT_number       1

loop_
  _space_group_symop_operation_xyz
  'x, y, z'

loop_
  _atom_site_type_symbol
  _atom_site_label
  _atom_site_symmetry_multiplicity
  _atom_site_fract_x
  _atom_site_fract_y
  _atom_site_fract_z
  _atom_site_occupancy
  Al  Al1       1.0  0.4999852830797309  0.4999684499235855  0.5000067219502499  1.0000
  Al  Al2       1.0  0.9999751300358138  0.4999763842472261  0.4999857966419939  1.0000
  H   H1        1.0  0.28037059026591027  0.3985101772557869  0.549876180286667  1.0000
  H   H2        1.0  0.7195742283063353  0.6014399710661493  0.4501159255043561  1.0000
  H   H3        1.0  0.6745477614211095  0.5060553000218491  0.2710547221611678  1.0000
  H   H4        1.0  0.7499664472818636  0.5093411213007712  0.12748337602175044  1.0000
  H   H5        1.0  0.1345122726162414  0.46669011729714066  0.12237156481123183  1.0000
  H   H6        1.0  0.0615793317864329  0.4643061042239936  0.26597084707186275  1.0000
  H   H7        1.0  0.8655792471199246  0.5335827708769189  0.8775461030027429  1.0000
  H   H8        1.0  0.9383884907002481  0.5358372740754761  0.733947800531958  1.0000
  H   H9        1.0  0.3255177850383858  0.49391012050202227  0.729015587721385  1.0000
  H   H10       1.0  0.2501960586691325  0.4907553359577009  0.8725916938502681  1.0000
  H   H11       1.0  0.7299061730606766  0.9394880517880394  0.46687037817916643  1.0000
  H   H12       1.0  0.2700637175748497  0.06045792846349941  0.5331167871090587  1.0000
  H   H13       1.0  0.6035625131395931  0.2324748202725146  0.4603447613384051  1.0000
  H   H14       1.0  0.6743602160564136  0.06940852891537469  0.4617040157528579  1.0000
  H   H15       1.0  0.3964170624852981  0.767473943672819  0.5396635727833684  1.0000
  H   H16       1.0  0.3256076168929951  0.9305423285663393  0.5383084228926195  1.0000
  C   C1        1.0  0.8363429182478441  0.33909004451456337  0.49420098787040717  1.0000
  C   C2        1.0  0.6856559628204264  0.5093857526681943  0.638264086696424  1.0000
  C   C3        1.0  0.16362902029135998  0.6608467556559032  0.5058016611070643  1.0000
  C   C4        1.0  0.31430407240188857  0.49058227489003764  0.3617312172436372  1.0000
  C   C5        1.0  0.36303933419402057  0.48602479732991816  0.27649144751324434  1.0000
  C   C6        1.0  0.5584691689673701  0.49736679031692427  0.23753487620522412  1.0000
  C   C7        1.0  0.599852751515499  0.4992110896374625  0.1581131044096012  1.0000
  C   C8        1.0  0.44581509201817937  0.48968978825905646  0.11558537924625512  1.0000
  C   C9        1.0  0.2519989764811114  0.47546978163066467  0.15519357110019175  1.0000
  C   C10       1.0  0.21149749071906843  0.47392133431171146  0.23467390376380598  1.0000
  C   C11       1.0  0.48391881244894114  0.49615664012078037  0.03481117632066602  1.0000
  C   C12       1.0  0.5162775610010824  0.5040857731666293  0.9651850597737597  1.0000
  C   C13       1.0  0.5543171010174532  0.5105024797206497  0.8844091572262162  1.0000
  C   C14       1.0  0.7480985164096621  0.524731637659265  0.844760720265349  1.0000
  C   C15       1.0  0.7885327850768248  0.5262033330564719  0.7652727821660934  1.0000
  C   C16       1.0  0.6369782234070126  0.5140060196586945  0.7235037574605061  1.0000
  C   C17       1.0  0.441590456446505  0.5026615330071849  0.7625070816588393  1.0000
  C   C18       1.0  0.40029552728704926  0.5008878045663039  0.8419267931237473  1.0000
  C   C19       1.0  0.10718409034034682  0.7601897742366432  0.506048016456603  1.0000
  C   C20       1.0  0.8928092991474371  0.23974686946936435  0.49395032620056184  1.0000
  C   C21       1.0  0.9200266694766908  0.8126809409137862  0.4866054961696165  1.0000
  C   C22       1.0  0.8775335541416637  0.90494884019256  0.4840656724068354  1.0000
  C   C23       1.0  0.07996561704904792  0.1872611085980793  0.5134028187714963  1.0000
  C   C24       1.0  0.12244031950995546  0.09499590731742562  0.5159353546550423  1.0000
  C   C25       1.0  0.7503130316478558  0.19330650478697464  0.4754793257410129  1.0000
  C   C26       1.0  0.7912076672587957  0.10103801535510831  0.47698090210317207  1.0000
  C   C27       1.0  0.24966290638488417  0.8066376667031179  0.5245334137866848  1.0000
  C   C28       1.0  0.2087557588817148  0.8989155592367479  0.5230356643259386  1.0000
  C   C29       1.0  0.021947575505919144  0.9507005841671301  0.5018980654677352  1.0000
  C   C30       1.0  0.9780070695430111  0.04924898820345191  0.4981108447380295  1.0000
  O   O1        1.0  0.650257338304634  0.3769473857850513  0.4843710022966123  1.0000
  O   O2        1.0  0.8664402286300897  0.5188539072339893  0.6057982329058975  1.0000
  O   O3        1.0  0.02497373290494641  0.6209241369526667  0.4947561635678286  1.0000
  O   O4        1.0  0.4560033182327032  0.5061234821382214  0.39560179426579384  1.0000
  O   O5        1.0  0.34971864259462365  0.6229968094408564  0.515644549924609  1.0000
  O   O6        1.0  0.13352190173253567  0.48109465243256017  0.3941747097639381  1.0000
  O   O7        1.0  0.9750130739398838  0.37901573817026707  0.5052272814039827  1.0000
  O   O8        1.0  0.5439228780051902  0.4938309672294921  0.604415076670904  1.0000
  O   O9        1.0  0.25636105336148757  0.46012376131890426  0.5331652520344081  1.0000
  O   O10       1.0  0.7435791747171833  0.5398238454556579  0.4668374295663754  1.0000
  F   F1        1.0  0.7704370704632593  0.7749212265445137  0.46775655826696305  1.0000
  F   F2        1.0  0.229570706016041  0.22501392816911903  0.5322323978022541  1.0000
