data_image0
_chemical_formula_structural       Zn8H48C36N12O26
_chemical_formula_sum              "Zn8 H48 C36 N12 O26"
_cell_length_a       17.54405117065189
_cell_length_b       17.91882904011264
_cell_length_c       18.188871574271687
_cell_angle_alpha    62.43301326608325
_cell_angle_beta     61.92246357917314
_cell_angle_gamma    61.85842039437178

_space_group_name_H-M_alt    "P 1"
_space_group_IT_number       1

loop_
  _space_group_symop_operation_xyz
  'x, y, z'

loop_
  _atom_site_type_symbol
  _atom_site_label
  _atom_site_symmetry_multiplicity
  _atom_site_fract_x
  _atom_site_fract_y
  _atom_site_fract_z
  _atom_site_occupancy
  Zn  Zn1       1.0  0.12943744785952296  0.9351060908430356  0.9462408466119855  1.0000
  Zn  Zn2       1.0  0.9476781768391472  0.936687151468995  0.9445907564855106  1.0000
  Zn  Zn3       1.0  0.9569943195448473  0.11263928599281313  0.9436905003814073  1.0000
  Zn  Zn4       1.0  0.9516659082475555  0.9443645943908053  0.11707241896294107  1.0000
  Zn  Zn5       1.0  0.3611154871829285  0.5212792907999956  0.5287187567904184  1.0000
  Zn  Zn6       1.0  0.5305154715226124  0.5311728628725307  0.5401890690154685  1.0000
  Zn  Zn7       1.0  0.5382181019303899  0.5254465878232396  0.3611241914718945  1.0000
  Zn  Zn8       1.0  0.5385948418512071  0.35145171948136084  0.533041203188908  1.0000
  H   H1        1.0  0.22470337362168624  0.8403517479131327  0.7187315081572193  1.0000
  H   H2        1.0  0.08349861134507093  0.8097364831780854  0.7491584705892507  1.0000
  H   H3        1.0  0.16095063963922474  0.6998606726778365  0.6761182045510593  1.0000
  H   H4        1.0  0.23150666630660047  0.7682404465309534  0.6279285841384094  1.0000
  H   H5        1.0  0.24687393009717334  0.5912477156504751  0.7761060042774374  1.0000
  H   H6        1.0  0.37224934275329247  0.692833396085831  0.6962649006341621  1.0000
  H   H7        1.0  0.3092262790457525  0.7348412599205646  0.8224793589865982  1.0000
  H   H8        1.0  0.23656659081770934  0.6688859269641014  0.8733764979087937  1.0000
  H   H9        1.0  0.25114975923980143  0.15643094324456547  0.8359878739990448  1.0000
  H   H10       1.0  0.10533760805148516  0.2819848500831626  0.8130958840716785  1.0000
  H   H11       1.0  0.17834675899594296  0.3865653869805784  0.6957616738529282  1.0000
  H   H12       1.0  0.2551966246229681  0.3102116784220145  0.7576012623248118  1.0000
  H   H13       1.0  0.2563577037044951  0.3052485770106161  0.591143265795793  1.0000
  H   H14       1.0  0.39084113239789525  0.1780491000286872  0.6815181433957421  1.0000
  H   H15       1.0  0.32547393447708123  0.06754280832156923  0.7360222730234155  1.0000
  H   H16       1.0  0.24557295954952707  0.14119937468387186  0.6781251578909817  1.0000
  H   H17       1.0  0.22842714941668157  0.7013319357725012  0.1623819728892143  1.0000
  H   H18       1.0  0.09211547399412717  0.7360884339233779  0.29358042593487  1.0000
  H   H19       1.0  0.17252515067065122  0.6673122051883029  0.39586358111366593  1.0000
  H   H20       1.0  0.2403793531839469  0.6134609978988552  0.31264963880047236  1.0000
  H   H21       1.0  0.2593301972806117  0.7696948931471257  0.3220624048170322  1.0000
  H   H22       1.0  0.38158643484786137  0.6783875138621698  0.18905155902021406  1.0000
  H   H23       1.0  0.31783678641206575  0.8025430497999441  0.08600129914006509  1.0000
  H   H24       1.0  0.24905166456599662  0.859895684737822  0.16560416593046767  1.0000
  H   H25       1.0  0.8620913611010861  0.15696237008990727  0.7122509630278201  1.0000
  H   H26       1.0  0.835908687606654  0.2889427388450799  0.7493385801465281  1.0000
  H   H27       1.0  0.7224167108410172  0.39395029010922405  0.6809172934755309  1.0000
  H   H28       1.0  0.788857899008285  0.3107163805305576  0.6262468826744793  1.0000
  H   H29       1.0  0.6084787695931765  0.3201311614434773  0.7777658853033884  1.0000
  H   H30       1.0  0.7052123844101318  0.18429849715578683  0.6888255708397536  1.0000
  H   H31       1.0  0.7498744822782157  0.07903700718743782  0.8106747908167263  1.0000
  H   H32       1.0  0.6856893451470114  0.1589594647774248  0.8681522071853464  1.0000
  H   H33       1.0  0.7138574382888052  0.8418271594944005  0.1601104603768987  1.0000
  H   H34       1.0  0.7393403450122166  0.8413758124577984  0.28740534909530163  1.0000
  H   H35       1.0  0.6675529153435418  0.7335344439393412  0.3977081178378867  1.0000
  H   H36       1.0  0.6191876503972793  0.7832835767847686  0.3115124243876649  1.0000
  H   H37       1.0  0.7773423456907763  0.6103276229930474  0.3418959138995775  1.0000
  H   H38       1.0  0.7024441911944874  0.6784372846930328  0.20076045646013085  1.0000
  H   H39       1.0  0.8295140213270499  0.7217156459753086  0.09737614431771383  1.0000
  H   H40       1.0  0.8807204691424321  0.6757007457642458  0.1801163731133639  1.0000
  H   H41       1.0  0.8731752651440842  0.2242150139846047  0.15735081600929854  1.0000
  H   H42       1.0  0.8416667515036808  0.0898068788625892  0.28611331197175355  1.0000
  H   H43       1.0  0.732776219186583  0.16701663738917466  0.39048710888541655  1.0000
  H   H44       1.0  0.8030386686185409  0.23473540942724472  0.3093573373015133  1.0000
  H   H45       1.0  0.6192622682714911  0.24927470745255692  0.31612547719995376  1.0000
  H   H46       1.0  0.7222593390703621  0.37157544495094913  0.18509484330516546  1.0000
  H   H47       1.0  0.7604546208417561  0.30827548869133636  0.08023622063763725  1.0000
  H   H48       1.0  0.691867888460692  0.23914960289987172  0.1580460708073658  1.0000
  C   C1        1.0  0.1304771702989597  0.8448659078399745  0.8439443995560295  1.0000
  C   C2        1.0  0.19135821977738485  0.7934330884145457  0.7784010057555265  1.0000
  C   C3        1.0  0.20062317415164435  0.7215778426652835  0.6898149594633478  1.0000
  C   C4        1.0  0.27882623126856737  0.6402262865079253  0.7204865025985825  1.0000
  C   C5        1.0  0.26868576994599636  0.7125949557395757  0.81064273204597  1.0000
  C   C6        1.0  0.3422175962487515  0.5982684299154644  0.6477038351432183  1.0000
  C   C7        1.0  0.14923752444329352  0.11221821905748193  0.8546199335884309  1.0000
  C   C8        1.0  0.21223478159932802  0.16796346486432157  0.7955424955997472  1.0000
  C   C9        1.0  0.21933786527097962  0.31645750414912044  0.7171829876099237  1.0000
  C   C10       1.0  0.2923702368532516  0.2871629842609736  0.635968704112507  1.0000
  C   C11       1.0  0.28324510221602134  0.1370975498183356  0.7149655896370747  1.0000
  C   C12       1.0  0.35532818976733443  0.34228899556890025  0.5913715836500157  1.0000
  C   C13       1.0  0.1358554646905716  0.8302278869859309  0.12710507715455308  1.0000
  C   C14       1.0  0.19846861304742444  0.7628957093833223  0.18137116233156544  1.0000
  C   C15       1.0  0.21090217936706063  0.6781896293390306  0.3256957398858376  1.0000
  C   C16       1.0  0.29029738993076376  0.7099586947408414  0.3011598592918929  1.0000
  C   C17       1.0  0.2786118659756979  0.794299234702763  0.1556243341714845  1.0000
  C   C18       1.0  0.3529706268727963  0.6399547274610458  0.3546051802359427  1.0000
  C   C19       1.0  0.8655701555190092  0.12031904775378173  0.8392097179702421  1.0000
  C   C20       1.0  0.8140639156366163  0.17546193148214687  0.773336600533  1.0000
  C   C21       1.0  0.742565986979379  0.32290524985543106  0.6903412655329078  1.0000
  C   C22       1.0  0.6569519136277434  0.2981664182316807  0.7196499930277085  1.0000
  C   C23       1.0  0.7291310540196959  0.1495375958703917  0.8033204108118924  1.0000
  C   C24       1.0  0.611846783726463  0.3513010946960123  0.6487114884066827  1.0000
  C   C25       1.0  0.8404131441992958  0.8566851967862237  0.12451389275184253  1.0000
  C   C26       1.0  0.7754619470853966  0.8027413897269113  0.1818561155681452  1.0000
  C   C27       1.0  0.6835295238010629  0.7434532679212255  0.32841514375439124  1.0000
  C   C28       1.0  0.7208529358327241  0.6521937212006108  0.31416566852632133  1.0000
  C   C29       1.0  0.8154633739481054  0.7118091327865488  0.16616149834759145  1.0000
  C   C30       1.0  0.6469359939832485  0.608250089847516  0.3666375519783927  1.0000
  C   C31       1.0  0.8705486977575132  0.12986530248325323  0.12075397373405403  1.0000
  C   C32       1.0  0.822175721626877  0.19302242454270413  0.17493633110493062  1.0000
  C   C33       1.0  0.7537578796320048  0.20485415823281988  0.32073868685876766  1.0000
  C   C34       1.0  0.6698590480155532  0.2808653686551566  0.29640916571905507  1.0000
  C   C35       1.0  0.7388268421203745  0.2693376871259546  0.14942528880291675  1.0000
  C   C36       1.0  0.6256433038768066  0.3427668758339665  0.35137087033368175  1.0000
  N   N1        1.0  0.1419302019909167  0.761386503932947  0.7602409562869996  1.0000
  N   N2        1.0  0.3286170089836204  0.6614977424883508  0.749450404677617  1.0000
  N   N3        1.0  0.16109551458544047  0.26114959281265027  0.7639584428543316  1.0000
  N   N4        1.0  0.34220987878917  0.19205744614078676  0.6569872218543011  1.0000
  N   N5        1.0  0.15121534807164494  0.7476040320569199  0.27477229209384996  1.0000
  N   N6        1.0  0.33944881354445755  0.734248737160222  0.20761947725666374  1.0000
  N   N7        1.0  0.784514398574153  0.2701698207794935  0.7591535757561587  1.0000
  N   N8        1.0  0.6756907059157627  0.20308577778049403  0.7438172299153223  1.0000
  N   N9        1.0  0.7539929902174617  0.7856320120934371  0.27451430620198647  1.0000
  N   N10       1.0  0.7556115749520202  0.6577005139552344  0.22220884155598936  1.0000
  N   N11       1.0  0.7915972417519511  0.14674821224272708  0.26802749226219896  1.0000
  N   N12       1.0  0.6893874933144489  0.32858114219424556  0.20303617624394135  1.0000
  O   O1        1.0  0.9954621968949836  0.9821476601107195  0.9883380738610795  1.0000
  O   O2        1.0  0.044365622226862786  0.8634514270308533  0.8680521452463877  1.0000
  O   O3        1.0  0.17288459881129362  0.8661921844244349  0.8681035039806773  1.0000
  O   O4        1.0  0.419903924603716  0.609874516233809  0.6045132328190164  1.0000
  O   O5        1.0  0.3101335278042113  0.5565314958779412  0.6343036988772611  1.0000
  O   O6        1.0  0.06403235780703649  0.15387534763227964  0.8793958432471669  1.0000
  O   O7        1.0  0.18771455628036893  0.02801223608210531  0.8755487171886857  1.0000
  O   O8        1.0  0.43466945269221197  0.3042762810790054  0.5989984069395221  1.0000
  O   O9        1.0  0.3203659990257817  0.42468148068925177  0.5534963894498546  1.0000
  O   O10       1.0  0.05032321052460981  0.8559845677277311  0.1668608188159268  1.0000
  O   O11       1.0  0.17615953126601613  0.8546766247301039  0.04467935737299897  1.0000
  O   O12       1.0  0.4348349756091422  0.6010475813572784  0.3144629014460134  1.0000
  O   O13       1.0  0.3157243372968278  0.6248678315099884  0.43733987715783224  1.0000
  O   O14       1.0  0.8920589403771543  0.16100784674274857  0.8597811048347098  1.0000
  O   O15       1.0  0.8785968625280204  0.0370034983938794  0.8673396154312982  1.0000
  O   O16       1.0  0.6097352510888923  0.30857012879528173  0.6101762066386699  1.0000
  O   O17       1.0  0.581805219471974  0.4353898600118102  0.6327187173763137  1.0000
  O   O18       1.0  0.8593311609668389  0.8874041142592478  0.16225203490444057  1.0000
  O   O19       1.0  0.8695610695142759  0.8671521547871638  0.04262692110361143  1.0000
  O   O20       1.0  0.6139966366372532  0.5981535626050842  0.32403364978815574  1.0000
  O   O21       1.0  0.6227570509423331  0.5877069444460191  0.44984933953696765  1.0000
  O   O22       1.0  0.8961502292741059  0.04674649218269171  0.16085586827833967  1.0000
  O   O23       1.0  0.8829284552158326  0.1664560028547513  0.03873243973000482  1.0000
  O   O24       1.0  0.6118855350246264  0.42573990615045443  0.31198778351438244  1.0000
  O   O25       1.0  0.6068559376106321  0.3039406809806736  0.43382557998381094  1.0000
  O   O26       1.0  0.4950839744940508  0.48172681193236155  0.4894292542630224  1.0000
