data_image0
_chemical_formula_structural       Cd2H36C36N12Cl4
_chemical_formula_sum              "Cd2 H36 C36 N12 Cl4"
_cell_length_a       7.508141085732761
_cell_length_b       8.282416970568004
_cell_length_c       16.88514275500228
_cell_angle_alpha    89.99998263329721
_cell_angle_beta     89.99995370774243
_cell_angle_gamma    111.80965065124117

_space_group_name_H-M_alt    "P 1"
_space_group_IT_number       1

loop_
  _space_group_symop_operation_xyz
  'x, y, z'

loop_
  _atom_site_type_symbol
  _atom_site_label
  _atom_site_symmetry_multiplicity
  _atom_site_fract_x
  _atom_site_fract_y
  _atom_site_fract_z
  _atom_site_occupancy
  Cd  Cd1       1.0  0.5000012993873  0.5000014107067658  0.9999997106624576  1.0000
  Cd  Cd2       1.0  0.4999994783821079  8.601403993901059e-10  0.4999997564131675  1.0000
  H   H1        1.0  0.3570657001550189  0.5027276444669582  0.17223770888350734  1.0000
  H   H2        1.0  0.6429326659590515  0.997272956759481  0.6722363557365227  1.0000
  H   H3        1.0  0.6429343594998758  0.49727331565111405  0.827761875603201  1.0000
  H   H4        1.0  0.3570681815948546  0.0027266952524130006  0.3277626365135049  1.0000
  H   H5        1.0  0.42976814195719026  0.4912915176273529  0.31626016858716344  1.0000
  H   H6        1.0  0.5702312284781  0.008707224839597004  0.8162589117351401  1.0000
  H   H7        1.0  0.5702319176969938  0.5087094424902859  0.683740008136162  1.0000
  H   H8        1.0  0.4297704069741003  0.9912911190657001  0.18374008051483764  1.0000
  H   H9        1.0  0.010345966360176886  0.5651905550685186  0.248965575568441  1.0000
  H   H10       1.0  0.989654873055038  0.9348099196806389  0.7489635138381132  1.0000
  H   H11       1.0  0.989653799545131  0.43480649606750893  0.7510357856284742  1.0000
  H   H12       1.0  0.010346515321032304  0.06519103276790622  0.2510360706483467  1.0000
  H   H13       1.0  0.9089622080182808  0.5589387397230042  0.1080894948252649  1.0000
  H   H14       1.0  0.0910395103110348  0.9410632395178313  0.6080895336529792  1.0000
  H   H15       1.0  0.09103996825679424  0.44106090461937  0.8919094974245212  1.0000
  H   H16       1.0  0.9089618780643249  0.05893771293028751  0.391910643070112  1.0000
  H   H17       1.0  0.6972511790167742  0.3909768642293443  0.4045590551836966  1.0000
  H   H18       1.0  0.3027479795073446  0.10902175033884023  0.9045572883816319  1.0000
  H   H19       1.0  0.3027475519148127  0.6090241035569619  0.5954423060131262  1.0000
  H   H20       1.0  0.697253655944145  0.8909765935660305  0.09544229610497008  1.0000
  H   H21       1.0  0.707092954239478  0.6052316273023737  0.4153010260012522  1.0000
  H   H22       1.0  0.2929056164367411  0.8947673137455541  0.915299221802556  1.0000
  H   H23       1.0  0.2929052358706556  0.39476804004771526  0.584699150722507  1.0000
  H   H24       1.0  0.7070933615723972  0.10523104549835692  0.08470036268452928  1.0000
  H   H25       1.0  0.0418394304461245  0.35959779599922104  0.3801039488004321  1.0000
  H   H26       1.0  0.9581589988685693  0.14040216209717474  0.8801037173564763  1.0000
  H   H27       1.0  0.9581574309414052  0.6404018790195282  0.6198974123968171  1.0000
  H   H28       1.0  0.04184371822867673  0.8595987826818501  0.119895867129749  1.0000
  H   H29       1.0  0.3931550741325581  0.5772664989637095  0.4414477395984235  1.0000
  H   H30       1.0  0.6068458441567091  0.9227349974138124  0.9414487791225099  1.0000
  H   H31       1.0  0.6068431159775756  0.4227331683863795  0.5585524371253427  1.0000
  H   H32       1.0  0.39315795458558256  0.07726854823893355  0.0585513975999632  1.0000
  H   H33       1.0  0.011226059106739891  0.8429528475691656  0.4450160152511131  1.0000
  H   H34       1.0  0.9887729810770836  0.657047350873583  0.9450151781216789  1.0000
  H   H35       1.0  0.9887732126498605  0.15704942065549696  0.554983569235638  1.0000
  H   H36       1.0  0.011224668210168473  0.34295101603942885  0.0549849986022721  1.0000
  C   C1        1.0  0.49886087907265864  0.5121786085522901  0.1922665330903399  1.0000
  C   C2        1.0  0.5011387676953163  0.9878219559936668  0.6922646403033637  1.0000
  C   C3        1.0  0.5011391805808145  0.4878223515649155  0.8077342358696171  1.0000
  C   C4        1.0  0.4988628677561735  0.0121763879111967  0.30773494418323816  1.0000
  C   C5        1.0  0.5410539195664725  0.5084271307138549  0.2721065377245394  1.0000
  C   C6        1.0  0.4589449947676132  0.9915720177484106  0.7721046596479723  1.0000
  C   C7        1.0  0.45894427054294346  0.49157253663580047  0.7278942312358438  1.0000
  C   C8        1.0  0.5410566406838769  0.0084263261564601  0.22789492483863677  1.0000
  C   C9        1.0  0.7273839862656434  0.5283662674332635  0.294925972121476  1.0000
  C   C10       1.0  0.2726162020243237  0.9716328403059435  0.7949241642388641  1.0000
  C   C11       1.0  0.2726168612868419  0.4716333845777783  0.7050742046018073  1.0000
  C   C12       1.0  0.7273854334271662  0.0283655035989199  0.20507542024774486  1.0000
  C   C13       1.0  0.8626559874047642  0.548313394408261  0.23504549308012904  1.0000
  C   C14       1.0  0.13734567331499667  0.9516857923966031  0.7350443291776898  1.0000
  C   C15       1.0  0.1373456480460149  0.4516849494961831  0.7649546836431041  1.0000
  C   C16       1.0  0.8626559621364932  0.04831255150826049  0.2649552553089123  1.0000
  C   C17       1.0  0.8067861533234576  0.5461318025289685  0.1560766714214239  1.0000
  C   C18       1.0  0.1932143681953634  0.9538675063301554  0.6560754870161175  1.0000
  C   C19       1.0  0.193214400482276  0.4538639405017477  0.8439229130655619  1.0000
  C   C20       1.0  0.8067875610035883  0.0461347465554667  0.34392409747015756  1.0000
  C   C21       1.0  0.7688845976749049  0.5242629094928619  0.3820629243933809  1.0000
  C   C22       1.0  0.23111459359282813  0.9757373801364154  0.8820617231569938  1.0000
  C   C23       1.0  0.23111280453692734  0.4757380659638244  0.6179372523304281  1.0000
  C   C24       1.0  0.7688870418586685  0.024260963768455195  0.117937861329608  1.0000
  C   C25       1.0  0.09052578312790881  0.4930162630002642  0.40031637430217154  1.0000
  C   C26       1.0  0.9094739263993714  0.006983658149295002  0.9003161795740979  1.0000
  C   C27       1.0  0.9094710782603386  0.5069834120189114  0.5996843946584604  1.0000
  C   C28       1.0  0.09052879069716378  0.9930172866292962  0.0996839971487518  1.0000
  C   C29       1.0  0.2635736049150027  0.6020520891101527  0.4302775862053352  1.0000
  C   C30       1.0  0.7364260114608073  0.8979494311166577  0.9302785824534466  1.0000
  C   C31       1.0  0.7364232564732377  0.39794758590903  0.5697231827552898  1.0000
  C   C32       1.0  0.2635764585603154  0.10205412220560821  0.0697215942692679  1.0000
  C   C33       1.0  0.07259688118227108  0.7455291135183586  0.4334727270368716  1.0000
  C   C34       1.0  0.9274021867047111  0.7544711016446044  0.9334718981228959  1.0000
  C   C35       1.0  0.927401849750737  0.2544718542688074  0.5665274496867028  1.0000
  C   C36       1.0  0.07259600340541544  0.24552856570548443  0.0665282786008632  1.0000
  N   N1        1.0  0.62865903683101  0.5298878336233059  0.1347313122433249  1.0000
  N   N2        1.0  0.371340207194237  0.9701115138237101  0.6347300611380645  1.0000
  N   N3        1.0  0.37133994117741764  0.4701105256201785  0.8652688644803914  1.0000
  N   N4        1.0  0.6286606403596622  0.029888138188191207  0.3652689311119629  1.0000
  N   N5        1.0  0.25019511288147106  0.7583907961188958  0.45067894476334647  1.0000
  N   N6        1.0  0.7498039137101671  0.741609394120303  0.9506793663469323  1.0000
  N   N7        1.0  0.749803077229366  0.2416088712316196  0.5493206397237882  1.0000
  N   N8        1.0  0.2501948172235516  0.2583915736672822  0.04932021814001079  1.0000
  N   N9        1.0  0.9708796797562086  0.5859623817214012  0.4027751750465782  1.0000
  N   N10       1.0  0.029118920981148058  0.9140365774699009  0.9027734634141635  1.0000
  N   N11       1.0  0.029117181631320946  0.4140372932973549  0.597226186150678  1.0000
  N   N12       1.0  0.9708832552939342  0.0859630668724733  0.09722552883562229  1.0000
  Cl  Cl1       1.0  0.3003052855509197  0.691767659497778  0.04089738871323329  1.0000
  Cl  Cl2       1.0  0.6996941836678303  0.8082318238645314  0.540897818857232  1.0000
  Cl  Cl3       1.0  0.6996934453813779  0.30823330828895484  0.9591033802469653  1.0000
  Cl  Cl4       1.0  0.30030533516347185  0.19176783581603024  0.45910235786628556  1.0000
