data_image0
_chemical_formula_structural       Cd8H108C100N20O44
_chemical_formula_sum              "Cd8 H108 C100 N20 O44"
_cell_length_a       12.786846584008602
_cell_length_b       15.23613159500936
_cell_length_c       23.632428333001332
_cell_angle_alpha    90.00000150870552
_cell_angle_beta     90.00003844351099
_cell_angle_gamma    89.99987287716795

_space_group_name_H-M_alt    "P 1"
_space_group_IT_number       1

loop_
  _space_group_symop_operation_xyz
  'x, y, z'

loop_
  _atom_site_type_symbol
  _atom_site_label
  _atom_site_symmetry_multiplicity
  _atom_site_fract_x
  _atom_site_fract_y
  _atom_site_fract_z
  _atom_site_occupancy
  Cd  Cd1       1.0  0.3594793230329073  0.35924374729881253  0.3810612050286508  1.0000
  Cd  Cd2       1.0  0.8594796233028601  0.6407570004776771  0.6189390957678995  1.0000
  Cd  Cd3       1.0  0.3594799215057946  0.14075719565988007  0.8810610267736648  1.0000
  Cd  Cd4       1.0  0.8594790248305769  0.8592428957820248  0.1189388508755016  1.0000
  Cd  Cd5       1.0  0.2544169232235944  0.22447473059126113  0.49915950120939817  1.0000
  Cd  Cd6       1.0  0.7544175031768816  0.7755235876543838  0.500842030876413  1.0000
  Cd  Cd7       1.0  0.2544163836806063  0.2755237874111245  0.9991610179502359  1.0000
  Cd  Cd8       1.0  0.7544180427178728  0.7244758435036616  0.0008400909882198001  1.0000
  H   H1        1.0  0.043434925899056495  0.4910878779521184  0.5080569851229768  1.0000
  H   H2        1.0  0.5434315067064118  0.5089114898448202  0.49194489349241627  1.0000
  H   H3        1.0  0.04343681686879109  0.008910357909073201  0.008058003417346502  1.0000
  H   H4        1.0  0.5434319618979656  0.991088353551085  0.9919430289037265  1.0000
  H   H5        1.0  0.9362216117769859  0.6374529357582618  0.3637503531461377  1.0000
  H   H6        1.0  0.436222401196943  0.3625470126565277  0.636252937550701  1.0000
  H   H7        1.0  0.9362224064857684  0.8625481396231436  0.8637506019990439  1.0000
  H   H8        1.0  0.43622395264744523  0.13745246512400652  0.1362514192561051  1.0000
  H   H9        1.0  0.12334048462714967  0.4050397117285129  0.3399481636636992  1.0000
  H   H10       1.0  0.6233409568256788  0.5949621324808946  0.6600528976749871  1.0000
  H   H11       1.0  0.12334276816964969  0.09496101340048568  0.8399492540333783  1.0000
  H   H12       1.0  0.6233425835563507  0.9050368927977959  0.1600513841586135  1.0000
  H   H13       1.0  0.9577467795393486  0.619534978583367  0.2016624856853326  1.0000
  H   H14       1.0  0.457746940521389  0.3804642733803618  0.7983399665333978  1.0000
  H   H15       1.0  0.9577467448673571  0.8804667067397104  0.7016635811528005  1.0000
  H   H16       1.0  0.4577461931378152  0.1195332015592925  0.2983371784762952  1.0000
  H   H17       1.0  0.9985043267187234  0.5112948641090541  0.0345002375962693  1.0000
  H   H18       1.0  0.4985004987677754  0.4887062809011696  0.9655026525700308  1.0000
  H   H19       1.0  0.9985032240991882  0.9887054261117357  0.5345009118489801  1.0000
  H   H20       1.0  0.4985055116576191  0.011293749891081003  0.46550113202326326  1.0000
  H   H21       1.0  0.13436033409898576  0.3811464943596549  0.17859191605242591  1.0000
  H   H22       1.0  0.6343570329570694  0.6188546729807243  0.8214108418768689  1.0000
  H   H23       1.0  0.1343602083704454  0.11885420398525783  0.6785917374061938  1.0000
  H   H24       1.0  0.6343610689576451  0.8811436816785729  0.3214101742290296  1.0000
  H   H25       1.0  0.3334296722161766  0.47488467124593114  0.2630026607239628  1.0000
  H   H26       1.0  0.8334288601809375  0.5251154687464564  0.7369967843178314  1.0000
  H   H27       1.0  0.333429012026741  0.025115003022563104  0.7630024804037633  1.0000
  H   H28       1.0  0.8334303024240979  0.9748844806344865  0.2369956951960432  1.0000
  H   H29       1.0  0.40394614017498015  0.257918770439055  0.2117197486966234  1.0000
  H   H30       1.0  0.9039440365879227  0.7420818944656278  0.7882801451000248  1.0000
  H   H31       1.0  0.4039441248569202  0.24208142675590952  0.7117187259557555  1.0000
  H   H32       1.0  0.9039452698529471  0.7579185818149199  0.2882807446933739  1.0000
  H   H33       1.0  0.4190553209837517  0.29664052606449337  0.13991883585404713  1.0000
  H   H34       1.0  0.9190534086860962  0.7033594543460355  0.8600810634294549  1.0000
  H   H35       1.0  0.41905262588817027  0.20335964019130165  0.6399178124216007  1.0000
  H   H36       1.0  0.9190545396723945  0.796641652889825  0.36008166371424716  1.0000
  H   H37       1.0  0.2930829514440488  0.2710856008280872  0.1658243181614054  1.0000
  H   H38       1.0  0.7930801574783998  0.7289146143614432  0.8341751122283156  1.0000
  H   H39       1.0  0.2930794067963447  0.22891480120985364  0.6658237183325184  1.0000
  H   H40       1.0  0.793081355964304  0.7710860703164432  0.3341757120567834  1.0000
  H   H41       1.0  0.35582366245573377  0.5220180037472133  0.1763937069117887  1.0000
  H   H42       1.0  0.8558246463904735  0.47798275084176833  0.823605323115224  1.0000
  H   H43       1.0  0.355824934318747  0.9779828334131367  0.6763931115313326  1.0000
  H   H44       1.0  0.855824938634498  0.022017921174374105  0.3236054953485947  1.0000
  H   H45       1.0  0.31130453944504666  0.4489036848664014  0.12205692068040722  1.0000
  H   H46       1.0  0.8113053976253038  0.5510964963596479  0.8779425163270531  1.0000
  H   H47       1.0  0.31130459268316457  0.0510973378478425  0.622055894529538  1.0000
  H   H48       1.0  0.8113053443857935  0.9489034997127702  0.3779426961831831  1.0000
  H   H49       1.0  0.44783155209208997  0.4579636004447921  0.1369805071514847  1.0000
  H   H50       1.0  0.9478324157009294  0.5420369826666586  0.8630189794350969  1.0000
  H   H51       1.0  0.44783319336639227  0.04203848106585891  0.6369799039865072  1.0000
  H   H52       1.0  0.9478339026398215  0.9579627583772352  0.3630187363059036  1.0000
  H   H53       1.0  0.5995096342058941  0.3316302159880992  0.4186803193920383  1.0000
  H   H54       1.0  0.09951032980354309  0.6683723289698378  0.5813177712610199  1.0000
  H   H55       1.0  0.5995101597424011  0.16837093741085601  0.918679718482757  1.0000
  H   H56       1.0  0.09951215043509616  0.8316270132028835  0.0813200647601846  1.0000
  H   H57       1.0  0.7747520732287398  0.4663972017005663  0.47654067809634176  1.0000
  H   H58       1.0  0.2747522710039192  0.5336050166536453  0.5234570530476788  1.0000
  H   H59       1.0  0.7747529547279227  0.03360297099987261  0.976540497927985  1.0000
  H   H60       1.0  0.27475295361541896  0.9663972783491701  0.023458502658428408  1.0000
  H   H61       1.0  0.8427047598829275  0.4069174725470148  0.42289237318664874  1.0000
  H   H62       1.0  0.34270643116945365  0.5930846191605142  0.5771049594869453  1.0000
  H   H63       1.0  0.8427054842771253  0.09308322776538351  0.9228921940803829  1.0000
  H   H64       1.0  0.34270648883229166  0.9069168949377017  0.0771064080354549  1.0000
  H   H65       1.0  0.7432823753920345  0.3536632346643315  0.4636689513936433  1.0000
  H   H66       1.0  0.24328307341486513  0.6463377296712095  0.5363291914697612  1.0000
  H   H67       1.0  0.7432837411785299  0.1463376525227247  0.9636683500910763  1.0000
  H   H68       1.0  0.24328327173680003  0.8536626554767892  0.03633021591998191  1.0000
  H   H69       1.0  0.6370486755236298  0.5361755381302445  0.3450488765609521  1.0000
  H   H70       1.0  0.1370500026689214  0.46382759319911326  0.6549483814295911  1.0000
  H   H71       1.0  0.6370476386207142  0.963825437770986  0.8450495503693958  1.0000
  H   H72       1.0  0.1370463472562093  0.036173755555310494  0.15494940020975892  1.0000
  H   H73       1.0  0.7760563845610802  0.5233315973176148  0.3491568163970129  1.0000
  H   H74       1.0  0.27605689063763345  0.47666996227084724  0.6508409152207051  1.0000
  H   H75       1.0  0.7760553137357816  0.9766671506664579  0.8491566441400309  1.0000
  H   H76       1.0  0.2760540511989547  0.023331783587359208  0.1508423569190782  1.0000
  H   H77       1.0  0.7076563699896709  0.578654103711209  0.40486754149123527  1.0000
  H   H78       1.0  0.20765695312372395  0.4213482396907581  0.5951301652873795  1.0000
  H   H79       1.0  0.7076562273392852  0.9213467429120643  0.9048677913939329  1.0000
  H   H80       1.0  0.20765474961881836  0.07865231881923763  0.09513203112110348  1.0000
  H   H81       1.0  0.45537372727937236  0.5497322994473279  0.4128734437492128  1.0000
  H   H82       1.0  0.9553791835670179  0.4502715512761526  0.58712519928239  1.0000
  H   H83       1.0  0.4553782005591102  0.9502690176678145  0.9128741173165765  1.0000
  H   H84       1.0  0.9553786205641754  0.04972826970625021  0.087124525715673  1.0000
  H   H85       1.0  0.5034362336243916  0.6837268971412344  0.4327880385541789  1.0000
  H   H86       1.0  0.0034409699455010996  0.3162738578638695  0.5672104403583874  1.0000
  H   H87       1.0  0.5034387146686469  0.8162710494986244  0.9327887097284348  1.0000
  H   H88       1.0  0.003438488903590599  0.18372773650273194  0.0672093460367407  1.0000
  H   H89       1.0  0.40121390759157544  0.7607058499510732  0.44534195698465606  1.0000
  H   H90       1.0  0.9012167526613694  0.23929613271026548  0.5546562432312072  1.0000
  H   H91       1.0  0.40121424579655235  0.7392949130298163  0.9453430499313171  1.0000
  H   H92       1.0  0.9012117221391873  0.2607031316284036  0.054654303988904494  1.0000
  H   H93       1.0  0.465867025108288  0.7592723536918272  0.3785561954608596  1.0000
  H   H94       1.0  0.9658683850808526  0.2407288521405135  0.6214424513805669  1.0000
  H   H95       1.0  0.4658673595294615  0.7407263172033183  0.8785568652857307  1.0000
  H   H96       1.0  0.9658664865553347  0.25927226329215364  0.1214409352606367  1.0000
  H   H97       1.0  0.26365852558780023  0.6767358424952123  0.3211320972696114  1.0000
  H   H98       1.0  0.7636620848997423  0.3232696782040989  0.6788652066991075  1.0000
  H   H99       1.0  0.2636617702117831  0.823268453711748  0.8211327685688943  1.0000
  H   H100      1.0  0.763663532607353  0.1767305036374438  0.1788662279901132  1.0000
  H   H101      1.0  0.2553076865336621  0.7560276317169328  0.3767929020909335  1.0000
  H   H102      1.0  0.7553098221718526  0.2439759355436664  0.6232048219923101  1.0000
  H   H103      1.0  0.255310358541216  0.7439740568713233  0.8767931488268204  1.0000
  H   H104      1.0  0.7553118424933769  0.2560242597082905  0.1232049984046029  1.0000
  H   H105      1.0  0.19676016756292813  0.6497480845545311  0.384653699285785  1.0000
  H   H106      1.0  0.6967635768438567  0.35025690449065655  0.6153431572417105  1.0000
  H   H107      1.0  0.1967633409057612  0.8502550261234632  0.8846547942143417  1.0000
  H   H108      1.0  0.6967627496699506  0.1497447122429421  0.1153437549030372  1.0000
  C   C1        1.0  0.1478916160239052  0.3662430978004779  0.4529276704473731  1.0000
  C   C2        1.0  0.6478910636366135  0.63375541898035  0.5470721303645973  1.0000
  C   C3        1.0  0.14789223298770077  0.13375561694470411  0.9529283383621419  1.0000
  C   C4        1.0  0.647890446671688  0.866243556170687  0.047071039302466  1.0000
  C   C5        1.0  0.0911800981065767  0.4415706696533449  0.426798733600343  1.0000
  C   C6        1.0  0.5911797770760996  0.5584279528221289  0.5732031623540337  1.0000
  C   C7        1.0  0.09118091403407648  0.05842814977468442  0.9268002464647793  1.0000
  C   C8        1.0  0.5911781790950383  0.9415698163669152  0.0732003800473251  1.0000
  C   C9        1.0  0.04040599061823968  0.5011553959846254  0.46254367621891396  1.0000
  C   C10       1.0  0.5404057826547015  0.4988439774544205  0.5374577781497436  1.0000
  C   C11       1.0  0.040407207379097095  0.998843414770896  0.9625426580635974  1.0000
  C   C12       1.0  0.5404045658939295  0.0011553023335509002  0.03745752686293711  1.0000
  C   C13       1.0  0.9845651742186377  0.5717931810144351  0.4403929295274551  1.0000
  C   C14       1.0  0.48456256698302264  0.4282053646351116  0.5596095324297323  1.0000
  C   C15       1.0  0.9845650134479836  0.9282064945673553  0.9403931795526504  1.0000
  C   C16       1.0  0.4845627277522836  0.07179270741674772  0.05960843610979791  1.0000
  C   C17       1.0  0.9228180756540493  0.6301486029695341  0.47939060400973693  1.0000
  C   C18       1.0  0.42281713831348355  0.3698507140928059  0.5206118355246048  1.0000
  C   C19       1.0  0.9228204151823787  0.8698479075269319  0.9793895835511961  1.0000
  C   C20       1.0  0.4228171449465206  0.13015009686402831  0.020610740246695503  1.0000
  C   C21       1.0  0.980364712773955  0.5831267692855918  0.3817650138469446  1.0000
  C   C22       1.0  0.48036377225822224  0.4168750658637991  0.6182370234378212  1.0000
  C   C23       1.0  0.9803637998805497  0.9168761935280046  0.88176484052228  1.0000
  C   C24       1.0  0.4803646851543063  0.08312301628304651  0.1182359273203417  1.0000
  C   C25       1.0  0.02977308793346369  0.5230074070683912  0.3456678307875762  1.0000
  C   C26       1.0  0.5297738646320196  0.4769932988557315  0.6543336197199922  1.0000
  C   C27       1.0  0.029774362409767698  0.976994044316392  0.8456685048315791  1.0000
  C   C28       1.0  0.5297749363181267  0.02300534893637971  0.1543325225290317  1.0000
  C   C29       1.0  0.08573460874917058  0.4517989916564602  0.36822413425307593  1.0000
  C   C30       1.0  0.5857367335068558  0.5482022663039245  0.6317760671347656  1.0000
  C   C31       1.0  0.08573701579723547  0.0482018046544894  0.8682252237878032  1.0000
  C   C32       1.0  0.5857358905712857  0.9517955152969649  0.1317749776002941  1.0000
  C   C33       1.0  0.04400875211909039  0.49728826414771987  0.1967457693408861  1.0000
  C   C34       1.0  0.5440104275621351  0.5027104462404282  0.8032556863364421  1.0000
  C   C35       1.0  0.04400658699636038  0.0027126032928422006  0.6967468580624825  1.0000
  C   C36       1.0  0.5440094644714079  0.9972854507636486  0.3032550207616396  1.0000
  C   C37       1.0  0.9881374345574867  0.5684550548641807  0.1739962691138217  1.0000
  C   C38       1.0  0.4881382769725277  0.4315441404589749  0.8260045015517505  1.0000
  C   C39       1.0  0.9881349188049098  0.9315472290845079  0.6739956729034732  1.0000
  C   C40       1.0  0.4881368824532187  0.06845393524599068  0.3260034051719103  1.0000
  C   C41       1.0  0.9716235477262242  0.5729870593877563  0.115847777112009  1.0000
  C   C42       1.0  0.4716221280348449  0.4270147920532139  0.8841534107036111  1.0000
  C   C43       1.0  0.9716226080574868  0.9270119714122915  0.6158501428526081  1.0000
  C   C44       1.0  0.4716246318177254  0.07298528568519912  0.3841523144053768  1.0000
  C   C45       1.0  0.9114764683508978  0.6490339771758189  0.091592959368846  1.0000
  C   C46       1.0  0.4114737154863589  0.3509666736950194  0.9084086297517828  1.0000
  C   C47       1.0  0.9114749474916977  0.850965164783304  0.5915953237513918  1.0000
  C   C48       1.0  0.4114760184034622  0.14903286074851965  0.40840753481148084  1.0000
  C   C49       1.0  0.011957761077717096  0.5079360076121162  0.0799778225010428  1.0000
  C   C50       1.0  0.5119549170787252  0.4920647315182905  0.9200236215363232  1.0000
  C   C51       1.0  0.0119582136962109  0.9920621850149373  0.5799780736666236  1.0000
  C   C52       1.0  0.5119583747322735  0.007935272438928104  0.42002252407667134  1.0000
  C   C53       1.0  0.07334985753706749  0.44023438278189536  0.10213509900982841  1.0000
  C   C54       1.0  0.5733468072492157  0.5597668982651812  0.897868483058609  1.0000
  C   C55       1.0  0.0733506699333404  0.05976511363920881  0.6021353424560161  1.0000
  C   C56       1.0  0.5733514692316817  0.9402335420644479  0.39786781646601815  1.0000
  C   C57       1.0  0.12888276312687447  0.3779586801873621  0.06333757207231372  1.0000
  C   C58       1.0  0.6288811605541083  0.6220424973601341  0.9366647607207599  1.0000
  C   C59       1.0  0.12888184692589277  0.12204071123473173  0.5633365471881078  1.0000
  C   C60       1.0  0.6288859870246097  0.8779584973053361  0.4366636698687927  1.0000
  C   C61       1.0  0.08809395894638067  0.4343962741053743  0.16069573622131372  1.0000
  C   C62       1.0  0.5880923847459341  0.5656056357958973  0.8393070049068996  1.0000
  C   C63       1.0  0.08809397386593078  0.0656051661088952  0.6606955566242405  1.0000
  C   C64       1.0  0.588094715990607  0.9343934621172707  0.339305491914871  1.0000
  C   C65       1.0  0.33765050132184626  0.40471331202401467  0.2515527160597202  1.0000
  C   C66       1.0  0.8376479540291724  0.5952874764380951  0.748447153661914  1.0000
  C   C67       1.0  0.33764809168155807  0.09528569760166052  0.7515521138448592  1.0000
  C   C68       1.0  0.8376503636718767  0.90471246552211  0.24844606328725405  1.0000
  C   C69       1.0  0.36971245021538823  0.2977681555843504  0.1778336779465306  1.0000
  C   C70       1.0  0.8697104938922916  0.7022319167878879  0.8221657802709647  1.0000
  C   C71       1.0  0.3697097580986152  0.20223210410134135  0.677833500788701  1.0000
  C   C72       1.0  0.8697116219006347  0.7977686246069241  0.3221655342811403  1.0000
  C   C73       1.0  0.3691655688264602  0.45847627142077846  0.1558122436231457  1.0000
  C   C74       1.0  0.8691664104450252  0.5415231456335123  0.8441872143962571  1.0000
  C   C75       1.0  0.3691656473506057  0.0415233320942221  0.6558112173013342  1.0000
  C   C76       1.0  0.8691671139720112  0.958477397628471  0.3441869712761019  1.0000
  C   C77       1.0  0.6023820210395527  0.392565627705963  0.3932940168773911  1.0000
  C   C78       1.0  0.102382909058008  0.6074375682330526  0.6067053442609237  1.0000
  C   C79       1.0  0.6023842716331557  0.10743486302039432  0.8932929917329346  1.0000
  C   C80       1.0  0.10238378668792338  0.8925617695699304  0.1067067925532683  1.0000
  C   C81       1.0  0.7664732999320094  0.415696018967445  0.44370697877062787  1.0000
  C   C82       1.0  0.26647340449403595  0.5843062148162304  0.5562907493669798  1.0000
  C   C83       1.0  0.766474047512865  0.0843048242256259  0.9437067995076092  1.0000
  C   C84       1.0  0.26647422102359997  0.9156954405528738  0.0562917749250076  1.0000
  C   C85       1.0  0.7030462149798207  0.5252278164240138  0.3736980814308595  1.0000
  C   C86       1.0  0.20304669564092848  0.47477322290095003  0.6262987773788211  1.0000
  C   C87       1.0  0.7030459312150158  0.9747723812498921  0.873698332287546  1.0000
  C   C88       1.0  0.20304463324983857  0.0252260327389919  0.1263010654059329  1.0000
  C   C89       1.0  0.3807837600012007  0.5680244132531342  0.3927633514002907  1.0000
  C   C90       1.0  0.8807885074833447  0.43197826381727117  0.6072365339863168  1.0000
  C   C91       1.0  0.3807882815964731  0.9319763857640312  0.8927636014936481  1.0000
  C   C92       1.0  0.880786332053951  0.0680223532967119  0.10723586074598052  1.0000
  C   C93       1.0  0.4369889884373918  0.7178346976967803  0.41333848087641206  1.0000
  C   C94       1.0  0.936991759947041  0.2821665619550232  0.5866593091836023  1.0000
  C   C95       1.0  0.4369899954610544  0.7821653410345989  0.9133395745887327  1.0000
  C   C96       1.0  0.9369899708725951  0.21783394961421013  0.0866586386184949  1.0000
  C   C97       1.0  0.2636077084557583  0.6860164143684884  0.3672902823858166  1.0000
  C   C98       1.0  0.7636104530060661  0.31398779375713554  0.6327074447116631  1.0000
  C   C99       1.0  0.26361019554154536  0.8139859147175629  0.8672909535192305  1.0000
  C   C100      1.0  0.7636095300352962  0.1860130427300106  0.1327080430206067  1.0000
  N   N1        1.0  0.015122820606833894  0.5382133790890791  0.287134275108734  1.0000
  N   N2        1.0  0.5151229279792133  0.4617880104743506  0.712867170078546  1.0000
  N   N3        1.0  0.015123353194240997  0.9617874409992951  0.7871353720284446  1.0000
  N   N4        1.0  0.5151247415559439  0.038211323223627906  0.21286565001186372  1.0000
  N   N5        1.0  0.06142905081939889  0.4840263525632765  0.25515788224358726  1.0000
  N   N6        1.0  0.5614306188178019  0.5159736380274396  0.7448435797598237  1.0000
  N   N7        1.0  0.061429978880582284  0.0159751410041906  0.7551572786130762  1.0000
  N   N8        1.0  0.5614312548653757  0.9840235369158989  0.24484376024323504  1.0000
  N   N9        1.0  0.3593407472522542  0.3883423373849554  0.1973797003906625  1.0000
  N   N10       1.0  0.8593390059314029  0.6116584106516927  0.802620177207821  1.0000
  N   N11       1.0  0.3593390764226213  0.1116579423866781  0.6973782521735359  1.0000
  N   N12       1.0  0.8593406767616326  0.8883421493153847  0.3026212022775709  1.0000
  N   N13       1.0  0.6874537575124432  0.4418346163766955  0.4027462988135042  1.0000
  N   N14       1.0  0.18745554600045716  0.5581684210108976  0.5972518237762259  1.0000
  N   N15       1.0  0.6874537920795445  0.05816637250179471  0.9027461190836094  1.0000
  N   N16       1.0  0.18745551143908296  0.9418327268783528  0.09725284980083872  1.0000
  N   N17       1.0  0.36083893176397897  0.6542497306759785  0.3924193297333218  1.0000
  N   N18       1.0  0.8608431253634734  0.345754296235782  0.6075784326734635  1.0000
  N   N19       1.0  0.360842899051697  0.845752418169269  0.8924200014342463  1.0000
  N   N20       1.0  0.8608430683511868  0.15424635806223114  0.1075781841205696  1.0000
  O   O1        1.0  0.14158674843834965  0.3539788367741181  0.5057089569398983  1.0000
  O   O2        1.0  0.6415860982257794  0.6460183790882043  0.4942912647298385  1.0000
  O   O3        1.0  0.14158827725938744  0.14602052873737387  0.005709977682535299  1.0000
  O   O4        1.0  0.641586915559955  0.8539806251302196  0.99428939769291  1.0000
  O   O5        1.0  0.2013551975258138  0.3146131441110782  0.4204549270344557  1.0000
  O   O6        1.0  0.7013545490234137  0.6853865856974437  0.5795453163399173  1.0000
  O   O7        1.0  0.20135567811826854  0.18538612606978697  0.9204555958711468  1.0000
  O   O8        1.0  0.7013556325386003  0.8146129474026864  0.07954380120875731  1.0000
  O   O9        1.0  0.9093128609316564  0.6007861765067231  0.529279253590758  1.0000
  O   O10       1.0  0.40931100213552424  0.39921250939193703  0.4707231810390624  1.0000
  O   O11       1.0  0.9093184133222676  0.8992077163885243  0.0292807020026729  1.0000
  O   O12       1.0  0.40931170617755436  0.1007883441659985  0.970721732628256  1.0000
  O   O13       1.0  0.8875715933357422  0.7011029976327379  0.4587215415931071  1.0000
  O   O14       1.0  0.3875700869801192  0.29889441611624085  0.5412808851415251  1.0000
  O   O15       1.0  0.8875717741108529  0.7988968594280763  0.9587200967198086  1.0000
  O   O16       1.0  0.38757303441308  0.2011044923254204  0.041280214278558  1.0000
  O   O17       1.0  0.9221498564510848  0.7216961125163978  0.11723188451836822  1.0000
  O   O18       1.0  0.42214882783269286  0.27830386212595926  0.8827692853311788  1.0000
  O   O19       1.0  0.9221453993010297  0.7783043232152451  0.6172380559292421  1.0000
  O   O20       1.0  0.42214859266348975  0.2216956514315669  0.3827673453931979  1.0000
  O   O21       1.0  0.8567608621106186  0.6322863378936034  0.0479943827096889  1.0000
  O   O22       1.0  0.35675733700583107  0.3677137586183222  0.9520050708042191  1.0000
  O   O23       1.0  0.8567655534474736  0.867710279008087  0.5479954779502734  1.0000
  O   O24       1.0  0.356761248265947  0.13228522315380795  0.4520052450072854  1.0000
  O   O25       1.0  0.20190475183378703  0.3310221578934788  0.0853205141599176  1.0000
  O   O26       1.0  0.7019045621425305  0.6689782272250041  0.9146809988562339  1.0000
  O   O27       1.0  0.2019076219286972  0.1689751292794739  0.5853173743776452  1.0000
  O   O28       1.0  0.7019079484806878  0.831021317825666  0.41468202290273837  1.0000
  O   O29       1.0  0.10611324181576257  0.37572191215352296  0.011158842032372702  1.0000
  O   O30       1.0  0.6061085698009379  0.6242832458404595  0.9888422130494234  1.0000
  O   O31       1.0  0.10610684532566238  0.1242821140313737  0.5111586634819005  1.0000
  O   O32       1.0  0.6061149662932903  0.8757217312934672  0.4888432378946348  1.0000
  O   O33       1.0  0.3230778147807882  0.34502429077723923  0.2874995054841492  1.0000
  O   O34       1.0  0.8230742832133514  0.6549771811799021  0.7125012052400664  1.0000
  O   O35       1.0  0.3230752474813768  0.15497606006924516  0.7874984811877468  1.0000
  O   O36       1.0  0.8230776325693512  0.8450227865488388  0.21250138324182902  1.0000
  O   O37       1.0  0.5309703096041217  0.4120128871370099  0.3592264089710114  1.0000
  O   O38       1.0  0.030973637384391794  0.5879897855571344  0.6407729262349307  1.0000
  O   O39       1.0  0.530971829508978  0.08798839169735831  0.8592249603317867  1.0000
  O   O40       1.0  0.030974463648810496  0.9120083739834117  0.1407752211692781  1.0000
  O   O41       1.0  0.3199087655510553  0.511837635365943  0.37211459426902854  1.0000
  O   O42       1.0  0.8199133902258067  0.4881644988244034  0.6278852690110952  1.0000
  O   O43       1.0  0.3199123566842843  0.9881639326414486  0.8721135759234144  1.0000
  O   O44       1.0  0.8199152734687869  0.011836888874604804  0.12788459476819014  1.0000
