data_image0
_chemical_formula_structural       Cu4P4H40C40N8O16
_chemical_formula_sum              "Cu4 P4 H40 C40 N8 O16"
_cell_length_a       8.206391893695677
_cell_length_b       8.741696278025605
_cell_length_c       17.404029495275434
_cell_angle_alpha    90.00073123461192
_cell_angle_beta     106.91879317283157
_cell_angle_gamma    90.00133086150882

_space_group_name_H-M_alt    "P 1"
_space_group_IT_number       1

loop_
  _space_group_symop_operation_xyz
  'x, y, z'

loop_
  _atom_site_type_symbol
  _atom_site_label
  _atom_site_symmetry_multiplicity
  _atom_site_fract_x
  _atom_site_fract_y
  _atom_site_fract_z
  _atom_site_occupancy
  Cu  Cu1       1.0  0.7204145631990004  0.6335612648978356  0.011988609483381719  1.0000
  Cu  Cu2       1.0  0.22042953940301402  0.366434543136478  0.5119926547715323  1.0000
  Cu  Cu3       1.0  0.2795805235430961  0.36643682843453024  0.9880110377390067  1.0000
  Cu  Cu4       1.0  0.7795707278011579  0.6335749897031066  0.48800877187276365  1.0000
  P   P1        1.0  0.765459542484834  0.004816658921285501  0.023536759531715763  1.0000
  P   P2        1.0  0.2654587075982563  0.9951792905711162  0.5235459848411922  1.0000
  P   P3        1.0  0.23454383446110683  0.9951825783524272  0.976455846133213  1.0000
  P   P4        1.0  0.734543364113037  0.004826810552899002  0.4764625602046947  1.0000
  H   H1        1.0  0.5451912506394905  0.10626749050364742  0.0532130832180115  1.0000
  H   H2        1.0  0.04518483889967231  0.8937347178419159  0.55322267362871  1.0000
  H   H3        1.0  0.4548119933782431  0.8937306028031391  0.9467777815071938  1.0000
  H   H4        1.0  0.9548185500164409  0.10627023936334012  0.4467866064072226  1.0000
  H   H5        1.0  0.0317934539790841  0.9225567184255258  0.0665469532487748  1.0000
  H   H6        1.0  0.5317983421766428  0.07744668949506923  0.5665555090864417  1.0000
  H   H7        1.0  0.9682110629578491  0.07744137489718385  0.9334440661612647  1.0000
  H   H8        1.0  0.4682035966242922  0.9225594116047664  0.4334512950257476  1.0000
  H   H9        1.0  0.6446095856359406  0.3575085349200792  0.08309497434368751  1.0000
  H   H10       1.0  0.1446271611729912  0.642489762015231  0.5831057906982479  1.0000
  H   H11       1.0  0.35538795833763714  0.6424895584280109  0.9169038216258869  1.0000
  H   H12       1.0  0.8553808764210304  0.35751748305859377  0.4168983049766837  1.0000
  H   H13       1.0  0.543048781715193  0.28711639380250636  0.19680939531259872  1.0000
  H   H14       1.0  0.0430596420234579  0.7128712145258762  0.6968198688103016  1.0000
  H   H15       1.0  0.4569513080967696  0.7128816995774302  0.8031897100266363  1.0000
  H   H16       1.0  0.9569511185157469  0.28712916695558743  0.3031868574431442  1.0000
  H   H17       1.0  0.6091991305352168  0.8226392671265472  0.1266481324310362  1.0000
  H   H18       1.0  0.10919921073644191  0.17735367354499945  0.6266479466168134  1.0000
  H   H19       1.0  0.39079845774180916  0.17735882622960025  0.8733512438497684  1.0000
  H   H20       1.0  0.8907942930336291  0.8226489954859845  0.3733474837661674  1.0000
  H   H21       1.0  0.516635313414753  0.7713019628276144  0.2468205774658969  1.0000
  H   H22       1.0  0.016640990467713793  0.22867722275513816  0.7468237165590847  1.0000
  H   H23       1.0  0.48335964045265467  0.2286984183660508  0.7531773288348163  1.0000
  H   H24       1.0  0.9833500116782263  0.7713197265383589  0.25317198473540975  1.0000
  H   H25       1.0  0.40283679032962993  0.7199856943461003  0.3312116737138452  1.0000
  H   H26       1.0  0.9028259576203723  0.27999955506205515  0.831214506528525  1.0000
  H   H27       1.0  0.5971735715319967  0.2800181188910429  0.668789829756534  1.0000
  H   H28       1.0  0.0971702248270958  0.7199985382539894  0.1687829741337623  1.0000
  H   H29       1.0  0.2982997466021331  0.6505944499099672  0.4433398305675951  1.0000
  H   H30       1.0  0.7982858977401008  0.3493891560305117  0.9433416134831062  1.0000
  H   H31       1.0  0.7017055236362284  0.349412795091709  0.556661054181518  1.0000
  H   H32       1.0  0.201706377289355  0.6506055053934222  0.0566542424841856  1.0000
  H   H33       1.0  0.38524058986953247  0.18688640064905124  0.4150520018175143  1.0000
  H   H34       1.0  0.8852458074091631  0.8131006538258634  0.9150528947696727  1.0000
  H   H35       1.0  0.6147457194020733  0.8131151244242647  0.5849483035628253  1.0000
  H   H36       1.0  0.11475195806384873  0.186896295619789  0.08494880275006268  1.0000
  H   H37       1.0  0.5080221828968092  0.23892540953651317  0.3054225742466983  1.0000
  H   H38       1.0  0.008030239967283094  0.7610551181892692  0.8054267068339412  1.0000
  H   H39       1.0  0.49196653921362815  0.761070395830757  0.6945762995395268  1.0000
  H   H40       1.0  0.9919687541571421  0.23894411914972122  0.1945745650714059  1.0000
  C   C1        1.0  0.6105694600986598  0.44660576080556075  0.11934910701155844  1.0000
  C   C2        1.0  0.11057894354258485  0.5533824436202153  0.6193554663884058  1.0000
  C   C3        1.0  0.3894306739632468  0.5533889007542072  0.8806505786208659  1.0000
  C   C4        1.0  0.889426459552624  0.4466213695774145  0.38064715927637144  1.0000
  C   C5        1.0  0.5569444034851827  0.40806431754617034  0.18531415721492547  1.0000
  C   C6        1.0  0.05696149787573292  0.59192558206842  0.6853222755006385  1.0000
  C   C7        1.0  0.4430531848096778  0.591934919752724  0.8146852190718973  1.0000
  C   C8        1.0  0.9430452666920605  0.40807479933302926  0.31468166545338516  1.0000
  C   C9        1.0  0.593518930332877  0.7056608923061988  0.1448147285817285  1.0000
  C   C10       1.0  0.09353174645840312  0.2943310364829941  0.6448191765289834  1.0000
  C   C11       1.0  0.4064772521145913  0.29433720100984573  0.8551827520805517  1.0000
  C   C12       1.0  0.9064696163084279  0.705669344798345  0.35518008350710056  1.0000
  C   C13       1.0  0.54007389439213  0.6748937002562272  0.2118808198804558  1.0000
  C   C14       1.0  0.04007489648370921  0.3250919485472395  0.7118834640734377  1.0000
  C   C15       1.0  0.4599261068486059  0.3251066809930664  0.7881171248483341  1.0000
  C   C16       1.0  0.9599175115096302  0.6749061447290999  0.28811413284559967  1.0000
  C   C17       1.0  0.5202353140721528  0.5229129746002243  0.23422705715662318  1.0000
  C   C18       1.0  0.0202385988174285  0.4770693925989278  0.7342321502733427  1.0000
  C   C19       1.0  0.4797647314720308  0.47708740665712696  0.7657714678833968  1.0000
  C   C20       1.0  0.9797641697432911  0.5229287008370351  0.2657690053692434  1.0000
  C   C21       1.0  0.4612972121780531  0.48568477327987125  0.3043051466437277  1.0000
  C   C22       1.0  0.9612971510719321  0.5142976187958868  0.8043062640822354  1.0000
  C   C23       1.0  0.5387056007396325  0.5143167519923751  0.6956965893281293  1.0000
  C   C24       1.0  0.03870179869552  0.48569818670682724  0.19569442749384075  1.0000
  C   C25       1.0  0.40284439874091765  0.5995287257774181  0.34668119241022305  1.0000
  C   C26       1.0  0.9028462774144759  0.4004477763806948  0.8466869545805267  1.0000
  C   C27       1.0  0.5971595985247333  0.40047508738010873  0.6533195376360226  1.0000
  C   C28       1.0  0.09715003787199807  0.5995457411885639  0.1533122669914064  1.0000
  C   C29       1.0  0.3416041440313223  0.5608178672460371  0.41045772935383695  1.0000
  C   C30       1.0  0.841589099146397  0.43916696989776244  0.9104576707472916  1.0000
  C   C31       1.0  0.658397351717234  0.43918708983044763  0.5895432716399966  1.0000
  C   C32       1.0  0.1584046703373687  0.5608288355251435  0.0895412414670105  1.0000
  C   C33       1.0  0.39251141085831887  0.3035946863422724  0.3948332290077587  1.0000
  C   C34       1.0  0.8925180801470278  0.6963885671710416  0.8948335137904593  1.0000
  C   C35       1.0  0.6074836759372886  0.6964068388183193  0.6051664182326703  1.0000
  C   C36       1.0  0.10748591697591792  0.3036060944445539  0.10516721620768268  1.0000
  C   C37       1.0  0.458647477488917  0.3346457675081425  0.3318039599613769  1.0000
  C   C38       1.0  0.9586559456812228  0.6653349969859549  0.8318071292342069  1.0000
  C   C39       1.0  0.5413437019065201  0.6653534697030778  0.6681940625900822  1.0000
  C   C40       1.0  0.04134164257796871  0.33466195242745306  0.1681922470405937  1.0000
  N   N1        1.0  0.630794815511628  0.5937064567803106  0.09898103558095532  1.0000
  N   N2        1.0  0.1307970768588262  0.40628737717751323  0.5989843786081153  1.0000
  N   N3        1.0  0.3692053185859481  0.40629049266493683  0.9010186500634987  1.0000
  N   N4        1.0  0.8692018730513383  0.5937175798671248  0.401016313016072  1.0000
  N   N5        1.0  0.3322837869506047  0.414241254785111  0.4337849191812211  1.0000
  N   N6        1.0  0.8322832753025297  0.5857439880561088  0.9337847373770172  1.0000
  N   N7        1.0  0.6677152072451733  0.5857625583248522  0.566216352748178  1.0000
  N   N8        1.0  0.16771295141271744  0.41425181738251393  0.0662133235844706  1.0000
  O   O1        1.0  0.8195348303427393  0.10553996052408374  0.9640780191395278  1.0000
  O   O2        1.0  0.3195253032201251  0.8944515145827057  0.46408595850802925  1.0000
  O   O3        1.0  0.18046964225506915  0.894455844905089  0.035912419947244714  1.0000
  O   O4        1.0  0.6804741340101972  0.10555229860786143  0.5359211165337072  1.0000
  O   O5        1.0  0.6761454978569791  0.10067879147972293  0.07763666899921874  1.0000
  O   O6        1.0  0.17614048892583165  0.8993166196942682  0.5776458924986443  1.0000
  O   O7        1.0  0.32385783476766516  0.8993193018431926  0.9223553563484614  1.0000
  O   O8        1.0  0.8238614941785513  0.1006894814136245  0.42236149192477507  1.0000
  O   O9        1.0  0.6451993465618813  0.8733423866652006  0.9838348314705455  1.0000
  O   O10       1.0  0.1452055111228674  0.126649228177385  0.48384181583786295  1.0000
  O   O11       1.0  0.3548080263019458  0.1266534188603003  0.016160559475757518  1.0000
  O   O12       1.0  0.8547951990088123  0.8733534410863585  0.516165413882689  1.0000
  O   O13       1.0  0.9274342013013808  0.9375364262296064  0.0888343126881423  1.0000
  O   O14       1.0  0.4274417676169407  0.062461334785687925  0.5888457627531167  1.0000
  O   O15       1.0  0.07256895412728427  0.062462811003804616  0.9111553914206139  1.0000
  O   O16       1.0  0.5725615770135519  0.9375447663542501  0.4111629369775969  1.0000
