data_image0
_chemical_formula_structural       Cd4H60C44N28O12
_chemical_formula_sum              "Cd4 H60 C44 N28 O12"
_cell_length_a       12.047573828
_cell_length_b       12.841600846712097
_cell_length_c       12.95
_cell_angle_alpha    116.00383589778141
_cell_angle_beta     90.0
_cell_angle_gamma    90.0

_space_group_name_H-M_alt    "P 1"
_space_group_IT_number       1

loop_
  _space_group_symop_operation_xyz
  'x, y, z'

loop_
  _atom_site_type_symbol
  _atom_site_label
  _atom_site_symmetry_multiplicity
  _atom_site_fract_x
  _atom_site_fract_y
  _atom_site_fract_z
  _atom_site_occupancy
  Cd  Cd1       1.0  0.7600169237991707  0.8183014859106239  0.40248172153780354  1.0000
  Cd  Cd2       1.0  0.2600174976906544  0.6816988418608645  0.0975184209645832  1.0000
  Cd  Cd3       1.0  0.2399810983752175  0.18169873260369945  0.5975191456645561  1.0000
  Cd  Cd4       1.0  0.7399821845690225  0.3183013766534657  0.9024816740370055  1.0000
  H   H1        1.0  0.9527287538444966  0.1397989142364295  0.8496394019287548  1.0000
  H   H2        1.0  0.4527268376080542  0.3601994621553573  0.6503598921890796  1.0000
  H   H3        1.0  0.0472734185431065  0.8602004378452079  0.1503603163813594  1.0000
  H   H4        1.0  0.5472720146089785  0.6397998899262802  0.3496398261210274  1.0000
  H   H5        1.0  0.0369617988117312  0.24715945506041243  0.8393287472975216  1.0000
  H   H6        1.0  0.5369603948776103  0.25283978776406  0.6606716957125653  1.0000
  H   H7        1.0  0.9630395435332274  0.7528407634539107  0.1606705755032961  1.0000
  H   H8        1.0  0.4630384573394295  0.7471595643175704  0.33932956699909056  1.0000
  H   H9        1.0  0.16657959757306168  0.5410490907246484  0.3965098802034176  1.0000
  H   H10       1.0  0.6665790236815781  0.9589512370468327  0.1034910344997399  1.0000
  H   H11       1.0  0.8334200846866152  0.4589511277896748  0.6034902147981711  1.0000
  H   H12       1.0  0.333420658578099  0.041049847900176004  0.8965094371933303  1.0000
  H   H13       1.0  0.0694496677875023  0.5492368796278697  0.5030896919077747  1.0000
  H   H14       1.0  0.5694490938960186  0.9507643145763041  0.9969108272860935  1.0000
  H   H15       1.0  0.9305500144721748  0.45076420531914624  0.4969107797853027  1.0000
  H   H16       1.0  0.4305505883636584  0.04923677037070461  0.0030896444069767994  1.0000
  H   H17       1.0  0.9403561382350745  0.7446417109257483  0.5877422374660809  1.0000
  H   H18       1.0  0.440356712126551  0.7553577504130473  0.9122567561440534  1.0000
  H   H19       1.0  0.0596435440246026  0.2553576411558893  0.4122574808440334  1.0000
  H   H20       1.0  0.5596438001757633  0.2446424681012758  0.08774333885753549  1.0000
  H   H21       1.0  0.9863537812386838  0.8612557528593998  0.5611527173373646  1.0000
  H   H22       1.0  0.4863551851728047  0.6387428420467104  0.9388466717820592  1.0000
  H   H23       1.0  0.013645901020993298  0.1387453320876091  0.4388469821549349  1.0000
  H   H24       1.0  0.5136453271295096  0.3612573764676128  0.06115342321952966  1.0000
  H   H25       1.0  0.1390097312462828  0.7412591577111272  0.4374770393342756  1.0000
  H   H26       1.0  0.6390108174400808  0.758741170060361  0.06252310316811097  1.0000
  H   H27       1.0  0.860989120970757  0.2587410608031959  0.562523055667313  1.0000
  H   H28       1.0  0.36098969486224053  0.2412590484539621  0.9374769918334775  1.0000
  H   H29       1.0  0.1458036302643393  0.742585666156721  0.5751394682755943  1.0000
  H   H30       1.0  0.6458047164581373  0.7574155280474602  0.9248610509182739  1.0000
  H   H31       1.0  0.8541960519953378  0.2574154187902948  0.4248610034174831  1.0000
  H   H32       1.0  0.3541957958441841  0.24258469046687037  0.07513904408331482  1.0000
  H   H33       1.0  0.1903395681768316  0.3487937422482759  0.9969748707225108  1.0000
  H   H34       1.0  0.690338994285348  0.15120636700888923  0.503025948979058  1.0000
  H   H35       1.0  0.8096601140828453  0.6512064762660543  0.0030259964798489067  1.0000
  H   H36       1.0  0.3096598579316847  0.8487938515054338  0.49697491822330864  1.0000
  H   H37       1.0  0.1897485778163102  0.3207195902861457  0.119088232312393  1.0000
  H   H38       1.0  0.6897471738821892  0.1792805189710123  0.38091104298763406  1.0000
  H   H39       1.0  0.8102527645286485  0.6792806282281774  0.8809118626892027  1.0000
  H   H40       1.0  0.3102525083774879  0.8207196995433109  0.6190882798131837  1.0000
  H   H41       1.0  0.6243215528191257  0.5983601473164271  0.12475006695096622  1.0000
  H   H42       1.0  0.12432046662532059  0.9016393140223757  0.375249698859939  1.0000
  H   H43       1.0  0.3756789594831957  0.4016392047652105  0.8752496513591409  1.0000
  H   H44       1.0  0.8756792156343564  0.098360038059262  0.6247492472493974  1.0000
  H   H45       1.0  0.011667079364421799  0.467462962518269  0.28072596703103153  1.0000
  H   H46       1.0  0.5116665054729381  0.0325380131715818  0.21927445716124785  1.0000
  H   H47       1.0  0.9883326028952552  0.5325372559960542  0.7192733557697862  1.0000
  H   H48       1.0  0.4883331767867388  0.9674630717754269  0.7807260145318294  1.0000
  H   H49       1.0  0.04257869736458989  0.17400827606348915  0.0356567131707806  1.0000
  H   H50       1.0  0.5425781234731133  0.3259918331936689  0.4643441065307883  1.0000
  H   H51       1.0  0.9574218149377245  0.8259919424508341  0.9643433818308083  1.0000
  H   H52       1.0  0.4574215587865638  0.6740083853206542  0.5356567606715785  1.0000
  H   H53       1.0  0.1464394429274805  0.1425143142811578  0.9295504549570025  1.0000
  H   H54       1.0  0.6464388690359968  0.35748666140869295  0.5704499692352698  1.0000
  H   H55       1.0  0.8535618994174783  0.8574859042331653  0.07044964004458619  1.0000
  H   H56       1.0  0.3535608132236803  0.6425144235383158  0.4295505024578005  1.0000
  H   H57       1.0  0.0811233874930508  0.49222907447695263  0.1543952467920562  1.0000
  H   H58       1.0  0.5811236436442115  0.0077719012128981  0.3456051774002161  1.0000
  H   H59       1.0  0.9188754647239817  0.5077711440373704  0.8456048482095325  1.0000
  H   H60       1.0  0.4188760386154655  0.9922291837341178  0.654395294292854  1.0000
  C   C1        1.0  0.9464544615198205  0.3972767161802722  0.0621391101443649  1.0000
  C   C2        1.0  0.44645337532601553  0.1027225266442073  0.4378605606649514  1.0000
  C   C3        1.0  0.0535460507825007  0.6027235023340509  0.9378609848572308  1.0000
  C   C4        1.0  0.5535454768910171  0.8972768254374303  0.5621391576451557  1.0000
  C   C5        1.0  0.706418580330279  0.5765251771418178  0.14413196844299844  1.0000
  C   C6        1.0  0.2064183241791184  0.9234742841969779  0.3558670251671359  1.0000
  C   C7        1.0  0.2935811019293979  0.4234733085071269  0.8558666009748634  1.0000
  C   C8        1.0  0.7935813580805586  0.0765259343173454  0.6441322976336821  1.0000
  C   C9        1.0  0.9280042736916769  0.6196587956570454  0.3405403988383355  1.0000
  C   C10       1.0  0.4280040175405162  0.8803406656817501  0.1594593669725697  1.0000
  C   C11       1.0  0.0719954085680001  0.3803414228572778  0.6594589239624823  1.0000
  C   C12       1.0  0.5719956647191609  0.11965955283257303  0.8405407280290262  1.0000
  C   C13       1.0  0.8628965589601876  0.48594830392040234  0.1260213670116173  1.0000
  C   C14       1.0  0.3628954727663896  0.0140509389040702  0.3739783037976918  1.0000
  C   C15       1.0  0.1371039533421339  0.5140519145939209  0.8739779557892005  1.0000
  C   C16       1.0  0.6371042094932875  0.9859484131775603  0.6260221867131861  1.0000
  C   C17       1.0  0.8573468938612621  0.57848158215171  0.23687751849940497  1.0000
  C   C18       1.0  0.3573466377101013  0.9215178791870856  0.2631222473115001  1.0000
  C   C19       1.0  0.1426536184410594  0.4215177699299276  0.7631221998107094  1.0000
  C   C20       1.0  0.6426538745922201  0.0784823393272376  0.7368778476900885  1.0000
  C   C21       1.0  0.9965633057251962  0.22121499464581262  0.9011116458884201  1.0000
  C   C22       1.0  0.4965638796166729  0.2787842481786598  0.598887252720118  1.0000
  C   C23       1.0  0.0034380366197695  0.7787843574358249  0.09888807242168707  1.0000
  C   C24       1.0  0.5034374627282858  0.7212159703356633  0.40111207008069977  1.0000
  C   C25       1.0  0.0883447584713153  0.5812775604364404  0.43885835287002817  1.0000
  C   C26       1.0  0.5883441845798316  0.9187227673350478  0.0611417896323586  1.0000
  C   C27       1.0  0.9116549237883618  0.4187235245105754  0.5611421188230423  1.0000
  C   C28       1.0  0.41165549767984533  0.0812774511792753  0.93885830536923  1.0000
  C   C29       1.0  0.9812124971192161  0.7663692434470164  0.5232116957286194  1.0000
  C   C30       1.0  0.48121390105333717  0.7336302178917792  0.9767888422830565  1.0000
  C   C31       1.0  0.0187871851404608  0.23363184149999236  0.4767887759644509  1.0000
  C   C32       1.0  0.5187874412916216  0.266370000622544  0.023211252718532215  1.0000
  C   C33       1.0  0.0968244740936086  0.7127561215683613  0.49600393864164255  1.0000
  C   C34       1.0  0.5968255602874066  0.7872433397704414  0.0039958271692625835  1.0000
  C   C35       1.0  0.9031743781234312  0.2872440969459618  0.5039961563599461  1.0000
  C   C36       1.0  0.4031757820575521  0.2127568787438818  0.9960042678323332  1.0000
  C   C37       1.0  0.137128024578729  0.32297404814077174  0.05091471558920801  1.0000
  C   C38       1.0  0.6371274506872453  0.17702519468370073  0.44908495522010833  1.0000
  C   C39       1.0  0.8628724877235925  0.6770261703735514  0.9490861516131587  1.0000
  C   C40       1.0  0.3628730616150762  0.8229741573979297  0.5509147630900058  1.0000
  C   C41       1.0  0.08339023394611189  0.2063539411782997  0.9793139540899173  1.0000
  C   C42       1.0  0.5833888300119909  0.2936461680788653  0.5206860934108803  1.0000
  C   C43       1.0  0.9166102783562025  0.7936462773360233  0.02068614091167821  1.0000
  C   C44       1.0  0.4166100222050417  0.7063540504354648  0.4793140015907084  1.0000
  N   N1        1.0  0.0012317832795077  0.5445971325827088  0.3509883391491825  1.0000
  N   N2        1.0  0.5012320394306684  0.9554023287560867  0.14901142666172953  1.0000
  N   N3        1.0  0.9987678989801694  0.4554030859316143  0.6490117558524132  1.0000
  N   N4        1.0  0.4987676428290087  0.0445970233255508  0.8509882916483846  1.0000
  N   N5        1.0  0.9144828790668598  0.308579135459496  0.9681073285944846  1.0000
  N   N6        1.0  0.414482622915699  0.19142010736498352  0.5318931144156024  1.0000
  N   N7        1.0  0.0855176332354546  0.6914210830548271  0.03189199420633317  1.0000
  N   N8        1.0  0.585517059343978  0.808579244716654  0.4681073760952827  1.0000
  N   N9        1.0  0.7657923604965048  0.4861571141982495  0.06989130023740836  1.0000
  N   N10       1.0  0.2657912743026998  0.0138429950589085  0.4301087472633895  1.0000
  N   N11       1.0  0.2342081518058166  0.513842237883388  0.9301076458719352  1.0000
  N   N12       1.0  0.7342084079569773  0.9861572234554146  0.5698913477381992  1.0000
  N   N13       1.0  0.7582730042100535  0.6353308301206867  0.24518102135230174  1.0000
  N   N14       1.0  0.2582727480589  0.8646686312181091  0.25481797225783254  1.0000
  N   N15       1.0  0.24172667804962336  0.36466765552825825  0.7548175480655601  1.0000
  N   N16       1.0  0.7417277642434215  0.1353315872962142  0.7451821227437561  1.0000
  N   N17       1.0  0.9126916470471969  0.7258028649868393  0.419943340411919  1.0000
  N   N18       1.0  0.4126930509813178  0.7741965963519561  0.08005642539899337  1.0000
  N   N19       1.0  0.08730720516984289  0.2741973535274838  0.5800567545896768  1.0000
  N   N20       1.0  0.5873074613209965  0.22580362216236693  0.9199436696026024  1.0000
  N   N21       1.0  0.813396966053439  0.9709487304799397  0.29385843277211887  1.0000
  N   N22       1.0  0.3133975399449227  0.5290515972915415  0.20614170973026794  1.0000
  N   N23       1.0  0.186602716206238  0.029051488034383503  0.7061416622294701  1.0000
  N   N24       1.0  0.6866029723573988  0.47094862122278164  0.7938583852713207  1.0000
  N   N25       1.0  0.0514443828150348  0.4107107550103635  0.10564920960842977  1.0000
  N   N26       1.0  0.5514438089235512  0.0892893542467945  0.394350837892368  1.0000
  N   N27       1.0  0.9485552994446421  0.589288597071274  0.8943489643001356  1.0000
  N   N28       1.0  0.4485550432934886  0.9107117307002144  0.6056511782022511  1.0000
  O   O1        1.0  0.8913138988236113  0.9570026299311394  0.35198053489830977  1.0000
  O   O2        1.0  0.3913136426724506  0.5429976978403488  0.14802037980484778  1.0000
  O   O3        1.0  0.1086857834360657  0.0429975885831837  0.6480195601032789  1.0000
  O   O4        1.0  0.6086860395872264  0.4570025206739743  0.8519797151967408  1.0000
  O   O5        1.0  0.7223031063545378  0.9118086344834424  0.28179061787824367  1.0000
  O   O6        1.0  0.2223036802460143  0.5881916932880458  0.2182095246241431  1.0000
  O   O7        1.0  0.2776965759051393  0.08819245046357342  0.7182098538148265  1.0000
  O   O8        1.0  0.7776968320562999  0.4118076587935917  0.781790965886742  1.0000
  O   O9        1.0  0.8208208674361472  0.0380736516163083  0.24767573362039028  1.0000
  O   O10       1.0  0.3208214413276309  0.4619255912081641  0.2523239371889261  1.0000
  O   O11       1.0  0.1791788148235298  0.9619257004653292  0.7523239846897167  1.0000
  O   O12       1.0  0.679178240932046  0.538074627306159  0.7476761578126696  1.0000
