data_image0
_chemical_formula_structural       Zn2H8C26N6O8
_chemical_formula_sum              "Zn2 H8 C26 N6 O8"
_cell_length_a       10.940414236009513
_cell_length_b       13.214939521013077
_cell_length_c       14.427446310024903
_cell_angle_alpha    89.99984422079118
_cell_angle_beta     89.99985107252094
_cell_angle_gamma    89.9999751209123

_space_group_name_H-M_alt    "P 1"
_space_group_IT_number       1

loop_
  _space_group_symop_operation_xyz
  'x, y, z'

loop_
  _atom_site_type_symbol
  _atom_site_label
  _atom_site_symmetry_multiplicity
  _atom_site_fract_x
  _atom_site_fract_y
  _atom_site_fract_z
  _atom_site_occupancy
  Zn  Zn1       1.0  0.4999992998664028  0.3936082543102942  0.49996482393886055  1.0000
  Zn  Zn2       1.0  0.4999983271333904  0.6063931857599415  0.49996039463624703  1.0000
  H   H1        1.0  0.8927184232267964  0.3373090050749781  0.5150350887584594  1.0000
  H   H2        1.0  0.8927192474941639  0.6626899871813878  0.5150443787513838  1.0000
  H   H3        1.0  0.10728015602111181  0.3373076254822395  0.5150372507849141  1.0000
  H   H4        1.0  0.10728006625578254  0.662688607596863  0.5150409957918997  1.0000
  H   H5        1.0  0.893445802209996  0.4037306465258367  0.6204472828815283  1.0000
  H   H6        1.0  0.8934475771741932  0.5962612287393299  0.6204525830572862  1.0000
  H   H7        1.0  0.10655146582472241  0.4037315373411944  0.6204480600965424  1.0000
  H   H8        1.0  0.10655415483604  0.5962613628392434  0.6204505877789401  1.0000
  C   C1        1.0  0.5000007902517397  0.5000080252768769  0.6802765708813469  1.0000
  C   C2        1.0  0.2620256448825913  0.49999394687336735  0.5021940084243255  1.0000
  C   C3        1.0  0.49999957642435094  0.49999416943086317  0.3210813336662498  1.0000
  C   C4        1.0  0.9295341364693429  0.4046607515883097  0.5494284407866985  1.0000
  C   C5        1.0  0.9295331698208147  0.595337371479211  0.5494323570758297  1.0000
  C   C6        1.0  0.07046337394853451  0.404660141264749  0.549429289292334  1.0000
  C   C7        1.0  0.0704669775144282  0.5953367611578955  0.5494311262068834  1.0000
  C   C8        1.0  0.92459305802511  0.5000045801561869  0.397480436159384  1.0000
  C   C9        1.0  0.07540583352177781  0.5000032114310572  0.3974798886573013  1.0000
  C   C10       1.0  0.8793185423386732  0.4999983822369672  0.5020270491126482  1.0000
  C   C11       1.0  0.1206799916429588  0.4999969980792614  0.5020277984222972  1.0000
  C   C12       1.0  0.5000037073048988  0.4999975995858109  0.04348473659239  1.0000
  C   C13       1.0  0.5000051898832896  0.5000109072434001  0.7800253392331626  1.0000
  C   C14       1.0  0.5000032163378096  0.5000032164765145  0.8650875168216176  1.0000
  C   C15       1.0  0.5000057996345718  0.49999854122990683  0.9579667396068885  1.0000
  C   C16       1.0  0.8779404540484919  0.4106383782543476  0.3484344941005375  1.0000
  C   C17       1.0  0.8779404047315397  0.589377750926552  0.3484405049374503  1.0000
  C   C18       1.0  0.12206048263318796  0.4106354801899244  0.34843385444074937  1.0000
  C   C19       1.0  0.12206408948534182  0.5893733394228775  0.3484398652759779  1.0000
  C   C20       1.0  0.5000017204276902  0.4999967079687906  0.1363417794299764  1.0000
  C   C21       1.0  0.4999997469895874  0.4999950710490708  0.22134018966202265  1.0000
  C   C22       1.0  0.4999991779180562  0.8513515560429993  0.4974364210243537  1.0000
  C   C23       1.0  0.49999754368491284  0.14865064809128373  0.4974331557944893  1.0000
  C   C24       1.0  0.4999991519617596  0.9537810846584164  0.49609163147168533  1.0000
  C   C25       1.0  0.4999975742401617  0.046221123382771595  0.49608862672718607  1.0000
  C   C26       1.0  0.7379719744868751  0.49999235232486683  0.5021956177038547  1.0000
  N   N1        1.0  0.4999973703806263  0.763147592594379  0.49964967605517074  1.0000
  N   N2        1.0  0.4999984296012344  0.23685082150413458  0.4996524246288487  1.0000
  N   N3        1.0  0.8388195337593275  0.340042581877178  0.3102878855031719  1.0000
  N   N4        1.0  0.8388212735765708  0.6599751849096978  0.3102944099295755  1.0000
  N   N5        1.0  0.16118065829361683  0.3400381570379026  0.310289247936602  1.0000
  N   N6        1.0  0.16118605428073354  0.6599707600708059  0.31029507923603467  1.0000
  O   O1        1.0  0.49999905311006654  0.4135022001747545  0.6410507508113312  1.0000
  O   O2        1.0  0.49999991943104055  0.5865169912326706  0.6410470651993662  1.0000
  O   O3        1.0  0.6862765150823265  0.4141100158256067  0.5021528043178307  1.0000
  O   O4        1.0  0.6862709834459012  0.5858830304824424  0.5021518927845747  1.0000
  O   O5        1.0  0.31372297990338893  0.41410629572055774  0.5021503998005556  1.0000
  O   O6        1.0  0.3137265886833235  0.5858815805297584  0.502152260748808  1.0000
  O   O7        1.0  0.4999995332239068  0.41355936200347543  0.3602865799373873  1.0000
  O   O8        1.0  0.4999976574523829  0.5864379435818919  0.3602849738713943  1.0000
