data_image0
_chemical_formula_structural       Zn6H36C56N24O16
_chemical_formula_sum              "Zn6 H36 C56 N24 O16"
_cell_length_a       13.216339134865354
_cell_length_b       13.216331972697501
_cell_length_c       13.096530175246285
_cell_angle_alpha    84.61810966320286
_cell_angle_beta     84.61805726554138
_cell_angle_gamma    73.47155083302651

_space_group_name_H-M_alt    "P 1"
_space_group_IT_number       1

loop_
  _space_group_symop_operation_xyz
  'x, y, z'

loop_
  _atom_site_type_symbol
  _atom_site_label
  _atom_site_symmetry_multiplicity
  _atom_site_fract_x
  _atom_site_fract_y
  _atom_site_fract_z
  _atom_site_occupancy
  Zn  Zn1       1.0  0.36058236012975453  0.6394203384199882  0.7499987549410109  1.0000
  Zn  Zn2       1.0  0.6394169626279338  0.36057894231189613  0.2500008318224544  1.0000
  Zn  Zn3       1.0  0.2742617265351513  0.38780633382229  0.9906329825012677  1.0000
  Zn  Zn4       1.0  0.6121968187652203  0.7257354106894025  0.5093641613309572  1.0000
  Zn  Zn5       1.0  0.7257375951157601  0.6121929458038194  0.009368131592637474  1.0000
  Zn  Zn6       1.0  0.3878024867082176  0.27426539684056167  0.49063299328043547  1.0000
  H   H1        1.0  0.4499723355922144  0.34085319499290984  0.804917700616116  1.0000
  H   H2        1.0  0.6591462522138658  0.5500310395698803  0.695086732201908  1.0000
  H   H3        1.0  0.5500341337509128  0.6591418972289488  0.19508466316737122  1.0000
  H   H4        1.0  0.3408522108711908  0.44997378789277304  0.3049154695500462  1.0000
  H   H5        1.0  0.3013100338823024  0.13796432857399307  0.988521739356969  1.0000
  H   H6        1.0  0.8620362373944914  0.6986866990056197  0.5114755488780318  1.0000
  H   H7        1.0  0.6986916484368494  0.8620350774413764  0.011483723024888117  1.0000
  H   H8        1.0  0.13796308646998062  0.30131258283204687  0.48852251055499357  1.0000
  H   H9        1.0  0.536776694195666  0.13705895682744534  0.7427652628779313  1.0000
  H   H10       1.0  0.8629429709889963  0.4632249093850829  0.7572397244214102  1.0000
  H   H11       1.0  0.4632242381790733  0.8629376131807971  0.25723595420048884  1.0000
  H   H12       1.0  0.13705472044027542  0.5367786044454163  0.24276190919678697  1.0000
  H   H13       1.0  0.2990798118318239  0.9810211176294815  0.9365808447667804  1.0000
  H   H14       1.0  0.018979730702597012  0.7009194525132469  0.5634104861537993  1.0000
  H   H15       1.0  0.700917110708609  0.01898108533330852  0.0634164023915602  1.0000
  H   H16       1.0  0.9810187619058723  0.29908308834606584  0.4365904000023306  1.0000
  H   H17       1.0  0.3480567707370099  0.7854861006048991  0.9467820731027602  1.0000
  H   H18       1.0  0.21451405190820347  0.6519442325117237  0.553208276490892  1.0000
  H   H19       1.0  0.6519354327450985  0.21451507982211362  0.05321647570573873  1.0000
  H   H20       1.0  0.7854836523136157  0.3480585220664024  0.4467888457141953  1.0000
  H   H21       1.0  0.6592535535773365  0.7783895583387731  0.8087465308865518  1.0000
  H   H22       1.0  0.22161329848948702  0.3407542297908748  0.6912626262270295  1.0000
  H   H23       1.0  0.3407442197815059  0.2216070890470263  0.1912603199268119  1.0000
  H   H24       1.0  0.778387571453493  0.6592476820755379  0.3087327511474101  1.0000
  H   H25       1.0  0.6127295050145777  0.9722661994913718  0.8021229546308604  1.0000
  H   H26       1.0  0.0277365136032799  0.38727595816798993  0.6978842607026865  1.0000
  H   H27       1.0  0.38727064235843767  0.027729815584201713  0.1978829693921327  1.0000
  H   H28       1.0  0.9722643736239578  0.6127244269003425  0.3021135488238187  1.0000
  H   H29       1.0  0.0629672455129509  0.5314396923155442  0.9446159206950001  1.0000
  H   H30       1.0  0.4685589606673375  0.937037816071623  0.5553810763855936  1.0000
  H   H31       1.0  0.9370336885219575  0.46855687935136064  0.0553830053877604  1.0000
  H   H32       1.0  0.5314443384629257  0.06295888640764954  0.4446160886633663  1.0000
  H   H33       1.0  0.012630755507018402  0.7447226630377416  0.8141816466918996  1.0000
  H   H34       1.0  0.2552780838554085  0.987367169812323  0.6858159523322129  1.0000
  H   H35       1.0  0.987366984390093  0.25527703905  0.18581881248688595  1.0000
  H   H36       1.0  0.7447236045510268  0.01263224228481606  0.3141811097322318  1.0000
  C   C1        1.0  0.4311210689414296  0.26771228967273675  0.8317094353812848  1.0000
  C   C2        1.0  0.7322913846283473  0.5688792829369544  0.6682933308474902  1.0000
  C   C3        1.0  0.568882196791691  0.7322866955396632  0.1682943909200247  1.0000
  C   C4        1.0  0.2677071085335072  0.4311232584752389  0.33170679164342687  1.0000
  C   C5        1.0  0.3518915387176733  0.16474184882886786  0.9284685061607618  1.0000
  C   C6        1.0  0.8352589140329274  0.6481083447335577  0.5715292202379133  1.0000
  C   C7        1.0  0.648111728122224  0.8352571374893142  0.071533792810115  1.0000
  C   C8        1.0  0.16474038086151674  0.35189322426033687  0.4284693911257094  1.0000
  C   C9        1.0  0.4767153473781107  0.1670296052954682  0.8028921300673844  1.0000
  C   C10       1.0  0.8329725244502342  0.5232892995790689  0.6971095430339036  1.0000
  C   C11       1.0  0.5232879389596051  0.8329678564361842  0.1971095463946853  1.0000
  C   C12       1.0  0.1670259475536399  0.4767147647609846  0.30289349296147344  1.0000
  C   C13       1.0  0.4526737246857593  0.9895902847064303  0.8683921237885529  1.0000
  C   C14       1.0  0.0104124601461208  0.547325677079698  0.6316081080736426  1.0000
  C   C15       1.0  0.5473248141769889  0.010408442198560347  0.1316106425890524  1.0000
  C   C16       1.0  0.989586051960167  0.4526753391930851  0.36839215557368726  1.0000
  C   C17       1.0  0.3783859845916241  0.9368269931358879  0.909517476913912  1.0000
  C   C18       1.0  0.06317394583084732  0.6216163998088714  0.590478073862812  1.0000
  C   C19       1.0  0.6216125091236222  0.06317554882920003  0.09048188191178498  1.0000
  C   C20       1.0  0.936824547884406  0.37838614215621635  0.409521284962878  1.0000
  C   C21       1.0  0.40552547699319785  0.8268769836959535  0.9143843375930558  1.0000
  C   C22       1.0  0.17312530752392524  0.5944767167137356  0.5856110370389443  1.0000
  C   C23       1.0  0.5944682781659054  0.17312606031988034  0.08561694539159251  1.0000
  C   C24       1.0  0.8268723861189076  0.4055267993283136  0.4143875419183729  1.0000
  C   C25       1.0  0.5064725717243946  0.7685115393886119  0.8777094019452321  1.0000
  C   C26       1.0  0.23148835221790887  0.49353405861281624  0.6222887578371755  1.0000
  C   C27       1.0  0.4935228019705776  0.2314880307809872  0.1222943455977941  1.0000
  C   C28       1.0  0.7685116981548461  0.5064703519170944  0.3777064621776988  1.0000
  C   C29       1.0  0.5799722810972413  0.8222119483796106  0.8361409556278331  1.0000
  C   C30       1.0  0.1777894219430394  0.42003329235256354  0.6638647905188079  1.0000
  C   C31       1.0  0.4200255117594054  0.1777831744196661  0.16386527267673054  1.0000
  C   C32       1.0  0.8222106367951484  0.5799703545018599  0.3361320274047088  1.0000
  C   C33       1.0  0.5536028544204117  0.9321367106136833  0.832083151576967  1.0000
  C   C34       1.0  0.06786640438877362  0.4464031404382069  0.6679216949030077  1.0000
  C   C35       1.0  0.4463988568687683  0.06786040824545125  0.1679217588742929  1.0000
  C   C36       1.0  0.9321344633406526  0.5535987692166485  0.33207673713231156  1.0000
  C   C37       1.0  0.5338679397505999  0.6527874233043461  0.8825146361739513  1.0000
  C   C38       1.0  0.3472153581069436  0.4661352503379559  0.6174857956322128  1.0000
  C   C39       1.0  0.4661297895675177  0.3472130402473255  0.11748727975707139  1.0000
  C   C40       1.0  0.6527855207548685  0.5338658984058567  0.3825104159856565  1.0000
  C   C41       1.0  0.18901138614441496  0.5887092715109715  0.8581529212484754  1.0000
  C   C42       1.0  0.4112949691226292  0.8109905555145004  0.6418422836821877  1.0000
  C   C43       1.0  0.8109887082690577  0.41129132285306697  0.1418472336487469  1.0000
  C   C44       1.0  0.588705936495643  0.18900830386152706  0.35815643066595726  1.0000
  C   C45       1.0  0.07759801349737933  0.5966982741218343  0.8937120321543263  1.0000
  C   C46       1.0  0.4033023908588263  0.9224055638824494  0.6062849403109851  1.0000
  C   C47       1.0  0.9224029015931097  0.40329982268448794  0.1062867527720215  1.0000
  C   C48       1.0  0.5967008887736256  0.07759266318335269  0.3937128472467748  1.0000
  C   C49       1.0  0.9973652035152654  0.6791084298696006  0.8641654062701393  1.0000
  C   C50       1.0  0.320889351142391  0.0026361225155184277  0.6358316364749753  1.0000
  C   C51       1.0  0.0026349198682354  0.3208898773382031  0.13583419669647873  1.0000
  C   C52       1.0  0.679112317766233  0.9973648141681506  0.36416604809827646  1.0000
  C   C53       1.0  0.8850969451402977  0.6890299996470471  0.9014545408535498  1.0000
  C   C54       1.0  0.31096664187281686  0.11490492029936655  0.5985471994723994  1.0000
  C   C55       1.0  0.114903186608629  0.310967543885276  0.0985466600217109  1.0000
  C   C56       1.0  0.6890358404541672  0.8850942836078414  0.4014459898909024  1.0000
  N   N1        1.0  0.35335525553195174  0.26487125143126633  0.9097595437089083  1.0000
  N   N2        1.0  0.7351289893411845  0.6466451549064232  0.5902412849040175  1.0000
  N   N3        1.0  0.6466511831809783  0.7351261262881577  0.09024566300084301  1.0000
  N   N4        1.0  0.2648695038206768  0.3533573865057774  0.4097588375868924  1.0000
  N   N5        1.0  0.42626380107286377  0.10194757125877622  0.8650019621700623  1.0000
  N   N6        1.0  0.8980549469547087  0.5737360353774431  0.6349978274867567  1.0000
  N   N7        1.0  0.5737371017784627  0.8980512853528066  0.13500057050417516  1.0000
  N   N8        1.0  0.10194276452576641  0.42626595441942056  0.3650024199574134  1.0000
  N   N9        1.0  0.619847498569179  0.5854870219206134  0.9224888555294299  1.0000
  N   N10       1.0  0.4145152852708662  0.3801544690725578  0.5775131871744749  1.0000
  N   N11       1.0  0.3801502296421617  0.41451344052527606  0.07751458773202562  1.0000
  N   N12       1.0  0.5854855941443305  0.6198466802241498  0.42248226077816753  1.0000
  N   N13       1.0  0.6140688787656643  0.4859230057391172  0.9116260011492584  1.0000
  N   N14       1.0  0.514080013756832  0.38592951441738416  0.5883755001944238  1.0000
  N   N15       1.0  0.3859304244942123  0.514077799579297  0.08837420812301391  1.0000
  N   N16       1.0  0.4859192738789559  0.6140728193577729  0.4116199859301233  1.0000
  N   N17       1.0  0.5285920464584208  0.4923701308892774  0.8666147520456136  1.0000
  N   N18       1.0  0.5076359232697315  0.4714059463224841  0.6333857839772749  1.0000
  N   N19       1.0  0.4714072662736656  0.507629911859425  0.13338552780486168  1.0000
  N   N20       1.0  0.4923657467456763  0.52859499146696  0.3666103732655373  1.0000
  N   N21       1.0  0.4764339352860106  0.5961059925921717  0.8474100619794528  1.0000
  N   N22       1.0  0.40389803026319276  0.5235672906884686  0.6525889107990253  1.0000
  N   N23       1.0  0.5235646046835143  0.4038927354186015  0.1525911770677126  1.0000
  N   N24       1.0  0.5961020568916311  0.47643406845683234  0.3474081188591143  1.0000
  O   O1        1.0  0.262208451153434  0.5048770730503945  0.8814096901893933  1.0000
  O   O2        1.0  0.49512607767005795  0.737795974536155  0.6185891248239911  1.0000
  O   O3        1.0  0.7377924127022553  0.4951248327342481  0.1185940875024585  1.0000
  O   O4        1.0  0.5048732567734079  0.2622025458375744  0.3814074778568042  1.0000
  O   O5        1.0  0.20991279783187622  0.6654062218005876  0.8018578648142026  1.0000
  O   O6        1.0  0.3345962169567899  0.7900892225484525  0.6981360018689814  1.0000
  O   O7        1.0  0.7900865059813926  0.3345945840707144  0.198141580792857  1.0000
  O   O8        1.0  0.6654062598362958  0.20990997582987347  0.30186482414650573  1.0000
  O   O9        1.0  0.817697745368193  0.7769244325593833  0.89155383579174  1.0000
  O   O10       1.0  0.22307349698028395  0.18230134278452673  0.6084511745705469  1.0000
  O   O11       1.0  0.18230159522714473  0.22307332192730903  0.1084474194585709  1.0000
  O   O12       1.0  0.7769297715197896  0.817697645192318  0.39154883340467717  1.0000
  O   O13       1.0  0.8658766861791707  0.6025720962275612  0.9442786072057742  1.0000
  O   O14       1.0  0.39742288537300413  0.13412630891008348  0.555718568445748  1.0000
  O   O15       1.0  0.13412345504197282  0.39742468473504994  0.0557226642476962  1.0000
  O   O16       1.0  0.6025795858216014  0.8658736559081743  0.44427684133500384  1.0000
