data_image0
_chemical_formula_structural       Al4H28C64Cl8O20
_chemical_formula_sum              "Al4 H28 C64 Cl8 O20"
_cell_length_a       6.668646065232135
_cell_length_b       23.110032422234802
_cell_length_c       26.394149536478054
_cell_angle_alpha    89.99999089397296
_cell_angle_beta     89.99929465332389
_cell_angle_gamma    89.99942781165811

_space_group_name_H-M_alt    "P 1"
_space_group_IT_number       1

loop_
  _space_group_symop_operation_xyz
  'x, y, z'

loop_
  _atom_site_type_symbol
  _atom_site_label
  _atom_site_symmetry_multiplicity
  _atom_site_fract_x
  _atom_site_fract_y
  _atom_site_fract_z
  _atom_site_occupancy
  Al  Al1       1.0  0.2639939280863857  0.7509634579795946  0.2500011394156871  1.0000
  Al  Al2       1.0  0.7359972143156526  0.24903563636699022  0.7500006243226522  1.0000
  Al  Al3       1.0  0.7640010012270865  0.749035365887579  0.2500014812514024  1.0000
  Al  Al4       1.0  0.2359931402709279  0.25096286302915866  0.7500014190977494  1.0000
  H   H1        1.0  0.27864066945667787  0.3866328861244667  0.6529961319738006  1.0000
  H   H2        1.0  0.7213654686147988  0.613363611923667  0.34700222189432844  1.0000
  H   H3        1.0  0.721358093234599  0.6133688209980406  0.15299710751409623  1.0000
  H   H4        1.0  0.27863454867716086  0.3866337350462388  0.8470042773497609  1.0000
  H   H5        1.0  0.7786443603349367  0.11336937281873818  0.8470023659964098  1.0000
  H   H6        1.0  0.2213647768100984  0.8866323177748755  0.15299409350736679  1.0000
  H   H7        1.0  0.22135865590884404  0.8866374938214889  0.3470045121140473  1.0000
  H   H8        1.0  0.7786249888750731  0.11336376410014277  0.6529892953274086  1.0000
  H   H9        1.0  0.705381973405778  0.4062682821507054  0.5348776094976202  1.0000
  H   H10       1.0  0.29464665809551593  0.5937282158622567  0.4651161978726676  1.0000
  H   H11       1.0  0.2946149186752223  0.5937312815195882  0.0348769138530969  1.0000
  H   H12       1.0  0.7053672263960208  0.4062708418289063  0.9651229555401244  1.0000
  H   H13       1.0  0.20538305955606972  0.09372901591572712  0.9651260467475922  1.0000
  H   H14       1.0  0.7946350745723336  0.9062705110997771  0.0348863253593237  1.0000
  H   H15       1.0  0.79462932518895  0.9062713399147027  0.4651203052324462  1.0000
  H   H16       1.0  0.2053543192385163  0.09373078343071482  0.5348878993388695  1.0000
  H   H17       1.0  0.2934792539649891  0.46031775000513153  0.584104699656116  1.0000
  H   H18       1.0  0.7065673720897506  0.5396796134040613  0.41589289640389643  1.0000
  H   H19       1.0  0.7065467835016149  0.5396861323640607  0.0841061120938207  1.0000
  H   H20       1.0  0.2934503570653817  0.46031469282295484  0.9158967882503717  1.0000
  H   H21       1.0  0.79346996816615  0.0396874910212404  0.9158948877686085  1.0000
  H   H22       1.0  0.20655116536065776  0.960315497690786  0.08410308720335989  1.0000
  H   H23       1.0  0.206531265591309  0.9603210947442448  0.4158978278855514  1.0000
  H   H24       1.0  0.7934418822212946  0.0396823267563207  0.5840982528034715  1.0000
  H   H25       1.0  0.5088724325327263  0.67345301076886  0.2499901474173996  1.0000
  H   H26       1.0  0.4911232090525459  0.3265469489975247  0.749989262875161  1.0000
  H   H27       1.0  0.0088644979150345  0.8265492161825917  0.2499867634400346  1.0000
  H   H28       1.0  0.9911311437762649  0.17345031087163676  0.7499884792623206  1.0000
  C   C1        1.0  0.5154635495807015  0.8177907408206339  0.32011703062840974  1.0000
  C   C2        1.0  0.484536590116143  0.1822105170742461  0.6798847330954629  1.0000
  C   C3        1.0  0.48452425246550485  0.18221050515781909  0.8201184616143279  1.0000
  C   C4        1.0  0.5154653903005767  0.8177903200409561  0.1798855753573108  1.0000
  C   C5        1.0  0.015497953821558497  0.6822097343684135  0.1798837281303562  1.0000
  C   C6        1.0  0.9844901894439033  0.3177910908329338  0.8201180356126156  1.0000
  C   C7        1.0  0.9844965289114852  0.317787641058743  0.6798850648472266  1.0000
  C   C8        1.0  0.015497612656410802  0.6822084242956021  0.3201163200147263  1.0000
  C   C9        1.0  0.16162221750145989  0.4330414926823849  0.5888161826309357  1.0000
  C   C10       1.0  0.8384019152587214  0.5669506782121374  0.4111836866962689  1.0000
  C   C11       1.0  0.8383751040998888  0.5669589272304093  0.08881451972288798  1.0000
  C   C12       1.0  0.16160704095557318  0.4330436288305606  0.9111857285421365  1.0000
  C   C13       1.0  0.6616213014141578  0.06695507834568562  0.9111895071171644  1.0000
  C   C14       1.0  0.3384073298299555  0.9330422850914175  0.08881452979274229  1.0000
  C   C15       1.0  0.3383906535241152  0.9330500465040998  0.41118900103982975  1.0000
  C   C16       1.0  0.6616034878793543  0.0669577020879188  0.5888116260775789  1.0000
  C   C17       1.0  0.1526755951593231  0.3922890726315203  0.6272345621851727  1.0000
  C   C18       1.0  0.8473335419224242  0.607707425411526  0.37276795926842965  1.0000
  C   C19       1.0  0.8473183966929057  0.6077104753216744  0.1272321070701565  1.0000
  C   C20       1.0  0.15266974659962781  0.3922903498797653  0.8727685200573063  1.0000
  C   C21       1.0  0.6526752363181599  0.1077066612631299  0.8727696405218167  1.0000
  C   C22       1.0  0.3473234039117798  0.8922889713715634  0.1272321232048625  1.0000
  C   C23       1.0  0.34731755515144147  0.892296739307021  0.3727702486667468  1.0000
  C   C24       1.0  0.6526795854607599  0.10770754758038951  0.6272284840869488  1.0000
  C   C25       1.0  0.98368723321812  0.35690615469067677  0.6347595327403113  1.0000
  C   C26       1.0  0.016332400857642395  0.643094237748919  0.3652357901313508  1.0000
  C   C27       1.0  0.016321395512548496  0.6430994499331462  0.1347608513101122  1.0000
  C   C28       1.0  0.9836682473258094  0.3569048369661232  0.8652378814555136  1.0000
  C   C29       1.0  0.48366304422224  0.1430958885802696  0.8652383132991587  1.0000
  C   C30       1.0  0.5163235994456414  0.8569071001859355  0.13476382931788317  1.0000
  C   C31       1.0  0.5163211087392979  0.8569079459982379  0.3652372526727774  1.0000
  C   C32       1.0  0.48366703449912757  0.14309461005311866  0.6347645110700739  1.0000
  C   C33       1.0  0.8233660806647408  0.3620600170651328  0.6000483070043146  1.0000
  C   C34       1.0  0.1766460555559206  0.6379386445359145  0.3999515623414779  1.0000
  C   C35       1.0  0.1766382036462062  0.637942997199886  0.1000438123727889  1.0000
  C   C36       1.0  0.8233499396554008  0.36205955885169766  0.8999552992671837  1.0000
  C   C37       1.0  0.3233628922723923  0.137940369601175  0.8999545952281663  1.0000
  C   C38       1.0  0.6766432456028183  0.8620565611587877  0.10005171494857018  1.0000
  C   C39       1.0  0.6766361020282262  0.8620608627693187  0.3999511297599838  1.0000
  C   C40       1.0  0.3233460429911332  0.1379416932915234  0.600050633992403  1.0000
  C   C41       1.0  0.8303962804017928  0.40289422284401166  0.5612241587501643  1.0000
  C   C42       1.0  0.1696308513958869  0.597104871445957  0.4387741950843989  1.0000
  C   C43       1.0  0.1696158516509314  0.5971057690297741  0.06122310234013641  1.0000
  C   C44       1.0  0.8303827884866521  0.40289635429251563  0.9387782825142209  1.0000
  C   C45       1.0  0.3304045146171006  0.09710051630992919  0.9387764478800023  1.0000
  C   C46       1.0  0.6696256161253658  0.9028964144120695  0.061230241130431295  1.0000
  C   C47       1.0  0.6696046266845032  0.9028959495981468  0.4387756508542751  1.0000
  C   C48       1.0  0.33036402238018786  0.0971018466463605  0.5612276284072735  1.0000
  C   C49       1.0  0.9977206648120075  0.4395018693253335  0.5554911802185245  1.0000
  C   C50       1.0  0.0023064670262656  0.5604963595397265  0.4445060370005862  1.0000
  C   C51       1.0  0.0022872415843408996  0.5605024506559533  0.0554917978715395  1.0000
  C   C52       1.0  0.9977054003184306  0.43950183623840633  0.9445088292485052  1.0000
  C   C53       1.0  0.4977297694014594  0.060496667814064216  0.9445096521216809  1.0000
  C   C54       1.0  0.5023063596572045  0.9395050227366044  0.0554898383139104  1.0000
  C   C55       1.0  0.5022895955389259  0.939505422364327  0.4445101394491218  1.0000
  C   C56       1.0  0.49768055306486764  0.0604979991406225  0.5554901088349098  1.0000
  C   C57       1.0  0.9997858177957255  0.48168225155557554  0.5166624932963728  1.0000
  C   C58       1.0  0.0002368151685204  0.5183207371536582  0.4833404070071339  1.0000
  C   C59       1.0  0.00021494124145249996  0.5183199114848448  0.0166563040668208  1.0000
  C   C60       1.0  0.9997747016328445  0.48167745201409673  0.9833454596740265  1.0000
  C   C61       1.0  0.49978839193872193  0.018323202463541608  0.9833375747435652  1.0000
  C   C62       1.0  0.5002402393594991  0.9816724301236375  0.0166653255509459  1.0000
  C   C63       1.0  0.5002156272784075  0.9816784484169716  0.48333806240957944  1.0000
  C   C64       1.0  0.49975752055216555  0.0183215113834336  0.5166595337670685  1.0000
  Cl  Cl1       1.0  0.6146602089304664  0.3176796216772715  0.601388332914574  1.0000
  Cl  Cl2       1.0  0.3853474286981324  0.68232077078126  0.3986073688480047  1.0000
  Cl  Cl3       1.0  0.3853395128760084  0.6823181998164997  0.1013873357129  1.0000
  Cl  Cl4       1.0  0.614651629559937  0.31768392351790453  0.8986110181786557  1.0000
  Cl  Cl5       1.0  0.1146511994718225  0.1823149343116981  0.8986133385787695  1.0000
  Cl  Cl6       1.0  0.8853444415289573  0.8176785347646741  0.10139486597411458  1.0000
  Cl  Cl7       1.0  0.885343360187221  0.8176832693068903  0.3986065639428844  1.0000
  Cl  Cl8       1.0  0.11464778208401327  0.18231842131439893  0.6013989885136651  1.0000
  O   O1        1.0  0.6837047376049058  0.8027541583749452  0.1981723160989546  1.0000
  O   O2        1.0  0.3162924029372435  0.19724536867440182  0.8018324786045383  1.0000
  O   O3        1.0  0.31630087031071946  0.19724624290907405  0.6981716276790237  1.0000
  O   O4        1.0  0.6836947707263618  0.8027558804179906  0.3018293783082555  1.0000
  O   O5        1.0  0.18369537378907813  0.6972475156955725  0.30183207537246654  1.0000
  O   O6        1.0  0.8162942690469348  0.302752876790926  0.6981693094963219  1.0000
  O   O7        1.0  0.8162977979785779  0.3027558969495701  0.8018331913771988  1.0000
  O   O8        1.0  0.1836963435284602  0.6972423319671962  0.19816933010012147  1.0000
  O   O9        1.0  0.3441145619380776  0.80432024031137  0.30220803216109715  1.0000
  O   O10       1.0  0.6558915760635528  0.19568015214927215  0.6977907005785865  1.0000
  O   O11       1.0  0.6558740932784346  0.19567971057677622  0.8022104318139256  1.0000
  O   O12       1.0  0.3441035532366428  0.804315489378773  0.1977894375869553  1.0000
  O   O13       1.0  0.8441167916784521  0.6956809264693788  0.1977905450400286  1.0000
  O   O14       1.0  0.15588034893139735  0.30431946600526777  0.8022108398168442  1.0000
  O   O15       1.0  0.1558903339336197  0.30431817673947853  0.697792624080911  1.0000
  O   O16       1.0  0.8441143044274851  0.6956813502981732  0.3022102762514578  1.0000
  O   O17       1.0  0.5128321030688525  0.7152811587192501  0.2500022619308453  1.0000
  O   O18       1.0  0.48716803662119906  0.2847188010380179  0.7500006384086433  1.0000
  O   O19       1.0  0.012826974584747602  0.7847210557036419  0.250001157360586  1.0000
  O   O20       1.0  0.9871611686942285  0.21527890407269004  0.7500006063824571  1.0000
