data_image0
_chemical_formula_structural       Al2H16C23S2N4O10
_chemical_formula_sum              "Al2 H16 C23 S2 N4 O10"
_cell_length_a       6.65880517383062
_cell_length_b       12.76817757862435
_cell_length_c       16.878691900640593
_cell_angle_alpha    86.1653981344825
_cell_angle_beta     83.29566553397586
_cell_angle_gamma    74.52469144040843

_space_group_name_H-M_alt    "P 1"
_space_group_IT_number       1

loop_
  _space_group_symop_operation_xyz
  'x, y, z'

loop_
  _atom_site_type_symbol
  _atom_site_label
  _atom_site_symmetry_multiplicity
  _atom_site_fract_x
  _atom_site_fract_y
  _atom_site_fract_z
  _atom_site_occupancy
  Al  Al1       1.0  0.498744669630362  0.5074142509908982  0.4953657947991488  1.0000
  Al  Al2       1.0  0.9976100053890633  0.5080800738023186  0.4958190749254286  1.0000
  H   H1        1.0  0.20097049230242442  0.6332505728454407  0.44331882014863316  1.0000
  H   H2        1.0  0.8035686703784463  0.3770107733881574  0.5368040696041236  1.0000
  H   H3        1.0  0.8560577162635069  0.5600264054127637  0.730713697165797  1.0000
  H   H4        1.0  0.7904529377627583  0.5561341109165596  0.8806550686839573  1.0000
  H   H5        1.0  0.4551593284016846  0.4478494094479331  0.8945167758460003  1.0000
  H   H6        1.0  0.6168516854917454  0.4504650888542443  0.09598184378489802  1.0000
  H   H7        1.0  0.17062548729904836  0.5574967451384867  0.1109485471157043  1.0000
  H   H8        1.0  0.09205919371841266  0.5595086508163548  0.2604038422257418  1.0000
  H   H9        1.0  0.3043944728201922  0.8601939006193932  0.4424829531206386  1.0000
  H   H10       1.0  0.5971961749329395  0.4620435522998889  0.6802557762181038  1.0000
  H   H11       1.0  0.6850237432777887  0.4273724209714587  0.7737814373589205  1.0000
  H   H12       1.0  0.46396782333780334  0.4490105344356651  0.3102777680209741  1.0000
  H   H13       1.0  0.4018188716931803  0.4269444410191666  0.21544556823552347  1.0000
  H   H14       1.0  0.8485042700290606  0.1858470491020014  0.5269949588851264  1.0000
  H   H15       1.0  0.8158322363711648  0.0898179230380407  0.6049323652654622  1.0000
  H   H16       1.0  0.6521702662672411  0.22537676597390546  0.6078058720997818  1.0000
  C   C1        1.0  0.6536246272625376  0.7029126526774336  0.501406071378355  1.0000
  C   C2        1.0  0.7860151022971351  0.5049439462708065  0.3509376892772807  1.0000
  C   C3        1.0  0.3413955415750961  0.3115234443117672  0.4899783798898982  1.0000
  C   C4        1.0  0.21402109216614207  0.5079831206821623  0.6399945395255531  1.0000
  C   C5        1.0  0.1896520775322799  0.5046817906651242  0.7280212667417558  1.0000
  C   C6        1.0  0.9854737211524662  0.533459942401592  0.7677174709259875  1.0000
  C   C7        1.0  0.9477796983974399  0.5312336943337925  0.8499738799476974  1.0000
  C   C8        1.0  0.12169774500693356  0.4986292569874991  0.8949249232905815  1.0000
  C   C9        1.0  0.32541360170423417  0.47109939234417914  0.8573894348822009  1.0000
  C   C10       1.0  0.3656760593793607  0.4727041047235118  0.7732679167166907  1.0000
  C   C11       1.0  0.7215290947687975  0.47238451786157737  0.1333079624095674  1.0000
  C   C12       1.0  0.8990266722524111  0.4999172696638041  0.0962238580280896  1.0000
  C   C13       1.0  0.03725758253489178  0.53194281265111  0.14138747881511904  1.0000
  C   C14       1.0  0.9926118387747421  0.5330435527310017  0.22332472408569262  1.0000
  C   C15       1.0  0.8174869162115428  0.5020508071389997  0.26325053528813674  1.0000
  C   C16       1.0  0.6765123373122179  0.47103399095219356  0.21735488931241068  1.0000
  C   C17       1.0  0.5785465718250575  0.12419224569175921  0.5243869368200509  1.0000
  C   C18       1.0  0.41892594574337483  0.8904235398226137  0.468537321585302  1.0000
  C   C19       1.0  0.40580499185455216  0.19247696127931146  0.49125838702269675  1.0000
  C   C20       1.0  0.5925277757669177  0.8222198127440734  0.49973432720525324  1.0000
  C   C21       1.0  0.4151001152400298  0.000461222723245699  0.47537324592106245  1.0000
  C   C22       1.0  0.5832957837704598  0.014467077953156604  0.5134804793726673  1.0000
  C   C23       1.0  0.7314079726652877  0.1583252753580879  0.5685441428609153  1.0000
  S   S1        1.0  0.2513779093632492  0.12397426266331024  0.4499245125171712  1.0000
  S   S2        1.0  0.7509645477473371  0.8911986724766193  0.5378160672056538  1.0000
  N   N1        1.0  0.10444703906054537  0.4953707939217438  0.97948312832294  1.0000
  N   N2        1.0  0.9225348877969566  0.4967578712618988  0.012001987393581711  1.0000
  N   N3        1.0  0.5671316901359943  0.4397819376126364  0.7385437702008987  1.0000
  N   N4        1.0  0.5053344055054082  0.4394587715981829  0.2507655822747169  1.0000
  O   O1        1.0  0.5151476134577279  0.6556417818327701  0.4882333859602143  1.0000
  O   O2        1.0  0.9287409243112986  0.5251204248157821  0.38741224230618343  1.0000
  O   O3        1.0  0.15162380195183534  0.3586743374276935  0.4778574837162139  1.0000
  O   O4        1.0  0.38648538110114566  0.5224551265161709  0.6045380275897403  1.0000
  O   O5        1.0  0.4798804963390706  0.3596501221120505  0.5015839068271364  1.0000
  O   O6        1.0  0.06394731238007272  0.4946565822496396  0.6044948741604799  1.0000
  O   O7        1.0  0.8416553919562161  0.65571304532385  0.5151687663418942  1.0000
  O   O8        1.0  0.6148027437785684  0.48814794451854493  0.38654460909420874  1.0000
  O   O9        1.0  0.23347107737697564  0.5570409899843725  0.4601267339921479  1.0000
  O   O10       1.0  0.7644150028824228  0.4558198719710518  0.5311327775741006  1.0000
