data_image0
_chemical_formula_structural       Cu4H64C64S8I4
_chemical_formula_sum              "Cu4 H64 C64 S8 I4"
_cell_length_a       11.56097371900545
_cell_length_b       12.133255952220278
_cell_length_c       12.35340169875373
_cell_angle_alpha    109.6355035206766
_cell_angle_beta     92.16863975749082
_cell_angle_gamma    91.63670940014062

_space_group_name_H-M_alt    "P 1"
_space_group_IT_number       1

loop_
  _space_group_symop_operation_xyz
  'x, y, z'

loop_
  _atom_site_type_symbol
  _atom_site_label
  _atom_site_symmetry_multiplicity
  _atom_site_fract_x
  _atom_site_fract_y
  _atom_site_fract_z
  _atom_site_occupancy
  Cu  Cu1       1.0  0.069817549579632  0.4162285412780307  0.48853351311215215  1.0000
  Cu  Cu2       1.0  0.9301816702349939  0.5837709033972656  0.5114660592997777  1.0000
  Cu  Cu3       1.0  0.4326029210988196  0.40309816949773136  0.9439285799725067  1.0000
  Cu  Cu4       1.0  0.567399761414336  0.5969012823652945  0.05607111393037197  1.0000
  H   H1        1.0  0.5434997002046914  0.20767868298656816  0.2742676539946487  1.0000
  H   H2        1.0  0.4564987283910611  0.7923225149907368  0.7257340858958726  1.0000
  H   H3        1.0  0.6071928374209676  0.11184220562942218  0.41327399126366515  1.0000
  H   H4        1.0  0.3928073999967623  0.8881607559706024  0.5867324374328218  1.0000
  H   H5        1.0  0.8148830414260999  0.11175836378087917  0.4687899615780465  1.0000
  H   H6        1.0  0.18511636452792857  0.8882454686417631  0.5312151054622163  1.0000
  H   H7        1.0  0.8989640679315656  0.3104203537904269  0.24773781023254313  1.0000
  H   H8        1.0  0.1010342882197222  0.6895790923745578  0.7522633519460837  1.0000
  H   H9        1.0  0.6901643867427083  0.3091477163228688  0.19253237530523382  1.0000
  H   H10       1.0  0.3098356263020817  0.6908499783370345  0.8074666497675336  1.0000
  H   H11       1.0  0.1255469263143425  0.1949438568828369  0.5487166818693223  1.0000
  H   H12       1.0  0.8744513956260035  0.8050547166625959  0.4512858115927825  1.0000
  H   H13       1.0  0.9767700826195875  0.20238107610159517  0.5783614256703442  1.0000
  H   H14       1.0  0.023231700007990207  0.797617501344945  0.42163956914328077  1.0000
  H   H15       1.0  0.08533315704139  0.9849020471413323  0.403290607730092  1.0000
  H   H16       1.0  0.9146662036395911  0.015100894585380295  0.596706879826769  1.0000
  H   H17       1.0  0.27802419294270214  0.27037853274049434  0.33374708866310937  1.0000
  H   H18       1.0  0.7219767209933039  0.7296200379791956  0.6662514455686261  1.0000
  H   H19       1.0  0.35191686722188104  0.29830282423945687  0.6867555023578189  1.0000
  H   H20       1.0  0.6480815563456446  0.7016983655213167  0.3132421871841159  1.0000
  H   H21       1.0  0.4046168880124696  0.08982765268475389  0.6234899486104694  1.0000
  H   H22       1.0  0.5953875610665378  0.9101726770349858  0.37650928482412377  1.0000
  H   H23       1.0  0.39457642768676493  0.9708701368466635  0.4131350756342157  1.0000
  H   H24       1.0  0.6054278754976536  0.02912668760512099  0.5868621923068531  1.0000
  H   H25       1.0  0.33483956878487225  0.06281747774702498  0.26917800379556667  1.0000
  H   H26       1.0  0.6651639783972669  0.9371819742696201  0.7308209104103367  1.0000
  H   H27       1.0  0.32285081182933334  0.47090355128204203  0.3971479156024315  1.0000
  H   H28       1.0  0.6771477274444208  0.5291002777003656  0.6028563109953777  1.0000
  H   H29       1.0  0.292371026944636  0.6004551282612667  0.5106535819091674  1.0000
  H   H30       1.0  0.707626280409542  0.39953993328936116  0.48934448547753806  1.0000
  H   H31       1.0  0.47809320123300136  0.5848353814958785  0.6210456544552583  1.0000
  H   H32       1.0  0.5219016922197497  0.415164057481384  0.3789553862324197  1.0000
  H   H33       1.0  0.19454500927425764  0.13805223036871436  0.7739575401497801  1.0000
  H   H34       1.0  0.8054533106547906  0.8619463398901033  0.22604333317288894  1.0000
  H   H35       1.0  0.14509690332287312  0.9739106962544496  0.8435416774987343  1.0000
  H   H36       1.0  0.8549005891650694  0.026088751400216395  0.1564610744465824  1.0000
  H   H37       1.0  0.1081895197738945  0.014553647586083698  0.051502967196732585  1.0000
  H   H38       1.0  0.8918097372686093  0.9854466746386805  0.9484977041408623  1.0000
  H   H39       1.0  0.12045131999297347  0.21965356724101776  0.18728783151642858  1.0000
  H   H40       1.0  0.8795471800416054  0.7803493809053065  0.8127136760162796  1.0000
  H   H41       1.0  0.17524822193755799  0.38235104667057845  0.12020988280591638  1.0000
  H   H42       1.0  0.8247536301175488  0.6176492776583656  0.8797892595104599  1.0000
  H   H43       1.0  0.19502236706020432  0.5326480737427701  0.0701050308358119  1.0000
  H   H44       1.0  0.8049846126321185  0.46735051941527667  0.9298985764233972  1.0000
  H   H45       1.0  0.20224562422990996  0.580972060837098  0.9501446289322216  1.0000
  H   H46       1.0  0.7977613494285264  0.41902652246110955  0.04985411790867995  1.0000
  H   H47       1.0  0.005210522658629199  0.4823769614513154  0.8707206692751227  1.0000
  H   H48       1.0  0.9947955138863592  0.5176198698809457  0.12927827955085286  1.0000
  H   H49       1.0  0.518285175612938  0.20580228918191065  0.07335591816695337  1.0000
  H   H50       1.0  0.48171483642619956  0.7941954038346849  0.9266422968360997  1.0000
  H   H51       1.0  0.37054054962322164  0.18291917376696887  0.02613209876555798  1.0000
  H   H52       1.0  0.6294576928331209  0.8170776364629901  0.9738641464966304  1.0000
  H   H53       1.0  0.40837167105640754  0.9721654080534561  0.8992441895646902  1.0000
  H   H54       1.0  0.5916265724055876  0.027831403819810394  0.10075286576721247  1.0000
  H   H55       1.0  0.5962762991901017  0.2493321347826338  0.7060622703905323  1.0000
  H   H56       1.0  0.4037221988331794  0.7506708100770679  0.29393761700274  1.0000
  H   H57       1.0  0.8029261858700422  0.2589987138541332  0.6663515043790722  1.0000
  H   H58       1.0  0.1970722759310064  0.7410033550994086  0.33364809415824936  1.0000
  H   H59       1.0  0.9547504165600954  0.21841099239303932  0.7970064823954173  1.0000
  H   H60       1.0  0.04524793556859658  0.7815884471987145  0.2029914395043376  1.0000
  H   H61       1.0  0.8951238996194774  0.1689304594156482  0.966530209413079  1.0000
  H   H62       1.0  0.10487445150357638  0.831068978532798  0.033466902416954214  1.0000
  H   H63       1.0  0.6880697577752103  0.1554874761566154  0.0054454573280580156  1.0000
  H   H64       1.0  0.3119285953591344  0.8445119650784392  0.9945532746414115  1.0000
  C   C1        1.0  0.6354922926042903  0.20719299897562848  0.2968993120867366  1.0000
  C   C2        1.0  0.3645060997692297  0.7928073230955163  0.7031021389478338  1.0000
  C   C3        1.0  0.6713582478355916  0.153603292672841  0.3754549080097432  1.0000
  C   C4        1.0  0.3286446942670906  0.8464023003931586  0.6245516683030841  1.0000
  C   C5        1.0  0.7886553735049233  0.15462806519295208  0.407930959594239  1.0000
  C   C6        1.0  0.2113449705682129  0.8453775208389444  0.592074715530664  1.0000
  C   C7        1.0  0.8708415659178074  0.21043116575322776  0.3611214374433799  1.0000
  C   C8        1.0  0.1291594919014898  0.7895709069478086  0.638877442142437  1.0000
  C   C9        1.0  0.8350837947635269  0.26415634376434827  0.281500180702487  1.0000
  C   C10       1.0  0.164915428068042  0.7358431058408713  0.7185018219185862  1.0000
  C   C11       1.0  0.7178163327517525  0.2629069480986956  0.250446531366002  1.0000
  C   C12       1.0  0.2821795018370424  0.737094249417737  0.7495575476154598  1.0000
  C   C13       1.0  0.0381579807825716  0.16067274230355366  0.5125504271853955  1.0000
  C   C14       1.0  0.9618421016897473  0.8393266992387536  0.4874467453901231  1.0000
  C   C15       1.0  0.0319020963982126  0.030455190003230798  0.4747460075251339  1.0000
  C   C16       1.0  0.9680954252724377  0.9695451220544484  0.5252513627881186  1.0000
  C   C17       1.0  0.30725850331516824  0.2308828356661293  0.39677666081239227  1.0000
  C   C18       1.0  0.6927442868590461  0.7691192422720688  0.603223089588617  1.0000
  C   C19       1.0  0.30988464074940236  0.29620951067283124  0.514649056346549  1.0000
  C   C20       1.0  0.6901154799564466  0.7037908100622514  0.48535002522434906  1.0000
  C   C21       1.0  0.34756040099283325  0.24567511877883422  0.5956462925799925  1.0000
  C   C22       1.0  0.6524413071789824  0.7543217035687705  0.4043525043822952  1.0000
  C   C23       1.0  0.3777628676826267  0.1286620835375771  0.5591772721218788  1.0000
  C   C24       1.0  0.6222380824756185  0.8713373630882726  0.4408215509658076  1.0000
  C   C25       1.0  0.37287800218634704  0.06273364237208769  0.4420114912754796  1.0000
  C   C26       1.0  0.6271212115943997  0.9372657924433626  0.5579832207181497  1.0000
  C   C27       1.0  0.3388572945323318  0.11441006412059809  0.36077026101368387  1.0000
  C   C28       1.0  0.6611453869751786  0.88558938609912  0.6392286228194803  1.0000
  C   C29       1.0  0.33538821051116224  0.5168970453277238  0.4901826318358927  1.0000
  C   C30       1.0  0.6646084525243906  0.4831032764361679  0.509820378592643  1.0000
  C   C31       1.0  0.4581668467513466  0.5295544828360119  0.5317942790341659  1.0000
  C   C32       1.0  0.5418325169465703  0.4704484638206239  0.46820563873184534  1.0000
  C   C33       1.0  0.1887097048411022  0.2709312869707076  0.9424588230944762  1.0000
  C   C34       1.0  0.8112921150143607  0.7290681680253001  0.05754327064482105  1.0000
  C   C35       1.0  0.17921595822864592  0.15551608273860038  0.8647330680891867  1.0000
  C   C36       1.0  0.8207841644884937  0.8444842412830977  0.13526763362114735  1.0000
  C   C37       1.0  0.1511331577483546  0.06338134132217021  0.9041925094685508  1.0000
  C   C38       1.0  0.8488678316490664  0.9366189861397627  0.09580903268423659  1.0000
  C   C39       1.0  0.13042653005215502  0.0859886226715929  0.020348201105918003  1.0000
  C   C40       1.0  0.8695761554779364  0.914010834121349  0.9796539230061112  1.0000
  C   C41       1.0  0.13767275699542844  0.2011735729452297  0.09681039903761496  1.0000
  C   C42       1.0  0.8623290608487367  0.7988258787641697  0.9031900745622394  1.0000
  C   C43       1.0  0.1674966016305532  0.293617398152321  0.05871201874955287  1.0000
  C   C44       1.0  0.8325060818882546  0.7063820553540056  0.9412884852230404  1.0000
  C   C45       1.0  0.1654271650261165  0.5120103308236635  0.9796411480492464  1.0000
  C   C46       1.0  0.8345729607079663  0.4879899981279506  0.020361983870237948  1.0000
  C   C47       1.0  0.037248830217215784  0.49806712106951057  0.9593394382362131  1.0000
  C   C48       1.0  0.9627512924999236  0.5019332029521807  0.04066126347411372  1.0000
  C   C49       1.0  0.45834540007712127  0.154921519895403  0.0017897831095439  1.0000
  C   C50       1.0  0.5416537462873875  0.8450761713242586  0.9982084015207702  1.0000
  C   C51       1.0  0.4654866348511462  0.0256853241791291  0.9716093367766375  1.0000
  C   C52       1.0  0.534510813369394  0.9743132344229151  0.02838664575499897  1.0000
  C   C53       1.0  0.6279277117009272  0.2012916980556767  0.8580017423354247  1.0000
  C   C54       1.0  0.37207241101621236  0.7987086259660217  0.14199895937490936  1.0000
  C   C55       1.0  0.6615539319187533  0.2285851451845389  0.761515715008528  1.0000
  C   C56       1.0  0.33844442020994586  0.7714142944072079  0.238482206891227  1.0000
  C   C57       1.0  0.7783725474382306  0.23363027642304243  0.7393406567513379  1.0000
  C   C58       1.0  0.22162674280956907  0.7663709167779656  0.2606578732330575  1.0000
  C   C59       1.0  0.8630483135228317  0.2116441328860219  0.8124174604220966  1.0000
  C   C60       1.0  0.13695018450044927  0.788358811973687  0.1875824269711757  1.0000
  C   C61       1.0  0.8293563553731003  0.18383204143316337  0.9078590990164128  1.0000
  C   C62       1.0  0.17064282620799534  0.8161665240493575  0.09213856440013048  1.0000
  C   C63       1.0  0.7122838962584551  0.17776409660820747  0.9308908675786112  1.0000
  C   C64       1.0  0.2877161872195089  0.8222353465774075  0.06910711506661463  1.0000
  S   S1        1.0  0.021721036714623696  0.21996202040222804  0.39574185283963453  1.0000
  S   S2        1.0  0.9782791926579292  0.7800409280513421  0.6042580952991158  1.0000
  S   S3        1.0  0.25326636995094987  0.4380926696524909  0.5677227859768549  1.0000
  S   S4        1.0  0.7467328478523781  0.5619067717361901  0.43227516629563906  1.0000
  S   S5        1.0  0.23623832351947266  0.3822507924555437  0.8894722271832192  1.0000
  S   S6        1.0  0.7637616935478988  0.6177469087775904  0.11053003816842014  1.0000
  S   S7        1.0  0.47764479804143894  0.20578248284517284  0.8800665591705578  1.0000
  S   S8        1.0  0.5223543110951853  0.7942143308250278  0.11993052653408393  1.0000
  I   I1        1.0  0.0662185956398034  0.5223497214031524  0.33741941916828466  1.0000
  I   I2        1.0  0.9337772721542875  0.4776523470895241  0.6625825184599773  1.0000
  I   I3        1.0  0.537207007728071  0.5210174697516833  0.8316551996344327  1.0000
  I   I4        1.0  0.46279228453101945  0.47898372673594025  0.1683449504893914  1.0000
