data_image0
_chemical_formula_structural       Co2H14C16S4N6O4
_chemical_formula_sum              "Co2 H14 C16 S4 N6 O4"
_cell_length_a       7.687269511193065
_cell_length_b       8.158595574066046
_cell_length_c       9.745334295907869
_cell_angle_alpha    75.14010735162748
_cell_angle_beta     73.15860055391937
_cell_angle_gamma    74.40944986971292

_space_group_name_H-M_alt    "P 1"
_space_group_IT_number       1

loop_
  _space_group_symop_operation_xyz
  'x, y, z'

loop_
  _atom_site_type_symbol
  _atom_site_label
  _atom_site_symmetry_multiplicity
  _atom_site_fract_x
  _atom_site_fract_y
  _atom_site_fract_z
  _atom_site_occupancy
  Co  Co1       1.0  0.36724076057679167  0.3573874743027473  0.496498017019839  1.0000
  Co  Co2       1.0  0.6327558518344103  0.6426134546001521  0.5035022334234256  1.0000
  H   H1        1.0  0.20150625437031522  0.8287378277439215  0.4399614831847317  1.0000
  H   H2        1.0  0.7984789837456319  0.17124857742169303  0.5600413226003484  1.0000
  H   H3        1.0  0.05906846847009462  0.06569525164753288  0.2562833343509183  1.0000
  H   H4        1.0  0.9409239215761646  0.9342951846022131  0.7437190677679056  1.0000
  H   H5        1.0  0.45906894274562415  0.8140432043646797  0.9164396250450794  1.0000
  H   H6        1.0  0.5409477627891236  0.1859697931750475  0.08356075015997524  1.0000
  H   H7        1.0  0.5823386911488415  0.587617880700158  0.11768940524466126  1.0000
  H   H8        1.0  0.417673578666964  0.4123911340822133  0.8823097304923665  1.0000
  H   H9        1.0  0.9264426855055633  0.19846168068362147  0.05895966834150805  1.0000
  H   H10       1.0  0.07356088060942775  0.8015328541665168  0.9410455215373408  1.0000
  H   H11       1.0  0.04215314078508921  0.312133319283582  0.8865918187858951  1.0000
  H   H12       1.0  0.9578427828279107  0.687870197943624  0.11341419118005547  1.0000
  H   H13       1.0  0.10764796451503143  0.30190482684127307  0.05254629802154651  1.0000
  H   H14       1.0  0.8923479590979682  0.698098690385933  0.9474597119444043  1.0000
  C   C1        1.0  0.3428294703244105  0.9788527330285816  0.6405867362650997  1.0000
  C   C2        1.0  0.6571733761060445  0.021150918128526496  0.3594002542556965  1.0000
  C   C3        1.0  0.2522275547824934  0.960468376527082  0.07025355462577212  1.0000
  C   C4        1.0  0.7477771606458674  0.0395326928344133  0.9297469083489249  1.0000
  C   C5        1.0  0.9795350108942317  0.5542152286826718  0.647831126545988  1.0000
  C   C6        1.0  0.020447816229562925  0.4457919693865405  0.3521729200382567  1.0000
  C   C7        1.0  0.2496231896407295  0.8353604520447532  0.32252828448315546  1.0000
  C   C8        1.0  0.7503678651083092  0.16462996230247026  0.6774723682356625  1.0000
  C   C9        1.0  0.1753554280966157  0.9641206393887174  0.21923941075369413  1.0000
  C   C10       1.0  0.8246403794003214  0.03587246084067889  0.7807626868323752  1.0000
  C   C11       1.0  0.3994979101265559  0.8220876087947955  0.031011091348609923  1.0000
  C   C12       1.0  0.600511960506836  0.1779200607856311  0.9689898929219397  1.0000
  C   C13       1.0  0.46828886705223033  0.6976063965924266  0.13812136265325142  1.0000
  C   C14       1.0  0.5317192658268015  0.3023973367487187  0.8618787957887051  1.0000
  C   C15       1.0  0.0585973546511553  0.23253850243301596  0.9928213581144264  1.0000
  C   C16       1.0  0.941402955746142  0.7674637899569845  0.007182906742755852  1.0000
  S   S1        1.0  0.33044683699016997  0.7752798037375328  0.6777072009163234  1.0000
  S   S2        1.0  0.6695561771773699  0.22471733300205438  0.32228832268233987  1.0000
  S   S3        1.0  0.7609431491526807  0.6469620500059249  0.7006737940945272  1.0000
  S   S4        1.0  0.23905147565663043  0.35304144893612477  0.2993263529239841  1.0000
  N   N1        1.0  0.3537638932360566  0.1263150693665622  0.6102259405411347  1.0000
  N   N2        1.0  0.6462321000462695  0.8736832520225517  0.38976371581887304  1.0000
  N   N3        1.0  0.1376158360330493  0.4884257895973859  0.6074437289814654  1.0000
  N   N4        1.0  0.8623806818265864  0.5115699271892424  0.3925586788192916  1.0000
  N   N5        1.0  0.39518522131062644  0.7071439945732575  0.28132916102961053  1.0000
  N   N6        1.0  0.6048140310071305  0.2928517723488253  0.71866954686314  1.0000
  O   O1        1.0  0.4713380649109667  0.5863734295179696  0.38241017875458294  1.0000
  O   O2        1.0  0.5286611600366413  0.4136223346910837  0.6175916142987462  1.0000
  O   O3        1.0  0.19630116549463145  0.07986222021939682  0.959426300511133  1.0000
  O   O4        1.0  0.8037066412320685  0.9201428090925816  0.04057468091844631  1.0000
