data_image0
_chemical_formula_structural       Zn8H48C32N64
_chemical_formula_sum              "Zn8 H48 C32 N64"
_cell_length_a       10.482045398000736
_cell_length_b       15.473246836301447
_cell_length_c       17.568220862918462
_cell_angle_alpha    109.36298898037651
_cell_angle_beta     90.00001838625059
_cell_angle_gamma    89.99994518268744

_space_group_name_H-M_alt    "P 1"
_space_group_IT_number       1

loop_
  _space_group_symop_operation_xyz
  'x, y, z'

loop_
  _atom_site_type_symbol
  _atom_site_label
  _atom_site_symmetry_multiplicity
  _atom_site_fract_x
  _atom_site_fract_y
  _atom_site_fract_z
  _atom_site_occupancy
  Zn  Zn1       1.0  0.706022296676565  0.3027952204296156  0.18695199653068065  1.0000
  Zn  Zn2       1.0  0.7558185503029263  0.7202977278662174  0.3238385707591858  1.0000
  Zn  Zn3       1.0  0.20602172402838187  0.19720380255115091  0.3130460908569076  1.0000
  Zn  Zn4       1.0  0.2558187182251288  0.7797010787175083  0.17616471924364413  1.0000
  Zn  Zn5       1.0  0.29398230757986005  0.6972023561152412  0.8130490838221289  1.0000
  Zn  Zn6       1.0  0.24417365179129996  0.2797025830433739  0.6761615941053163  1.0000
  Zn  Zn7       1.0  0.7939819262143928  0.8027951402210431  0.686954246869689  1.0000
  Zn  Zn8       1.0  0.7441734838708669  0.2202971790363435  0.8238354200312867  1.0000
  H   H1        1.0  0.9621247809977689  0.561539903065487  0.2643474242598457  1.0000
  H   H2        1.0  0.9354077399844413  0.4540316364832364  0.18689279860805633  1.0000
  H   H3        1.0  0.9558274407640894  0.4592232955741337  0.28913821245563287  1.0000
  H   H4        1.0  0.4848726969007586  0.3783802098830264  0.38578168580668376  1.0000
  H   H5        1.0  0.6295668332019347  0.3150910618172843  0.36090140074098526  1.0000
  H   H6        1.0  0.4979341762213139  0.2702970128359182  0.4007023927509292  1.0000
  H   H7        1.0  0.9280873311031499  0.7489121058621323  0.11761731782208781  1.0000
  H   H8        1.0  0.8416004742233837  0.6633444058116922  0.14157327902494635  1.0000
  H   H9        1.0  0.9985879736119829  0.6395976314697547  0.09755218929398508  1.0000
  H   H10       1.0  0.6750048751587486  0.09199710609063769  0.949657133251456  1.0000
  H   H11       1.0  0.5479952498373706  0.15922434130717994  0.9312928588530692  1.0000
  H   H12       1.0  0.5672660708849264  0.15148507367153033  0.029266374279408994  1.0000
  H   H13       1.0  0.46212375143146295  0.9384635706973583  0.23564872037783138  1.0000
  H   H14       1.0  0.4354083826690384  0.04597068587187889  0.31310173619868914  1.0000
  H   H15       1.0  0.45582040735600776  0.04077627304937441  0.21085439019870475  1.0000
  H   H16       1.0  0.9848764069345182  0.121612532689781  0.11422032930442327  1.0000
  H   H17       1.0  0.1295719157677269  0.18490048182592736  0.13910019690077746  1.0000
  H   H18       1.0  0.9979443698751211  0.22969296237764777  0.09929256190240919  1.0000
  H   H19       1.0  0.42808288522194  0.751096200424385  0.38238648141325615  1.0000
  H   H20       1.0  0.341599684146246  0.8366611944108868  0.35842744234121676  1.0000
  H   H21       1.0  0.4985833492617004  0.8604099615657005  0.4024531248641947  1.0000
  H   H22       1.0  0.17500761827163563  0.40800270265239647  0.5503438652323991  1.0000
  H   H23       1.0  0.047997164600190004  0.34077621362413874  0.568708330730203  1.0000
  H   H24       1.0  0.06726627251421749  0.3485140237632863  0.4707339841340497  1.0000
  H   H25       1.0  0.0378740991745516  0.4384679182765011  0.7356475166319639  1.0000
  H   H26       1.0  0.0645959102498068  0.5459754998365157  0.8131019438325564  1.0000
  H   H27       1.0  0.0441876576190694  0.5407810930283005  0.7108534571222832  1.0000
  H   H28       1.0  0.5151319073509484  0.6216235337592336  0.614221750372536  1.0000
  H   H29       1.0  0.3704396790745221  0.6849133763833208  0.6391050827117508  1.0000
  H   H30       1.0  0.5020704280296472  0.7297087973148849  0.5993050573688377  1.0000
  H   H31       1.0  0.0719096410499418  0.2510923247106049  0.8823868865726678  1.0000
  H   H32       1.0  0.1583869578077  0.3366558822085394  0.8584200486663104  1.0000
  H   H33       1.0  0.0013975503952892003  0.3604005900423957  0.9024371244566607  1.0000
  H   H34       1.0  0.32499114299002935  0.9079970472583412  0.05034352460886278  1.0000
  H   H35       1.0  0.45200363034611957  0.8407732447767629  0.06871107032170441  1.0000
  H   H36       1.0  0.43273090127696173  0.8485083984712105  0.9707352246584616  1.0000
  H   H37       1.0  0.5378818068365874  0.061530536868303884  0.764338263136551  1.0000
  H   H38       1.0  0.5646048076996808  0.9540206854226482  0.6868855930394415  1.0000
  H   H39       1.0  0.5441784728266867  0.9592178421480709  0.7891348723731891  1.0000
  H   H40       1.0  0.015131059356782802  0.8783864024513193  0.8857777293645694  1.0000
  H   H41       1.0  0.8704326884845628  0.815103269446503  0.8609055183361459  1.0000
  H   H42       1.0  0.0020621424022238  0.7703094112219587  0.9007104773741971  1.0000
  H   H43       1.0  0.5719150409461093  0.24890203634511468  0.6176073904531589  1.0000
  H   H44       1.0  0.6583887019001864  0.16333913366751324  0.6415778504030027  1.0000
  H   H45       1.0  0.5013983586952833  0.13959724152332595  0.5975615593306853  1.0000
  H   H46       1.0  0.8250027100591382  0.5919941907775197  0.44965758643366616  1.0000
  H   H47       1.0  0.9520103016891781  0.6592268488114212  0.43129604652661846  1.0000
  H   H48       1.0  0.9327364237159302  0.6514862985890346  0.5292695993173026  1.0000
  C   C1        1.0  0.7753540287938349  0.5062066976647799  0.2626301489502793  1.0000
  C   C2        1.0  0.9153000043177073  0.4948203542188097  0.24996173150969972  1.0000
  C   C3        1.0  0.47653279296766027  0.2634495127260337  0.27810609568351896  1.0000
  C   C4        1.0  0.5252770783065088  0.309102794636985  0.3610546587161706  1.0000
  C   C5        1.0  0.9953385684890533  0.7222536979544643  0.22146954673669936  1.0000
  C   C6        1.0  0.9374080870970758  0.6907580114468176  0.14004335437143564  1.0000
  C   C7        1.0  0.7026501305091485  0.23645361500160084  0.997419880025802  1.0000
  C   C8        1.0  0.6186532305675314  0.1547703759562893  0.9760125070812716  1.0000
  C   C9        1.0  0.2753509964967833  0.9937920785285924  0.23736687477457244  1.0000
  C   C10       1.0  0.4152968687554619  0.005179241551665798  0.25003314785653424  1.0000
  C   C11       1.0  0.9765344521831663  0.23654801184349586  0.22189218022427323  1.0000
  C   C12       1.0  0.0252831044578485  0.19088947471463769  0.13894428251805377  1.0000
  C   C13       1.0  0.49533974682871923  0.7777497807952755  0.2785328672322861  1.0000
  C   C14       1.0  0.4374035291253051  0.8092496053298106  0.35996024695209866  1.0000
  C   C15       1.0  0.2026483283989791  0.2635448084790255  0.5025801533910721  1.0000
  C   C16       1.0  0.1186541604582274  0.3452287787197506  0.5239894292181687  1.0000
  C   C17       1.0  0.22465057545979764  0.4937929186830202  0.7373669686411188  1.0000
  C   C18       1.0  0.08470650795690908  0.5051826757887596  0.7500329597518555  1.0000
  C   C19       1.0  0.5234727652994663  0.7365508115331424  0.7218980575323498  1.0000
  C   C20       1.0  0.4747284799589977  0.6908995846854822  0.6389500898536936  1.0000
  C   C21       1.0  0.0046555416390746006  0.2777328934573262  0.7785209514569542  1.0000
  C   C22       1.0  0.0625860230237762  0.3092381740753964  0.8599510616697186  1.0000
  C   C23       1.0  0.2973516117121093  0.7635425991319167  0.00258308248195496  1.0000
  C   C24       1.0  0.381345649617586  0.8452251550643624  0.02399082673949956  1.0000
  C   C25       1.0  0.7246545617716863  0.006204110805953199  0.7626286807957638  1.0000
  C   C26       1.0  0.584711551550008  0.9948148736434774  0.7499561147156367  1.0000
  C   C27       1.0  0.0234644279998832  0.763449568517821  0.7781100396572211  1.0000
  C   C28       1.0  0.9747195917730451  0.8091087811291473  0.8610552869927515  1.0000
  C   C29       1.0  0.504658179326384  0.22226766517805172  0.7214751077378094  1.0000
  C   C30       1.0  0.5625877189520097  0.19075825797995094  0.6400472287568562  1.0000
  C   C31       1.0  0.7973486437608557  0.7364507130043734  0.49742033160752175  1.0000
  C   C32       1.0  0.8813475817598899  0.6547708547966237  0.4760128162529752  1.0000
  N   N1        1.0  0.7128070156833388  0.5856179642310195  0.2950925552113118  1.0000
  N   N2        1.0  0.5867037831970947  0.565110425365866  0.29750467047754364  1.0000
  N   N3        1.0  0.5727838585429552  0.47685405549731297  0.26755149815407003  1.0000
  N   N4        1.0  0.6892401648340324  0.43810595462822727  0.24492255469921523  1.0000
  N   N5        1.0  0.5421478431230966  0.25005628789561035  0.209319986728964  1.0000
  N   N6        1.0  0.4628226974459366  0.20689699974494857  0.14707383698702603  1.0000
  N   N7        1.0  0.35370279197977794  0.1938305483050371  0.17608359984416205  1.0000
  N   N8        1.0  0.358977516992546  0.22869257892779876  0.25811730961464  1.0000
  N   N9        1.0  0.9348236691644161  0.7347130260534553  0.2917616153839474  1.0000
  N   N10       1.0  0.0234805358264509  0.7634337656121416  0.3518950279803902  1.0000
  N   N11       1.0  0.1330917636591735  0.7685683413475886  0.3197648813742545  1.0000
  N   N12       1.0  0.11903916388811808  0.7428527359350383  0.2381387744266305  1.0000
  N   N13       1.0  0.7408103371019337  0.28817765528834377  0.07155020974922618  1.0000
  N   N14       1.0  0.8182636716052729  0.35516871303903497  0.062376903161819486  1.0000
  N   N15       1.0  0.8265876769471916  0.3448443992886537  0.9862813411646554  1.0000
  N   N16       1.0  0.7556254344587998  0.2711574095714724  0.9440924453660811  1.0000
  N   N17       1.0  0.21280601179369538  0.914382215941366  0.20490600132460898  1.0000
  N   N18       1.0  0.086698926579345  0.9348884550334376  0.20249633067830075  1.0000
  N   N19       1.0  0.07277591277041752  0.023142988033931996  0.23244940475341017  1.0000
  N   N20       1.0  0.1892359798874708  0.06189034207381639  0.2550764472047859  1.0000
  N   N21       1.0  0.042147167769130106  0.24994349902711827  0.29067828962414666  1.0000
  N   N22       1.0  0.9628233728167144  0.29310532085255403  0.3529241179931829  1.0000
  N   N23       1.0  0.8537043837589449  0.3061725060496699  0.3239134077421965  1.0000
  N   N24       1.0  0.8589819885469865  0.2713070458729234  0.24187813625604082  1.0000
  N   N25       1.0  0.4348276946518936  0.7652932257386381  0.20824272841642255  1.0000
  N   N26       1.0  0.523483110798125  0.7365699422884829  0.14810792843976361  1.0000
  N   N27       1.0  0.6330924561239684  0.7314332663323383  0.180239765094356  1.0000
  N   N28       1.0  0.6190408082198928  0.7571495616258445  0.26186549991547986  1.0000
  N   N29       1.0  0.2408050289196382  0.2118206697338607  0.4284488207294216  1.0000
  N   N30       1.0  0.3182584839166864  0.14482888393840912  0.43762022405557827  1.0000
  N   N31       1.0  0.32658702188776084  0.15515326994539438  0.5137156521528607  1.0000
  N   N32       1.0  0.2556265819683503  0.22884098076572462  0.5559053120596288  1.0000
  N   N33       1.0  0.2871947265339045  0.41438165784010283  0.7049062716732802  1.0000
  N   N34       1.0  0.41330082106109955  0.43488509802324415  0.7024963842856946  1.0000
  N   N35       1.0  0.42722551577799806  0.523140101663536  0.7324502992354949  1.0000
  N   N36       1.0  0.31076825547120984  0.5618916181006243  0.7550773861248529  1.0000
  N   N37       1.0  0.45785866915468176  0.7499460914266293  0.7906847618409284  1.0000
  N   N38       1.0  0.5371809527913315  0.7931094839819294  0.8529303929974998  1.0000
  N   N39       1.0  0.6463008582561683  0.8061779943002066  0.8239223650232074  1.0000
  N   N40       1.0  0.6410270872596016  0.7713111704370873  0.7418878358578593  1.0000
  N   N41       1.0  0.0651647168823786  0.2652838463987806  0.7082335688727993  1.0000
  N   N42       1.0  0.9765068962016841  0.23657063634975373  0.6481006299477056  1.0000
  N   N43       1.0  0.8668947143588496  0.23143332053015084  0.6802299827484857  1.0000
  N   N44       1.0  0.8809520841988956  0.2571400282974707  0.7618557888866345  1.0000
  N   N45       1.0  0.2591961751816427  0.7118171868942935  0.9284517860915782  1.0000
  N   N46       1.0  0.1817409326528789  0.6448261176988054  0.9376216740923834  1.0000
  N   N47       1.0  0.1734112032376913  0.6551497445219283  0.013716467873621187  1.0000
  N   N48       1.0  0.24437153770264794  0.7288360568486423  0.055907444278517404  1.0000
  N   N49       1.0  0.7871909603629063  0.08561533962235758  0.795088811619294  1.0000
  N   N50       1.0  0.9132989995857912  0.0651145883289885  0.7975023489339887  1.0000
  N   N51       1.0  0.9272258294434437  0.9768607422562213  0.7675500430747488  1.0000
  N   N52       1.0  0.8107733944293187  0.9381072211170932  0.744920644797183  1.0000
  N   N53       1.0  0.9578574364858169  0.7500561344885667  0.7093239558470825  1.0000
  N   N54       1.0  0.0371850474827298  0.7068997890158923  0.6470785755599591  1.0000
  N   N55       1.0  0.1463040365398172  0.6938332869323318  0.6760889144978532  1.0000
  N   N56       1.0  0.1410216616926903  0.7286960089333901  0.7581239619429708  1.0000
  N   N57       1.0  0.56516546144438  0.2347207932228201  0.7917636845324478  1.0000
  N   N58       1.0  0.47650813727846514  0.263437911483571  0.8518966984470635  1.0000
  N   N59       1.0  0.3668968839279644  0.2685752781839028  0.8197667695370254  1.0000
  N   N60       1.0  0.3809542559027009  0.24286240417940516  0.7381408874438689  1.0000
  N   N61       1.0  0.7591881271923029  0.7881734836158074  0.571551837130819  1.0000
  N   N62       1.0  0.6817308561484553  0.8551625312353436  0.5623802097636456  1.0000
  N   N63       1.0  0.6734042262020807  0.8448381471354337  0.48628535143084395  1.0000
  N   N64       1.0  0.7443675281557275  0.7711531706761718  0.44409477603620906  1.0000
