data_image0
_chemical_formula_structural       Cd4H56C48N16O16
_chemical_formula_sum              "Cd4 H56 C48 N16 O16"
_cell_length_a       8.897554266
_cell_length_b       11.94687563
_cell_length_c       13.215
_cell_angle_alpha    90.0
_cell_angle_beta     90.0
_cell_angle_gamma    90.0

_space_group_name_H-M_alt    "P 1"
_space_group_IT_number       1

loop_
  _space_group_symop_operation_xyz
  'x, y, z'

loop_
  _atom_site_type_symbol
  _atom_site_label
  _atom_site_symmetry_multiplicity
  _atom_site_fract_x
  _atom_site_fract_y
  _atom_site_fract_z
  _atom_site_occupancy
  Cd  Cd1       1.0  0.3260828665116264  0.7471024455621631  0.0212516080211884  1.0000
  Cd  Cd2       1.0  0.1739163318073977  0.2528987572627841  0.5212508513053322  1.0000
  Cd  Cd3       1.0  0.8260831887350051  0.7528964290389979  0.9787491486946679  1.0000
  Cd  Cd4       1.0  0.6739166540307764  0.24710226266915922  0.4787491486946678  1.0000
  H   H1        1.0  0.1362576685407575  0.5102061985724404  0.9808777903897123  1.0000
  H   H2        1.0  0.3637471493000533  0.48979416721357444  0.4808724933787332  1.0000
  H   H3        1.0  0.6362534951467111  0.9897926760287206  0.0191267499054106  1.0000
  H   H4        1.0  0.8637452237147158  0.0102068527183619  0.5191259931895544  1.0000
  H   H5        1.0  0.2175271925450275  0.34886694472101  0.8374877033673869  1.0000
  H   H6        1.0  0.2824720057739967  0.6511334210650048  0.3374854332198254  1.0000
  H   H7        1.0  0.7175252669596901  0.1511340752109263  0.1625130533484693  1.0000
  H   H8        1.0  0.7824734519017298  0.8488646164972239  0.6625122966326131  1.0000
  H   H9        1.0  0.5362574767577115  0.6115707760155189  0.8352932273931162  1.0000
  H   H10       1.0  0.9637423660080628  0.3884295897704959  0.335293984108965  1.0000
  H   H11       1.0  0.0362549067256239  0.8884289356245674  0.164706015891035  1.0000
  H   H12       1.0  0.4637442915934002  0.1115697560835827  0.664706772606884  1.0000
  H   H13       1.0  0.5622736147974194  0.46991449261449963  0.7028497919031409  1.0000
  H   H14       1.0  0.9377251040640076  0.5300850361325828  0.2028513053348462  1.0000
  H   H15       1.0  0.0622732925740408  0.0300848532395719  0.2971479379492976  1.0000
  H   H16       1.0  0.4377270296493379  0.9699146755075105  0.7971486946651539  1.0000
  H   H17       1.0  0.6508192956043928  0.3463315538005673  0.8413038214150604  1.0000
  H   H18       1.0  0.8491805471613887  0.6536688119854475  0.3413045781309095  1.0000
  H   H19       1.0  0.1508189733810141  0.1536686290924436  0.15869542186909064  1.0000
  H   H20       1.0  0.34918022493801  0.8463300626157135  0.6586969353007959  1.0000
  H   H21       1.0  0.6470485964890003  0.2734597815512743  0.723026863412791  1.0000
  H   H22       1.0  0.8529489984680723  0.7265397471958083  0.2230276201286401  1.0000
  H   H23       1.0  0.1470493981699761  0.2265395643028043  0.2769716231555037  1.0000
  H   H24       1.0  0.3529509240534026  0.7734591274053457  0.7769731365872091  1.0000
  H   H25       1.0  0.5046060822755081  0.24797613131258342  0.8143927355278111  1.0000
  H   H26       1.0  0.9953926365859189  0.752023397434499  0.3143927355278109  1.0000
  H   H27       1.0  0.0046080078608455  0.2520240515804204  0.1856072644721891  1.0000
  H   H28       1.0  0.4953923143625332  0.747975477166662  0.6856072644721891  1.0000
  H   H29       1.0  0.2186623359448916  0.1865466812430512  0.948642451759362  1.0000
  H   H30       1.0  0.2813368623741326  0.8134561956597537  0.4486432084752181  1.0000
  H   H31       1.0  0.7186637820726247  0.3134526646110203  0.0513567915247819  1.0000
  H   H32       1.0  0.7813371845975112  0.6865468641360621  0.5513567915247819  1.0000
  H   H33       1.0  0.3716628076814956  0.0209828919094548  0.0547695800227004  1.0000
  H   H34       1.0  0.1283375145418901  0.9790208220322826  0.5547688233068513  1.0000
  H   H35       1.0  0.8716631299048743  0.4790181280224814  0.9452304199772996  1.0000
  H   H36       1.0  0.6283367128609072  0.5209830748024586  0.4452304199772996  1.0000
  H   H37       1.0  0.0658754060359925  0.8670333835223829  0.8542482027998517  1.0000
  H   H38       1.0  0.4341260400917477  0.1329669822636319  0.35424744608399555  1.0000
  H   H39       1.0  0.5658734804506551  0.6329654910787781  0.1457517972001483  1.0000
  H   H40       1.0  0.9341241145064104  0.3670340376683043  0.6457510404842992  1.0000
  H   H41       1.0  0.9389063275424832  0.0282793602665166  0.778119561104802  1.0000
  H   H42       1.0  0.5610946391276528  0.9717201684805659  0.278119561104802  1.0000
  H   H43       1.0  0.438907129223459  0.471719985587562  0.2218796821793418  1.0000
  H   H44       1.0  0.061094316904274096  0.5282795431595204  0.7218796821793418  1.0000
  H   H45       1.0  0.8456402484390324  0.1463579310735668  0.9176852062050713  1.0000
  H   H46       1.0  0.6543595943267492  0.8536424347124482  0.4176859629209204  1.0000
  H   H47       1.0  0.3456399262156538  0.3536422518194442  0.0823147937949287  1.0000
  H   H48       1.0  0.1543603960077249  0.6463581139665706  0.5823147937949287  1.0000
  H   H49       1.0  0.8388136533788497  0.2184864127525898  0.7993855467272013  1.0000
  H   H50       1.0  0.6611861893869317  0.781513953033425  0.2993855467272013  1.0000
  H   H51       1.0  0.3388122072511095  0.2815137701404211  0.2006144532727987  1.0000
  H   H52       1.0  0.1611869910679147  0.7184865956455937  0.7006144532727987  1.0000
  H   H53       1.0  0.980279494706707  0.2526610382065257  0.8887559591373417  1.0000
  H   H54       1.0  0.5197203480590744  0.7473393275794892  0.3887559591373417  1.0000
  H   H55       1.0  0.4802780485789739  0.24733830764755282  0.11124404086265831  1.0000
  H   H56       1.0  0.0197200258356958  0.7526612210995296  0.6112440408626583  1.0000
  C   C1        1.0  0.23153890815505923  0.5065483384462084  0.930108967082859  1.0000
  C   C2        1.0  0.2684636618770355  0.4934520273398064  0.4301051835035921  1.0000
  C   C3        1.0  0.7315347347610128  0.9934522102328103  0.0698933030647026  1.0000
  C   C4        1.0  0.7684651080047686  0.0065464814753398  0.5698933030647026  1.0000
  C   C5        1.0  0.2705170351360024  0.4260754156691604  0.8608921679909187  1.0000
  C   C6        1.0  0.22948553489609222  0.5739249501168544  0.3608891411275081  1.0000
  C   C7        1.0  0.7705139856463106  0.0739239301849182  0.1391101021566428  1.0000
  C   C8        1.0  0.7294847332151164  0.9260747615232319  0.6391093454407866  1.0000
  C   C9        1.0  0.4358546049917393  0.5647719294119753  0.8553030646992071  1.0000
  C   C10       1.0  0.0641468411359938  0.4352284363740395  0.355303064699207  1.0000
  C   C11       1.0  0.935852679406409  0.9352277822281111  0.1446961785849439  1.0000
  C   C12       1.0  0.5641471633593724  0.0647709094800391  0.644696935300793  1.0000
  C   C13       1.0  0.4856244616019083  0.4070411503898796  0.7352841468028757  1.0000
  C   C14       1.0  0.0143724889083998  0.5929592153961352  0.2352841468028757  1.0000
  C   C15       1.0  0.9856259077296413  0.0929590325031313  0.264714339765419  1.0000
  C   C16       1.0  0.5143750589404945  0.9070396592050258  0.7647150964812681  1.0000
  C   C17       1.0  0.3825365823287257  0.3642324683679661  0.6498062807415792  1.0000
  C   C18       1.0  0.117461492085944  0.635766223340184  0.1498062807415792  1.0000
  C   C19       1.0  0.8825380284564588  0.1357668774861125  0.3501929625425646  1.0000
  C   C20       1.0  0.6174629382136771  0.8642326512609699  0.8501929625425648  1.0000
  C   C21       1.0  0.5780183909248677  0.3125143439699443  0.7817495270525896  1.0000
  C   C22       1.0  0.9219803279365593  0.6874860218160636  0.2817502837684458  1.0000
  C   C23       1.0  0.0780180687014891  0.18748583892305962  0.2182497162315542  1.0000
  C   C24       1.0  0.4219811296175351  0.8125136898240229  0.7182504729474105  1.0000
  C   C25       1.0  0.2100700871409558  0.096258639967111  0.9456473704124093  1.0000
  C   C26       1.0  0.2899291111780684  0.9037442369356938  0.4456473704124093  1.0000
  C   C27       1.0  0.7100715332686889  0.4037415429258999  0.05435338630343981  1.0000
  C   C28       1.0  0.7899305573058015  0.5962588228601149  0.5543518728717345  1.0000
  C   C29       1.0  0.2861752706280143  0.0137918904576395  0.9967302307983346  1.0000
  C   C30       1.0  0.2138239276910099  0.9862118234840977  0.4967302307983346  1.0000
  C   C31       1.0  0.7861767167557474  0.4862082924353643  0.0032705259175145  1.0000
  C   C32       1.0  0.7138242499143886  0.5137903992727857  0.5032690124858092  1.0000
  C   C33       1.0  0.1300638316331657  0.930415645416744  0.8944351116155859  1.0000
  C   C34       1.0  0.3699376144945674  0.0695847203692708  0.394435868331442  1.0000
  C   C35       1.0  0.6300641538565444  0.5695840662233493  0.1055648883844142  1.0000
  C   C36       1.0  0.8699368128135916  0.4304162995626656  0.605564131668558  1.0000
  C   C37       1.0  0.012157273422133104  0.0949344443790778  0.8076806659099489  1.0000
  C   C38       1.0  0.4878430488012527  0.9050667584458624  0.3076814226258051  1.0000
  C   C39       1.0  0.5121575956455118  0.40506490147500074  0.1923193340900511  1.0000
  C   C40       1.0  0.9878422471202697  0.5949337902331564  0.6923185773741949  1.0000
  C   C41       1.0  0.1042949525518537  0.1424297073727914  0.7178047673098717  1.0000
  C   C42       1.0  0.3957042457671704  0.8575706584132236  0.2178055240257279  1.0000
  C   C43       1.0  0.6042952747752324  0.3575696384812872  0.2821944759742721  1.0000
  C   C44       1.0  0.8957045679905491  0.6424298902657952  0.7821937192584159  1.0000
  C   C45       1.0  0.9133015384971871  0.1837275341251683  0.8570291335603457  1.0000
  C   C46       1.0  0.5866983042685945  0.8162736686997718  0.35702913356034577  1.0000
  C   C47       1.0  0.4133012162738084  0.3162726487678356  0.1429716231555034  1.0000
  C   C48       1.0  0.0866991059495703  0.6837268799792469  0.6429708664396543  1.0000
  N   N1        1.0  0.33527528024182374  0.5925222810744231  0.9256836927733616  1.0000
  N   N2        1.0  0.1647295375989799  0.4074780847115917  0.4256814226258072  1.0000
  N   N3        1.0  0.835269982943423  0.9074774305656703  0.0743178206583437  1.0000
  N   N4        1.0  0.6647298598223585  0.09252209818141212  0.5743178206583437  1.0000
  N   N5        1.0  0.3992580313418017  0.4648353403843046  0.8135883465758624  1.0000
  N   N6        1.0  0.1007411669772225  0.5351650254017102  0.3135891032917115  1.0000
  N   N7        1.0  0.8992572296608258  0.0351648425086992  0.1864108967082885  1.0000
  N   N8        1.0  0.6007426131049557  0.9648346862383832  0.6864108967082886  1.0000
  N   N9        1.0  0.23525790767006072  0.9108347937158499  0.9640242149073046  1.0000
  N   N10       1.0  0.2647424145533179  0.0891680831869479  0.4640227014755994  1.0000
  N   N11       1.0  0.7352582298934394  0.5891649179242364  0.0359765418085516  1.0000
  N   N12       1.0  0.7647416128723421  0.41083461082284606  0.5359750283768463  1.0000
  N   N13       1.0  0.111037254785316  0.0420921766974161  0.8818009837306066  1.0000
  N   N14       1.0  0.3889630674380626  0.9579090261275311  0.3818017404464626  1.0000
  N   N15       1.0  0.6110364531043402  0.4579071691566625  0.1181990162693936  1.0000
  N   N16       1.0  0.8889633896614413  0.5420923595904199  0.6181982595535374  1.0000
  O   O1        1.0  0.4418472630195467  0.3029369445273105  0.5817396897464988  1.0000
  O   O2        1.0  0.0581519352994775  0.6970592360640495  0.0817374195989373  1.0000
  O   O3        1.0  0.9418487091472797  0.197062401326761  0.4182603102535012  1.0000
  O   O4        1.0  0.5581522575228561  0.8029379644592467  0.9182618236852065  1.0000
  O   O5        1.0  0.24474366043725843  0.3899295635339257  0.6516647748770339  1.0000
  O   O6        1.0  0.25525553788176586  0.6100691281742243  0.1516647748770339  1.0000
  O   O7        1.0  0.7447451065649987  0.1100689452812205  0.3483359818388224  1.0000
  O   O8        1.0  0.7552558601051444  0.8899289093880043  0.8483359818388223  1.0000
  O   O9        1.0  0.24416709750247634  0.1322898177688643  0.7175716988270935  1.0000
  O   O10       1.0  0.2558321008165478  0.8677097109782183  0.2175724555429426  1.0000
  O   O11       1.0  0.744167419725855  0.3677103651241396  0.2824283011729065  1.0000
  O   O12       1.0  0.7558324230399266  0.6322900006618752  0.7824275444570574  1.0000
  O   O13       1.0  0.0237188775354156  0.18862086371279932  0.6486129398410867  1.0000
  O   O14       1.0  0.4762791968792471  0.8113786650342831  0.1486144532727991  1.0000
  O   O15       1.0  0.5237191997588013  0.3113784821412793  0.3513870601589133  1.0000
  O   O16       1.0  0.9762806430069801  0.6886202095668779  0.8513863034430572  1.0000
