data_image0
_chemical_formula_structural       Cu3H24C14N26O2
_chemical_formula_sum              "Cu3 H24 C14 N26 O2"
_cell_length_a       7.814623536533595
_cell_length_b       9.364045961193222
_cell_length_c       11.034673972686205
_cell_angle_alpha    100.88119261864566
_cell_angle_beta     103.84473845412
_cell_angle_gamma    108.86828050445331

_space_group_name_H-M_alt    "P 1"
_space_group_IT_number       1

loop_
  _space_group_symop_operation_xyz
  'x, y, z'

loop_
  _atom_site_type_symbol
  _atom_site_label
  _atom_site_symmetry_multiplicity
  _atom_site_fract_x
  _atom_site_fract_y
  _atom_site_fract_z
  _atom_site_occupancy
  Cu  Cu1       1.0  0.44476563043654943  0.15781112213773696  0.10063403167288237  1.0000
  Cu  Cu2       1.0  0.5570107025144466  0.8426027518128549  0.8994745724668006  1.0000
  Cu  Cu3       1.0  0.9982878827464249  0.9983985773705656  0.9993275745690722  1.0000
  H   H1        1.0  0.9728107856466937  0.1465469142935447  0.5668559252527459  1.0000
  H   H2        1.0  0.027408939032113725  0.853280112193211  0.4332227364878064  1.0000
  H   H3        1.0  0.7109676964172919  0.8937844056174526  0.4082989078070724  1.0000
  H   H4        1.0  0.2890437215252533  0.1060677315426375  0.5918771424011168  1.0000
  H   H5        1.0  0.4965939015890585  0.9214705154534429  0.2086373201286803  1.0000
  H   H6        1.0  0.5037672818222774  0.078422341870386  0.7914049982000434  1.0000
  H   H7        1.0  0.6903815090099812  0.4504627028347699  0.2697690131615005  1.0000
  H   H8        1.0  0.3095754231274698  0.5495631429706337  0.7305457764406356  1.0000
  H   H9        1.0  0.9009071678617107  0.5359805293479882  0.41061282022301526  1.0000
  H   H10       1.0  0.0991100656790067  0.4639460290712307  0.5896158420849033  1.0000
  H   H11       1.0  0.2960410990012505  0.5095613032152072  0.048408982188902834  1.0000
  H   H12       1.0  0.704046839765674  0.49045748076215995  0.9516087797890265  1.0000
  H   H13       1.0  0.48276230854999386  0.5037749846150916  0.3789911625110917  1.0000
  H   H14       1.0  0.5172777892017137  0.4962767785434322  0.6210264277478572  1.0000
  H   H15       1.0  0.2540379895018745  0.48242095901201754  0.3946512204576322  1.0000
  H   H16       1.0  0.7458618251032548  0.5174887261309423  0.6051869670692511  1.0000
  H   H17       1.0  0.4406643860107664  0.6743839949952033  0.4436282264344128  1.0000
  H   H18       1.0  0.559324040784432  0.3255656188276248  0.5564741394890191  1.0000
  H   H19       1.0  0.13320098826951476  0.6367853222542054  0.11223130252727737  1.0000
  H   H20       1.0  0.8669446201546194  0.3632356418840105  0.8877412857709783  1.0000
  H   H21       1.0  0.2380337132399363  0.7662243700811048  0.2745861985713844  1.0000
  H   H22       1.0  0.7618785462369075  0.23377665036786507  0.7254107994266332  1.0000
  H   H23       1.0  0.04969600368935557  0.5792189789907526  0.23916768070627367  1.0000
  H   H24       1.0  0.9503452711267569  0.42070286805235924  0.7607643423943456  1.0000
  C   C1        1.0  0.7716760655991166  0.29617727367171637  0.35546653666273886  1.0000
  C   C2        1.0  0.2284620999440179  0.7037289504761404  0.6446824186797072  1.0000
  C   C3        1.0  0.8718690318899505  0.14743206940100606  0.4794441887553518  1.0000
  C   C4        1.0  0.12833414459315423  0.8524102968479071  0.5206413441041917  1.0000
  C   C5        1.0  0.7279990156180105  0.007889539094165302  0.3926933178857083  1.0000
  C   C6        1.0  0.27218728224861627  0.9919505365684744  0.6074089331926515  1.0000
  C   C7        1.0  0.60979165474226  0.023154775827507006  0.28469344390370566  1.0000
  C   C8        1.0  0.3904415420405203  0.9767123401655413  0.7153947358995579  1.0000
  C   C9        1.0  0.35829493945354324  0.495546601603479  0.14417633468187313  1.0000
  C   C10       1.0  0.6420194477497603  0.5046549263317816  0.8558778095210542  1.0000
  C   C11       1.0  0.37660274208474925  0.5570055942403085  0.3723392080497233  1.0000
  C   C12       1.0  0.6234077365350856  0.44301665058853257  0.6276614565108429  1.0000
  C   C13       1.0  0.1766302864498002  0.6421857018390682  0.21538992946304344  1.0000
  C   C14       1.0  0.8234365850525764  0.3578246930934981  0.7845921291915727  1.0000
  N   N1        1.0  0.6283489109946601  0.1643423907444657  0.26520724384931066  1.0000
  N   N2        1.0  0.371812858514609  0.8355213165696326  0.7349136180451835  1.0000
  N   N3        1.0  0.8947171340304935  0.2884118917710765  0.4621395891962336  1.0000
  N   N4        1.0  0.10552871943617952  0.7114315729848923  0.5379252482943285  1.0000
  N   N5        1.0  0.7934077577057297  0.4381307850420271  0.3398358839749918  1.0000
  N   N6        1.0  0.2065493709834811  0.5617912087779969  0.6604308195357332  1.0000
  N   N7        1.0  0.21770303695328155  0.10227259818917393  0.9372005082454962  1.0000
  N   N8        1.0  0.782103129743156  0.8980870301257085  0.06381480760305175  1.0000
  N   N9        1.0  0.2065344121143795  0.18893291577497712  0.8691788631870735  1.0000
  N   N10       1.0  0.7928734072273613  0.81060343405494  0.13098379047028882  1.0000
  N   N11       1.0  0.19454362391055474  0.26845246362906044  0.8011835220964372  1.0000
  N   N12       1.0  0.80439090359819  0.7309566328665582  0.19897860021644218  1.0000
  N   N13       1.0  0.21836810248571234  0.04998737331536061  0.16069333069243896  1.0000
  N   N14       1.0  0.7816523494229345  0.9511395702897829  0.8383597479447288  1.0000
  N   N15       1.0  0.21443215072404345  0.10653884324300832  0.2682763394666807  1.0000
  N   N16       1.0  0.785028630020527  0.8929648630652807  0.731081759636801  1.0000
  N   N17       1.0  0.21355444239365076  0.1586971173364944  0.37210995865405744  1.0000
  N   N18       1.0  0.7851294073502971  0.8400805853759792  0.6271659919722835  1.0000
  N   N19       1.0  0.6322375970781664  0.2042670097156005  0.007867134750412697  1.0000
  N   N20       1.0  0.36795692332829333  0.7965073594199126  0.9916844421090544  1.0000
  N   N21       1.0  0.7984423717433132  0.2293552568075441  0.054605383006666744  1.0000
  N   N22       1.0  0.20183762188927548  0.7716833925868655  0.9453458644862778  1.0000
  N   N23       1.0  0.9611889459183801  0.2521754055586243  0.09237980738132015  1.0000
  N   N24       1.0  0.03909239824933758  0.7492097910175702  0.9079245503213472  1.0000
  N   N25       1.0  0.31496887376943045  0.5699508763728572  0.241337704628087  1.0000
  N   N26       1.0  0.685239114164844  0.4302175800298755  0.7586959236837599  1.0000
  O   O1        1.0  0.46245724030031005  0.4183880876902251  0.157106787966498  1.0000
  O   O2        1.0  0.538004003899168  0.581986638084551  0.8429542574759025  1.0000
