data_image0
_chemical_formula_structural       Cu12H72C32S4N8Cl12O4
_chemical_formula_sum              "Cu12 H72 C32 S4 N8 Cl12 O4"
_cell_length_a       10.632151739
_cell_length_b       11.322704502530614
_cell_length_c       12.7492
_cell_angle_alpha    90.0
_cell_angle_beta     90.0
_cell_angle_gamma    106.88306219516025

_space_group_name_H-M_alt    "P 1"
_space_group_IT_number       1

loop_
  _space_group_symop_operation_xyz
  'x, y, z'

loop_
  _atom_site_type_symbol
  _atom_site_label
  _atom_site_symmetry_multiplicity
  _atom_site_fract_x
  _atom_site_fract_y
  _atom_site_fract_z
  _atom_site_occupancy
  Cu  Cu1       1.0  0.08124911428246412  0.7950361257994701  0.414326389106769  1.0000
  Cu  Cu2       1.0  0.418751258374904  0.7049643290358745  0.914326389106769  1.0000
  Cu  Cu3       1.0  0.9187499894203202  0.2049638697703173  0.58567439525617  1.0000
  Cu  Cu4       1.0  0.5812497264146472  0.2950356665339129  0.08567204216735289  1.0000
  Cu  Cu5       1.0  0.176775046448526  0.4697697836718007  0.4193784708060093  1.0000
  Cu  Cu6       1.0  0.3232272849442026  0.030231598555090503  0.9193792551689484  1.0000
  Cu  Cu7       1.0  0.8232268788844124  0.5302302118979796  0.5806199604681055  1.0000
  Cu  Cu8       1.0  0.6767727593019687  0.9697683970146899  0.08061996046810552  1.0000
  Cu  Cu9       1.0  0.06633432904334312  0.538128915010013  0.5824569384745715  1.0000
  Cu  Cu10      1.0  0.433666043614032  0.9618715398253387  0.0824585072004496  1.0000
  Cu  Cu11      1.0  0.9336663702909648  0.4618701575984403  0.41754149279955033  1.0000
  Cu  Cu12      1.0  0.5663333455440026  0.0381293787057828  0.9175414927995504  1.0000
  H   H1        1.0  0.2650297474850802  0.2413036264459265  0.3815392338342818  1.0000
  H   H2        1.0  0.23497013191038013  0.2586959098582966  0.8815408025601599  1.0000
  H   H3        1.0  0.7349743443898833  0.7586972920851951  0.6184623348916034  1.0000
  H   H4        1.0  0.7650261501622425  0.7413040857114909  0.11845919743984011  1.0000
  H   H5        1.0  0.40278494148399363  0.3560591011749423  0.4325102751545202  1.0000
  H   H6        1.0  0.0972155929996106  0.14393951216794681  0.9325118438803983  1.0000
  H   H7        1.0  0.5972179243923322  0.6439408943948379  0.5674897248454798  1.0000
  H   H8        1.0  0.9027825701597864  0.8560604834018407  0.0674897248454798  1.0000
  H   H9        1.0  0.5399490926160766  0.29359584685001755  0.3148260282998124  1.0000
  H   H10       1.0  0.9600506232188906  0.20640368945420562  0.8148275970256974  1.0000
  H   H11       1.0  0.46005254726161854  0.7064032257584358  0.6851739717001877  1.0000
  H   H12       1.0  0.03994725448525572  0.7935953831542406  0.1851731873372415  1.0000
  H   H13       1.0  0.4022462974095973  0.1793443090103608  0.2635279076334172  1.0000
  H   H14       1.0  0.09775329653061252  0.3206543043325283  0.7635294763593024  1.0000
  H   H15       1.0  0.59775411646946  0.8206538406367514  0.7364728767295219  1.0000
  H   H16       1.0  0.9022436406301467  0.679344768275925  0.2364720923665828  1.0000
  H   H17       1.0  0.469394170933839  0.5575987843893344  0.3578938286323847  1.0000
  H   H18       1.0  0.03060788153270272  0.9423979786006669  0.8578938286323847  1.0000
  H   H19       1.0  0.5306081240319926  0.4423993652577778  0.6421069557305543  1.0000
  H   H20       1.0  0.9693937583449924  0.0576010940077794  0.1421046026417372  1.0000
  H   H21       1.0  0.3796565609619762  0.5955712596680272  0.2511483073447778  1.0000
  H   H22       1.0  0.1203447522387791  0.9044291951673173  0.7511483073447778  1.0000
  H   H23       1.0  0.6203456498262128  0.40442965886309423  0.7488509082922832  1.0000
  H   H24       1.0  0.8796562325507721  0.09557080040247  0.24885012392934414  1.0000
  H   H25       1.0  0.5147294265921047  0.5331643059845846  0.1316482602830007  1.0000
  H   H26       1.0  0.9852695565061396  0.9668352258894259  0.6316490446459397  1.0000
  H   H27       1.0  0.4852703321988159  0.4668347666238688  0.8683517397169992  1.0000
  H   H28       1.0  0.014729832651887903  0.03316569264169541  0.3683493866281822  1.0000
  H   H29       1.0  0.6067022523420533  0.4987027756273861  0.2380133655445036  1.0000
  H   H30       1.0  0.8932971780376633  0.001295837715503  0.7380157186333278  1.0000
  H   H31       1.0  0.393298161537011  0.5012953740197261  0.7619858500925574  1.0000
  H   H32       1.0  0.10670286620850081  0.9987041578542843  0.2619850657296112  1.0000
  H   H33       1.0  0.19494460824017076  0.4415705459782089  0.1800348257145572  1.0000
  H   H34       1.0  0.3050555566105401  0.0584299132873554  0.6800348257145572  1.0000
  H   H35       1.0  0.8050567461822737  0.5584276036689104  0.8199651742854428  1.0000
  H   H36       1.0  0.694944487635631  0.941570082282432  0.3199628211966257  1.0000
  H   H37       1.0  0.1444635943078367  0.2913327456545645  0.23590499796065958  1.0000
  H   H38       1.0  0.3555356299994799  0.2086677136109998  0.7359049979606594  1.0000
  H   H39       1.0  0.8555380455698512  0.7086663269538889  0.7640957864022866  1.0000
  H   H40       1.0  0.6444628186151604  0.7913332049201216  0.2640942176764014  1.0000
  H   H41       1.0  0.283165392112906  0.2282760271906952  0.1172167665422137  1.0000
  H   H42       1.0  0.21683326128392374  0.27172258615219397  0.6172167665422137  1.0000
  H   H43       1.0  0.7168356768542951  0.7717211994950831  0.8827840178207252  1.0000
  H   H44       1.0  0.7831642467873366  0.7282783323789275  0.3827832334577863  1.0000
  H   H45       1.0  0.33015630465857276  0.3791654382174343  0.062470586389736106  1.0000
  H   H46       1.0  0.169842348738257  0.1208331751254548  0.5624713707526752  1.0000
  H   H47       1.0  0.6698450497638717  0.6208327114296779  0.9375301979732029  1.0000
  H   H48       1.0  0.8301560998763905  0.8791677434056666  0.4375286292473248  1.0000
  H   H49       1.0  0.33058823442461016  0.7343735690407415  0.5296614689549131  1.0000
  H   H50       1.0  0.1694109122341274  0.7656259628332691  0.029660684591974  1.0000
  H   H51       1.0  0.6694099287347868  0.2656264265290389  0.4703385310450869  1.0000
  H   H52       1.0  0.8305903580106744  0.2343749556978594  0.9703393154080261  1.0000
  H   H53       1.0  0.3087648942030725  0.8490976630843434  0.6182293790982953  1.0000
  H   H54       1.0  0.19123331191227783  0.650901868789667  0.11822937909829531  1.0000
  H   H55       1.0  0.6912320429576938  0.1509014095241028  0.3817706209017047  1.0000
  H   H56       1.0  0.808767017789137  0.3490990497414543  0.8817706209017047  1.0000
  H   H57       1.0  0.4619866485985328  0.8774150398289251  0.5462648636777203  1.0000
  H   H58       1.0  0.0380124980602048  0.6225844920450854  0.04626486367772031  1.0000
  H   H59       1.0  0.5380121696490008  0.12258403277952111  0.4537351363222797  1.0000
  H   H60       1.0  0.9619878316412099  0.377416426486036  0.9537351363222797  1.0000
  H   H61       1.0  0.35532160781908567  0.9172592806966834  0.2652919398864242  1.0000
  H   H62       1.0  0.1446784793830389  0.5827402511773272  0.7652919398864242  1.0000
  H   H63       1.0  0.6446768407955545  0.0827416378344381  0.7347072757506368  1.0000
  H   H64       1.0  0.8553209097749886  0.4172606673537942  0.2347080601135758  1.0000
  H   H65       1.0  0.366105062747117  0.777334650339597  0.3253506102343664  1.0000
  H   H66       1.0  0.1338947389997571  0.7226639585730794  0.8253490415084883  1.0000
  H   H67       1.0  0.6338925295017859  0.2226634993075152  0.6746486054026946  1.0000
  H   H68       1.0  0.8661055907016574  0.277336959958042  0.1746517428544507  1.0000
  H   H69       1.0  0.4885252146403758  0.922505392929537  0.3544810654786161  1.0000
  H   H70       1.0  0.011474872561755887  0.5774941389444734  0.8544802811156771  1.0000
  H   H71       1.0  0.5114736036071648  0.0774936796789092  0.6455189345213839  1.0000
  H   H72       1.0  0.9885248020515222  0.422507702547982  0.145520503247262  1.0000
  C   C1        1.0  0.350287676531245  0.31867270634450057  0.3600484736297176  1.0000
  C   C2        1.0  0.14971191740897183  0.1813259069983886  0.8600500423555957  1.0000
  C   C3        1.0  0.6497105708058015  0.6813245203412777  0.6399515263702824  1.0000
  C   C4        1.0  0.8502874717490558  0.8186750115327328  0.1399499576444043  1.0000
  C   C5        1.0  0.4409606967079753  0.2776000039387583  0.2824687039186742  1.0000
  C   C6        1.0  0.0590401232308722  0.2223995323654719  0.7824694882816203  1.0000
  C   C7        1.0  0.5590418837131069  0.7223990686696952  0.717532080444265  1.0000
  C   C8        1.0  0.9409589804719118  0.7776004632043154  0.2175312960813258  1.0000
  C   C9        1.0  0.4167582684848767  0.5228751330127608  0.2848147334734747  1.0000
  C   C10       1.0  0.08324521125789637  0.9771262447839251  0.7848139491105357  1.0000
  C   C11       1.0  0.5832445973914488  0.47712486255702663  0.7151860508894643  1.0000
  C   C12       1.0  0.9167540937224885  0.022877442631205704  0.21518605088946433  1.0000
  C   C13       1.0  0.5073986172754418  0.4825574129797232  0.2059540990807278  1.0000
  C   C14       1.0  0.9925998725608879  0.0174412003631659  0.7059556678066059  1.0000
  C   C15       1.0  0.4926020820588661  0.5174416596287301  0.7940427634675089  1.0000
  C   C16       1.0  0.007398290598509002  0.9825587952066145  0.2940451165563331  1.0000
  C   C17       1.0  0.23028985776164754  0.3680852873808007  0.2140338217299913  1.0000
  C   C18       1.0  0.26971124763244353  0.1319151718847564  0.7140346060929303  1.0000
  C   C19       1.0  0.7697108415726605  0.6319137852276455  0.7859661782700087  1.0000
  C   C20       1.0  0.7302871168045542  0.8680885155303741  0.2859661782700087  1.0000
  C   C21       1.0  0.3207998751191994  0.32682614678521565  0.1359128415900628  1.0000
  C   C22       1.0  0.1791988624552729  0.1731696976736643  0.6359136259530018  1.0000
  C   C23       1.0  0.6791987418507331  0.6731692339778874  0.8640879427728834  1.0000
  C   C24       1.0  0.8208005267027546  0.8268312208574573  0.3640871584099372  1.0000
  C   C25       1.0  0.35505566441614894  0.8340810821503979  0.5445667179117137  1.0000
  C   C26       1.0  0.14494254169920143  0.6659184497236126  0.0445659335487747  1.0000
  C   C27       1.0  0.6449409872893668  0.1659170674967143  0.4554332820882863  1.0000
  C   C28       1.0  0.8550577880022133  0.33408246880750886  0.9554340664512253  1.0000
  C   C29       1.0  0.3852227515458679  0.8770089368411648  0.335954412825906  1.0000
  C   C30       1.0  0.11477893128778052  0.6229896720715119  0.8359520597370818  1.0000
  C   C31       1.0  0.6147770072450527  0.12299013576728872  0.6640487246258573  1.0000
  C   C32       1.0  0.8852216838688847  0.3770121694209436  0.1640487246258573  1.0000
  S   S1        1.0  0.2848526744591667  0.9021402510544618  0.44176732657735585  1.0000
  S   S2        1.0  0.2151470431100648  0.5978611267422167  0.9417673265773558  1.0000
  S   S3        1.0  0.7151461437883669  0.09785882155398443  0.5582326734226442  1.0000
  S   S4        1.0  0.7848530011361063  0.40213886882756367  0.0582326734226442  1.0000
  N   N1        1.0  0.3016735446242507  0.4169496293836232  0.3125505914096536  1.0000
  N   N2        1.0  0.1983272753145968  0.083049906920607  0.8125505914096607  1.0000
  N   N3        1.0  0.6983274401653077  0.5830503661861641  0.6874486242274003  1.0000
  N   N4        1.0  0.8016715429329366  0.9169491656878465  0.1874486242274003  1.0000
  N   N5        1.0  0.4541273732454911  0.3481890098643277  0.1821714303642565  1.0000
  N   N6        1.0  0.04587185106183261  0.15181144940123661  0.6821737834530808  1.0000
  N   N7        1.0  0.5458767186294722  0.6518119086667937  0.8178277852728044  1.0000
  N   N8        1.0  0.9541268830080584  0.8481903920912259  0.3178262165469192  1.0000
  Cl  Cl1       1.0  0.01021630441096731  0.7217705319999936  0.5835754400276087  1.0000
  Cl  Cl2       1.0  0.48978406824640797  0.7782299228353509  0.0835762243905478  1.0000
  Cl  Cl3       1.0  0.9897837398352038  0.2782294635697937  0.4164253443353303  1.0000
  Cl  Cl4       1.0  0.5102165469102573  0.22177191865710452  0.9164222068835671  1.0000
  Cl  Cl5       1.0  0.2650878141547395  0.5058077319906005  0.583602892730525  1.0000
  Cl  Cl6       1.0  0.23491161795924145  0.9941927228447441  0.083602108367586  1.0000
  Cl  Cl7       1.0  0.7349137415453058  0.4941941095018549  0.4163963229065359  1.0000
  Cl  Cl8       1.0  0.7650872002882922  0.005806349763702201  0.9163963229065358  1.0000
  Cl  Cl9       1.0  0.8936860994382627  0.387742517911299  0.6747466507702455  1.0000
  Cl  Cl10      1.0  0.6063145569400916  0.11225701839292411  0.1747466507702455  1.0000
  Cl  Cl11      1.0  0.1063139448079085  0.6122574776584884  0.3252517805038764  1.0000
  Cl  Cl12      1.0  0.3936864278494596  0.8877429771768562  0.8252517805038764  1.0000
  O   O1        1.0  0.3208232604996297  0.0387496087234638  0.4617952498980316  1.0000
  O   O2        1.0  0.1791766188958377  0.46124992758075933  0.9617952498980316  1.0000
  O   O3        1.0  0.6791758432031543  0.9612503868463236  0.5382047501019684  1.0000
  O   O4        1.0  0.8208245671713215  0.5387537598343641  0.0382047501019684  1.0000
