data_image0
_chemical_formula_structural       Zn4Mo4H36C40N12O16
_chemical_formula_sum              "Zn4 Mo4 H36 C40 N12 O16"
_cell_length_a       6.373889972512833
_cell_length_b       9.502495042859495
_cell_length_c       22.196279775103708
_cell_angle_alpha    89.99965020850561
_cell_angle_beta     90.00008543088195
_cell_angle_gamma    107.9655116600722

_space_group_name_H-M_alt    "P 1"
_space_group_IT_number       1

loop_
  _space_group_symop_operation_xyz
  'x, y, z'

loop_
  _atom_site_type_symbol
  _atom_site_label
  _atom_site_symmetry_multiplicity
  _atom_site_fract_x
  _atom_site_fract_y
  _atom_site_fract_z
  _atom_site_occupancy
  Zn  Zn1       1.0  0.8403978063252708  0.3562291704732274  0.46834261575429537  1.0000
  Zn  Zn2       1.0  0.6596000609228271  0.6437693869816387  0.9683417545899925  1.0000
  Zn  Zn3       1.0  0.15960494716593138  0.6437724895933742  0.531658557098339  1.0000
  Zn  Zn4       1.0  0.3403985659999478  0.3562267437512006  0.031657616165176684  1.0000
  Mo  Mo1       1.0  0.5905211916888506  0.48412427798282215  0.5826746164260825  1.0000
  Mo  Mo2       1.0  0.9094799561398973  0.5158754701799779  0.0826728373912289  1.0000
  Mo  Mo3       1.0  0.4094799938790885  0.5158773841979639  0.4173274574781017  1.0000
  Mo  Mo4       1.0  0.09051761459017639  0.4841217689704252  0.917326082836311  1.0000
  H   H1        1.0  0.6576237159281749  0.8878043494051301  0.42840635919544906  1.0000
  H   H2        1.0  0.8423731597138371  0.11219589864417402  0.9284065183570288  1.0000
  H   H3        1.0  0.34237695791211564  0.1121962064985453  0.5715934620803294  1.0000
  H   H4        1.0  0.15762386655228533  0.8878035552107595  0.07159285239344369  1.0000
  H   H5        1.0  0.8840748062178534  0.43424117777203725  0.3423331185723768  1.0000
  H   H6        1.0  0.6159310717003168  0.5657625270355454  0.8423324424572485  1.0000
  H   H7        1.0  0.1159279472748126  0.5657604823076954  0.6576662521764616  1.0000
  H   H8        1.0  0.38407273798504354  0.4342380246266232  0.15766737881921958  1.0000
  H   H9        1.0  0.8084699272767822  0.31803762547397  0.24030669725778608  1.0000
  H   H10       1.0  0.6915371063698361  0.681973100247248  0.7403071016698134  1.0000
  H   H11       1.0  0.19153647378895766  0.6819651366446494  0.7596944755942017  1.0000
  H   H12       1.0  0.308467215044992  0.3180285577084519  0.2596927196053115  1.0000
  H   H13       1.0  0.6780729707022175  0.039063243738816304  0.2348331434987116  1.0000
  H   H14       1.0  0.8219252087237409  0.9609453597806307  0.734835127509612  1.0000
  H   H15       1.0  0.3219255907526774  0.9609395289999869  0.765165776721801  1.0000
  H   H16       1.0  0.1780702168853523  0.03905741719312061  0.2651646937621094  1.0000
  H   H17       1.0  0.6336087300467458  0.8915736235342496  0.3303209931800025  1.0000
  H   H18       1.0  0.8663924635278235  0.10843026272147684  0.8303238758493164  1.0000
  H   H19       1.0  0.3663961358324102  0.10842581972021041  0.6696779270462512  1.0000
  H   H20       1.0  0.133601938621247  0.8915703016553634  0.1696772970029272  1.0000
  H   H21       1.0  0.6681893107691369  0.8001991638848553  0.5178475905864275  1.0000
  H   H22       1.0  0.8318156222087723  0.19979931034969675  0.017848857336375097  1.0000
  H   H23       1.0  0.331817123032188  0.19980027724556496  0.48215178016611293  1.0000
  H   H24       1.0  0.1681782682115555  0.800200147740185  0.9821514144653064  1.0000
  H   H25       1.0  0.7464019311407173  0.8395389069953227  0.6269622377857968  1.0000
  H   H26       1.0  0.7536070174068001  0.16045686391494482  0.12696402383550515  1.0000
  H   H27       1.0  0.25360242300896374  0.1604594299655986  0.3730366824417927  1.0000
  H   H28       1.0  0.24638792920695368  0.8395414857639383  0.8730357974419076  1.0000
  H   H29       1.0  0.89914387954083  0.10605474751587003  0.6653300206030933  1.0000
  H   H30       1.0  0.6008561438847979  0.8939382620965124  0.16533072162947346  1.0000
  H   H31       1.0  0.1008531794590441  0.8939413853344437  0.33466980067768043  1.0000
  H   H32       1.0  0.3991414268449135  0.1060589770506155  0.834668649124019  1.0000
  H   H33       1.0  0.9432612589627141  0.30974739550769936  0.5919652172207178  1.0000
  H   H34       1.0  0.5567304990389347  0.6902489089352388  0.09196417934715126  1.0000
  H   H35       1.0  0.05673317592011537  0.6902498478645145  0.4080364061618198  1.0000
  H   H36       1.0  0.4432717427246261  0.30975164485425216  0.9080347408770704  1.0000
  C   C1        1.0  0.8281236913311288  0.31441152650111104  0.3370211116717029  1.0000
  C   C2        1.0  0.6718816507135444  0.6855944704445562  0.8370214980138541  1.0000
  C   C3        1.0  0.17188219800550553  0.6855901293272667  0.6629796106556681  1.0000
  C   C4        1.0  0.3281195348558513  0.3144071917493606  0.1629787737865342  1.0000
  C   C5        1.0  0.7859649072807996  0.2498342799248548  0.280735178096144  1.0000
  C   C6        1.0  0.7140379344114792  0.7501703270809301  0.7807363149293065  1.0000
  C   C7        1.0  0.2140352548292982  0.7501651696787237  0.7192655442328613  1.0000
  C   C8        1.0  0.28596325115755417  0.24983133510970398  0.21926440739702702  1.0000
  C   C9        1.0  0.7141495298027819  0.09487373590400246  0.2781705209283415  1.0000
  C   C10       1.0  0.7858517153812558  0.905134231617261  0.7781708331161852  1.0000
  C   C11       1.0  0.28585581507025637  0.9051301346321877  0.721830201396017  1.0000
  C   C12       1.0  0.21414217503943436  0.09486522647590331  0.22182898815954383  1.0000
  C   C13       1.0  0.689344135811595  0.0122206101493774  0.3304667747066645  1.0000
  C   C14       1.0  0.8106580482524423  0.9877888075733596  0.8304691340783987  1.0000
  C   C15       1.0  0.3106601856039647  0.9877810478128881  0.6695321455165696  1.0000
  C   C16       1.0  0.18933792182025405  0.012211754692572203  0.16953068719634248  1.0000
  C   C17       1.0  0.7374996517083047  0.08702826001987063  0.3862354924181517  1.0000
  C   C18       1.0  0.7624972921357484  0.9129726027953852  0.8862353233566577  1.0000
  C   C19       1.0  0.2625025900534227  0.9129722937531995  0.6137656804358187  1.0000
  C   C20       1.0  0.2374981662074731  0.0870268531770222  0.11376449791941917  1.0000
  C   C21       1.0  0.7609854058765889  0.0337142496088632  0.4971685716158589  1.0000
  C   C22       1.0  0.739013438210954  0.9662861002098851  0.9971678022589499  1.0000
  C   C23       1.0  0.239020995189513  0.9662885125130458  0.5028321507101764  1.0000
  C   C24       1.0  0.260980963939936  0.03371446418336892  0.0028311179635451995  1.0000
  C   C25       1.0  0.7303351046704522  0.9115541144271478  0.5362370266371314  1.0000
  C   C26       1.0  0.7696645503364083  0.088446312805651  0.03623720604026199  1.0000
  C   C27       1.0  0.2696713291308654  0.08844532670326541  0.4637623441154161  1.0000
  C   C28       1.0  0.2303267159694116  0.9115542558291166  0.9637617141815438  1.0000
  C   C29       1.0  0.7740295709516332  0.9345951486436235  0.5969381691888385  1.0000
  C   C30       1.0  0.725973154463745  0.06540106844628471  0.0969388403256133  1.0000
  C   C31       1.0  0.2259758393907489  0.06540207989973372  0.4030612015663805  1.0000
  C   C32       1.0  0.27402073595694554  0.9345983896468799  0.9030609809501156  1.0000
  C   C33       1.0  0.8554374061566676  0.0802539141773906  0.6183519020525594  1.0000
  C   C34       1.0  0.6445616370523553  0.9197408886929209  0.118352554658415  1.0000
  C   C35       1.0  0.14456384488134702  0.919741106017135  0.3816479192305806  1.0000
  C   C36       1.0  0.3554359336773629  0.08025635045420641  0.8816468160950706  1.0000
  C   C37       1.0  0.8819662148943905  0.19458433856477345  0.5779521954025453  1.0000
  C   C38       1.0  0.6180265892285564  0.8054143827413828  0.07795178400664328  1.0000
  C   C39       1.0  0.11803445894480559  0.8054162173290536  0.4220489774510766  1.0000
  C   C40       1.0  0.3819714604975958  0.19458728371046163  0.9220462351633144  1.0000
  N   N1        1.0  0.8043779841976788  0.23596905138995083  0.38884836265998496  1.0000
  N   N2        1.0  0.6956257388392404  0.764032871136415  0.8888494551700458  1.0000
  N   N3        1.0  0.19562582548804394  0.7640315002755004  0.6111510080905375  1.0000
  N   N4        1.0  0.3043744232708577  0.23596657846716343  0.1111512671589665  1.0000
  N   N5        1.0  0.7125044426313352  0.0012038851483283004  0.43741534700366447  1.0000
  N   N6        1.0  0.7874965777444061  0.9987984399115959  0.9374158653334701  1.0000
  N   N7        1.0  0.2875014467056615  0.9987977706833318  0.5625849247977611  1.0000
  N   N8        1.0  0.21250303990282052  0.0012032244063676003  0.0625839559406245  1.0000
  N   N9        1.0  0.8319893475962701  0.17396391448739487  0.5185098178115907  1.0000
  N   N10       1.0  0.6680051205830253  0.8260356712379535  0.018510275344325998  1.0000
  N   N11       1.0  0.1680128941661963  0.8260366392922409  0.4814904539904815  1.0000
  N   N12       1.0  0.33199190568309694  0.1739637826169869  0.9814890954061465  1.0000
  O   O1        1.0  0.8615097819123536  0.50037385071888  0.5479030616563705  1.0000
  O   O2        1.0  0.6384950697271635  0.4996275064033287  0.047899855163009895  1.0000
  O   O3        1.0  0.13849610742245486  0.4996278050930768  0.4520999133007422  1.0000
  O   O4        1.0  0.36150301273202246  0.5003708390373233  0.9520995155891397  1.0000
  O   O5        1.0  0.6432701167611727  0.5569706610859697  0.654499631987626  1.0000
  O   O6        1.0  0.8567282907912388  0.4430291505512472  0.15449802052542336  1.0000
  O   O7        1.0  0.35673055707766826  0.44302989480457466  0.34550199139194854  1.0000
  O   O8        1.0  0.14326822374577844  0.5569691970134445  0.8455008997004396  1.0000
  O   O9        1.0  0.4355992228360038  0.2964971226804778  0.5893070205566742  1.0000
  O   O10       1.0  0.06440157298221288  0.7035023808151807  0.08930459977816699  1.0000
  O   O11       1.0  0.564403018925731  0.7035034310925996  0.41069415229728873  1.0000
  O   O12       1.0  0.9355944298253294  0.2964948604559795  0.910694320449032  1.0000
  O   O13       1.0  0.4343234077375726  0.587446004636881  0.5451641071691637  1.0000
  O   O14       1.0  0.06567902739293886  0.41255414023780196  0.0451633493384733  1.0000
  O   O15       1.0  0.5656793457532601  0.41255565542643075  0.4548375162094158  1.0000
  O   O16       1.0  0.9343221909109476  0.5874442009580607  0.954836471940318  1.0000
