data_image0
_chemical_formula_structural       Zn2H48C58N4O8
_chemical_formula_sum              "Zn2 H48 C58 N4 O8"
_cell_length_a       15.532579335426327
_cell_length_b       16.652013315829404
_cell_length_c       17.755415478849375
_cell_angle_alpha    87.50214699835998
_cell_angle_beta     86.55505726252217
_cell_angle_gamma    69.32990629602712

_space_group_name_H-M_alt    "P 1"
_space_group_IT_number       1

loop_
  _space_group_symop_operation_xyz
  'x, y, z'

loop_
  _atom_site_type_symbol
  _atom_site_label
  _atom_site_symmetry_multiplicity
  _atom_site_fract_x
  _atom_site_fract_y
  _atom_site_fract_z
  _atom_site_occupancy
  Zn  Zn1       1.0  0.5043421370982133  0.5856693370425674  0.4938920366732447  1.0000
  Zn  Zn2       1.0  0.5085952437322521  0.4095416320539228  0.5058539274101082  1.0000
  H   H1        1.0  0.8990986920768336  0.7309081433975492  0.4582372282680752  1.0000
  H   H2        1.0  0.12099764229304813  0.2737088661308676  0.4184160667339684  1.0000
  H   H3        1.0  0.4048690684051267  0.8848042394134055  0.5897646430406527  1.0000
  H   H4        1.0  0.5865870841829164  0.1130732464292166  0.40834913706329  1.0000
  H   H5        1.0  0.41439209864007154  0.7323017829774796  0.5757087597066076  1.0000
  H   H6        1.0  0.5795424263120241  0.26543752446302443  0.4174069845214704  1.0000
  H   H7        1.0  0.7783465728758616  0.5323387585974046  0.4679911859468506  1.0000
  H   H8        1.0  0.23986798186339095  0.4670584440253478  0.45797471562588765  1.0000
  H   H9        1.0  0.8095881409204823  0.2683895241906953  0.45844724517599655  1.0000
  H   H10       1.0  0.20391359660943925  0.7302606686940935  0.48602582722404736  1.0000
  H   H11       1.0  0.8305751635350024  0.6203757512318118  0.45225878404529163  1.0000
  H   H12       1.0  0.1876593671025049  0.38378923405516463  0.4215096217043382  1.0000
  H   H13       1.0  0.3670071591587886  0.6405252215045392  0.1342858840217929  1.0000
  H   H14       1.0  0.4782278130612669  0.3794843218653482  0.8807359791587789  1.0000
  H   H15       1.0  0.39315039997139706  0.6305639486342044  0.27249904475179687  1.0000
  H   H16       1.0  0.5075971655461373  0.3773869140603949  0.7406937982764747  1.0000
  H   H17       1.0  0.5440031172535954  0.36049853196472265  0.25608097437862654  1.0000
  H   H18       1.0  0.462484602339771  0.6467776013372557  0.7364211376306928  1.0000
  H   H19       1.0  0.5220345669673634  0.3696696716521969  0.1170853698942551  1.0000
  H   H20       1.0  0.4319079428706802  0.6506036827636237  0.8764770195528941  1.0000
  H   H21       1.0  0.5146016247434562  0.6788558192561139  0.3112330630410797  1.0000
  H   H22       1.0  0.5659426452013038  0.7562467502133146  0.2816896508644008  1.0000
  H   H23       1.0  0.6243401215278014  0.6453850943257251  0.2633102322564867  1.0000
  H   H24       1.0  0.6930164723417821  0.6848482843136451  0.3734985372536031  1.0000
  H   H25       1.0  0.6389906415827727  0.6104805189985781  0.4012321214425897  1.0000
  H   H26       1.0  0.25992475179280927  0.30457745186932067  0.6029504854001644  1.0000
  H   H27       1.0  0.24651235008344238  0.3997202388712537  0.6516264273227109  1.0000
  H   H28       1.0  0.2799104956939403  0.39259811556349433  0.5543902947983386  1.0000
  H   H29       1.0  0.3978060475046021  0.2893929161015548  0.683174280543007  1.0000
  H   H30       1.0  0.41521712083748963  0.3747949609683374  0.6300837695312752  1.0000
  H   H31       1.0  0.6962781533220626  0.8925718886641999  0.48277447860471795  1.0000
  H   H32       1.0  0.7527465322565166  0.7853122952749984  0.45377660503282885  1.0000
  H   H33       1.0  0.7619557895578738  0.8718350413523054  0.39557270971573655  1.0000
  H   H34       1.0  0.6497648203607727  0.8174237240395215  0.34133076939824053  1.0000
  H   H35       1.0  0.5908090771640248  0.9213301231160217  0.3757421449650452  1.0000
  H   H36       1.0  0.5350760826822595  0.0427692511800686  0.6734077327465331  1.0000
  H   H37       1.0  0.5009973741990381  0.1423813063980859  0.7196719676846686  1.0000
  H   H38       1.0  0.44227376449617856  0.06947360238871882  0.7426308059806035  1.0000
  H   H39       1.0  0.34636944945665965  0.18777025031466374  0.6588567203628487  1.0000
  H   H40       1.0  0.38254302051127814  0.0890680003470621  0.6122786001109406  1.0000
  H   H41       1.0  0.0572671320903952  0.8309799029543539  0.48083700212180963  1.0000
  H   H42       1.0  0.9362850521556895  0.8983512705692293  0.39631569562369157  1.0000
  H   H43       1.0  0.9464347195131425  0.7951145024359719  0.3657419142591893  1.0000
  H   H44       1.0  0.037874473512992946  0.8342024772450571  0.343850709352033  1.0000
  H   H45       1.0  0.05282527942019748  0.1994345964261228  0.3987076796721426  1.0000
  H   H46       1.0  0.011038426819190811  0.08078954927261608  0.4138592193624931  1.0000
  H   H47       1.0  0.9051534188440727  0.15398063137578794  0.37945101181611574  1.0000
  H   H48       1.0  0.9186305947922622  0.1346238560958284  0.4783539687524583  1.0000
  C   C1        1.0  0.5030435603730867  0.5094369353752768  0.646114876663731  1.0000
  C   C2        1.0  0.4901959062502571  0.4908517466530569  0.3543518761602656  1.0000
  C   C3        1.0  0.9052784100049325  0.6016494162918492  0.44880100856880045  1.0000
  C   C4        1.0  0.11307086110897305  0.4023230611605868  0.42796746930257273  1.0000
  C   C5        1.0  0.9432910838136837  0.6641529273053876  0.45145579317236456  1.0000
  C   C6        1.0  0.07460336040672648  0.3399102985548694  0.4255887746269736  1.0000
  C   C7        1.0  0.4064480712454782  0.579396924369597  0.1609646033586429  1.0000
  C   C8        1.0  0.4744184741903796  0.43801238237835344  0.8488882393399283  1.0000
  C   C9        1.0  0.42088869505881393  0.5739254441983306  0.23776389732925915  1.0000
  C   C10       1.0  0.49074376558506577  0.43676749299940804  0.7711820009644728  1.0000
  C   C11       1.0  0.4716402449613356  0.4953284244547548  0.27217164874466704  1.0000
  C   C12       1.0  0.48675299468377636  0.5118680892504983  0.7301838773613202  1.0000
  C   C13       1.0  0.5057905307401853  0.4214821225913141  0.22859723920356606  1.0000
  C   C14       1.0  0.46525546011980623  0.588802637191378  0.7686927739581721  1.0000
  C   C15       1.0  0.4931135895317242  0.4265068656352966  0.15152599526562233  1.0000
  C   C16       1.0  0.4482413996337584  0.5908928823558384  0.8464643258006321  1.0000
  C   C17       1.0  0.44437920589941643  0.5060176614843926  0.11611622861798314  1.0000
  C   C18       1.0  0.45332519821290185  0.5151926925917036  0.8880683464469574  1.0000
  C   C19       1.0  0.43866774062292546  0.511783506510092  0.03668175887838031  1.0000
  C   C20       1.0  0.44194507495699764  0.5149301455736078  0.9677458079276849  1.0000
  C   C21       1.0  0.4510288482230608  0.8442036901696284  0.5469870427733314  1.0000
  C   C22       1.0  0.5479097468333763  0.1530261788438025  0.45464623890351435  1.0000
  C   C23       1.0  0.3278228530983399  0.5681383163506127  0.4962260298270353  1.0000
  C   C24       1.0  0.684990497141314  0.4274749190465101  0.48206837825546967  1.0000
  C   C25       1.0  0.4558786098192942  0.7604363424173216  0.5393855717549487  1.0000
  C   C26       1.0  0.543939823923175  0.23689774105472589  0.45918209382191594  1.0000
  C   C27       1.0  0.56691194721536  0.7371865138379474  0.43940527934865525  1.0000
  C   C28       1.0  0.4485546870049006  0.25928405147871564  0.5694189097902014  1.0000
  C   C29       1.0  0.5664281264103295  0.8217348255930047  0.4432806977419832  1.0000
  C   C30       1.0  0.45138286665952193  0.1736344884373864  0.5705320368592128  1.0000
  C   C31       1.0  0.5072120854266802  0.875934358651058  0.498426464240197  1.0000
  C   C32       1.0  0.5011527086872435  0.1201081424271564  0.5112332449188416  1.0000
  C   C33       1.0  0.5043926685720451  0.9613075342075064  0.5043275864463015  1.0000
  C   C34       1.0  0.5034491469618416  0.03462229580763679  0.5079115466527713  1.0000
  C   C35       1.0  0.22874796480748233  0.5951558611695874  0.47713924658001633  1.0000
  C   C36       1.0  0.7866467729527784  0.4028822122052489  0.4646494077159816  1.0000
  C   C37       1.0  0.08007118265360455  0.7076759106093674  0.46090768355079353  1.0000
  C   C38       1.0  0.9370218995454279  0.29373102490292524  0.43858016768801644  1.0000
  C   C39       1.0  0.17268493449836345  0.6826832252413412  0.47568063399908334  1.0000
  C   C40       1.0  0.8424600081635563  0.3163965841077355  0.4540183829540966  1.0000
  C   C41       1.0  0.192994162839952  0.5332632199734418  0.4594136879106119  1.0000
  C   C42       1.0  0.8244527671492682  0.4669244471277735  0.45875044888121164  1.0000
  C   C43       1.0  0.09851438947364947  0.5551674105242912  0.44739887950933627  1.0000
  C   C44       1.0  0.9198902428016285  0.44702936759932743  0.4445100249433411  1.0000
  C   C45       1.0  0.04033054736414964  0.6433216012138414  0.4514126819882734  1.0000
  C   C46       1.0  0.977790328457815  0.35935220459111145  0.4353874951892963  1.0000
  C   C47       1.0  0.057863509364892755  0.490179283936115  0.43835221975095356  1.0000
  C   C48       1.0  0.9607673287699684  0.5130697538236646  0.44283321940372405  1.0000
  C   C49       1.0  0.6257396131748796  0.676671372800257  0.38074724995556153  1.0000
  C   C50       1.0  0.5797389301635791  0.6907244249416136  0.3046032661877548  1.0000
  C   C51       1.0  0.39005240834564603  0.3213244014700721  0.6271478204080766  1.0000
  C   C52       1.0  0.28801155666555206  0.3560610271578071  0.607901639860039  1.0000
  C   C53       1.0  0.6291227156833162  0.8545018104809826  0.3930559666553179  1.0000
  C   C54       1.0  0.7150799904375377  0.8509685764863872  0.43362874479302627  1.0000
  C   C55       1.0  0.4069768006115738  0.13744105628629907  0.6344646855489701  1.0000
  C   C56       1.0  0.4753421622482821  0.09553333105873917  0.69622391570654  1.0000
  C   C57       1.0  0.9846423814750839  0.832573796422146  0.38758253976493523  1.0000
  C   C58       1.0  0.9546756173800617  0.14177577941327263  0.42459084766969835  1.0000
  N   N1        1.0  0.5121948764228466  0.7082691596933443  0.4870386226605064  1.0000
  N   N2        1.0  0.4951591778629807  0.28899522413653506  0.5147900238163106  1.0000
  N   N3        1.0  0.023260302468152496  0.7952430028210882  0.45985282661337123  1.0000
  N   N4        1.0  0.993099010436467  0.2088052563737932  0.42922332001322877  1.0000
  O   O1        1.0  0.5025359350966527  0.5779215336942655  0.6112486103633971  1.0000
  O   O2        1.0  0.5090756318436932  0.4181678775605704  0.3882664360868092  1.0000
  O   O3        1.0  0.5151557015930949  0.43790131513426184  0.6157537117213253  1.0000
  O   O4        1.0  0.4855109611124889  0.5608815615546874  0.38363940260545365  1.0000
  O   O5        1.0  0.36138726878572686  0.6267695751617453  0.5039656210615959  1.0000
  O   O6        1.0  0.6512656998866435  0.36814956162339024  0.49178268817190957  1.0000
  O   O7        1.0  0.37148502978444503  0.48751109781336766  0.5030385254255947  1.0000
  O   O8        1.0  0.6391392138552946  0.5079620990966163  0.4855980514176894  1.0000
