data_image0
_chemical_formula_structural       Cd4H32C36O32
_chemical_formula_sum              "Cd4 H32 C36 O32"
_cell_length_a       9.147442486873956
_cell_length_b       10.81912747178491
_cell_length_c       13.231679528112323
_cell_angle_alpha    95.640500624824
_cell_angle_beta     110.6656368598628
_cell_angle_gamma    114.87871925582

_space_group_name_H-M_alt    "P 1"
_space_group_IT_number       1

loop_
  _space_group_symop_operation_xyz
  'x, y, z'

loop_
  _atom_site_type_symbol
  _atom_site_label
  _atom_site_symmetry_multiplicity
  _atom_site_fract_x
  _atom_site_fract_y
  _atom_site_fract_z
  _atom_site_occupancy
  Cd  Cd1       1.0  0.5210127848437055  0.43090931889037165  0.8054398175149374  1.0000
  Cd  Cd2       1.0  0.7819946321649239  0.0695350621413624  0.6939839831896606  1.0000
  Cd  Cd3       1.0  0.4789886365674151  0.5690903160883494  0.19456167773103064  1.0000
  Cd  Cd4       1.0  0.2180037271958782  0.9304635080145118  0.30601602222026264  1.0000
  H   H1        1.0  0.8383692427070388  0.7330474801610904  0.5196553382325036  1.0000
  H   H2        1.0  0.08806346747690015  0.7677298254032934  0.9791352181233252  1.0000
  H   H3        1.0  0.16163129092426246  0.2669521548176377  0.4803464317435343  1.0000
  H   H4        1.0  0.9119355469978315  0.2322698095754347  0.020865032696150396  1.0000
  H   H5        1.0  0.2990427802158211  0.6816357030285474  0.5710909075459655  1.0000
  H   H6        1.0  0.5477421939227017  0.8179053432000387  0.9288488757392914  1.0000
  H   H7        1.0  0.7009572502402791  0.3183639319501737  0.4289080342350787  1.0000
  H   H8        1.0  0.45225715768228264  0.1820921621329745  0.07115136910928753  1.0000
  H   H9        1.0  0.9743326218967712  0.49397025806736383  0.7406433384202133  1.0000
  H   H10       1.0  0.2383438190445093  0.0066594021413167  0.7585633903135831  1.0000
  H   H11       1.0  0.025669815495710943  0.5060293769113642  0.2593568477873235  1.0000
  H   H12       1.0  0.7616546685178421  0.9933391680145576  0.2414355807879858  1.0000
  H   H13       1.0  0.5353185768854589  0.6030187667485194  0.6369838176070247  1.0000
  H   H14       1.0  0.7960714070703434  0.8972644610106925  0.8627854625607868  1.0000
  H   H15       1.0  0.46468339517523566  0.3969829978759236  0.36301740887976314  1.0000
  H   H16       1.0  0.20393092585779024  0.1027362387908894  0.13721420947802443  1.0000
  H   H17       1.0  0.6107709493348212  0.65521744797163  0.9979096603258956  1.0000
  H   H18       1.0  0.455432428459375  0.8434483138693452  0.5013734274616582  1.0000
  H   H19       1.0  0.38922730556163293  0.3447821870070982  0.0020898309152955086  1.0000
  H   H20       1.0  0.5445681289091128  0.1565523859322369  0.49862679403729265  1.0000
  H   H21       1.0  0.37496121699380336  0.1376815952785222  0.6741525390169587  1.0000
  H   H22       1.0  0.06246372890947103  0.3625263950791862  0.8254718012371786  1.0000
  H   H23       1.0  0.6250378212181148  0.8623191045230597  0.32584616332543  1.0000
  H   H24       1.0  0.9375354137668025  0.6374732398995349  0.17452741527393562  1.0000
  H   H25       1.0  0.21193960242406032  0.1735437642451529  0.6269000312000302  1.0000
  H   H26       1.0  0.9118070461546212  0.3275022417002162  0.8724684079725267  1.0000
  H   H27       1.0  0.7880608504800649  0.8264580003792901  0.37309967613019535  1.0000
  H   H28       1.0  0.08819416632779566  0.6724995229242197  0.1275320589359765  1.0000
  H   H29       1.0  0.7974976743231892  0.6672137422671227  0.016512164529672153  1.0000
  H   H30       1.0  0.6133180201366245  0.8339639366911058  0.4834446284052874  1.0000
  H   H31       1.0  0.2025012356871873  0.3327869575344593  0.983487572121071  1.0000
  H   H32       1.0  0.386680258497016  0.1660367631104762  0.5165533143588164  1.0000
  C   C1        1.0  0.8912986743387067  0.6095610383756735  0.6324715317935558  1.0000
  C   C2        1.0  0.14986862712632415  0.8911449240573575  0.8665645412700799  1.0000
  C   C3        1.0  0.10870416176462784  0.39043966142590847  0.36753096844024213  1.0000
  C   C4        1.0  0.8501298604360271  0.1088536460985097  0.13343442983148895  1.0000
  C   C5        1.0  0.9258729274903674  0.6909944311097788  0.55958046015936  1.0000
  C   C6        1.0  0.17693097567949737  0.8095400948434417  0.9393568259593652  1.0000
  C   C7        1.0  0.07412891636878532  0.309007333514657  0.44042180063578235  1.0000
  C   C8        1.0  0.823066073453461  0.1904563456667177  0.06064268863144662  1.0000
  C   C9        1.0  0.07303498794589568  0.7165533741219221  0.5373425903028491  1.0000
  C   C10       1.0  0.3208891149457644  0.7834977222546797  0.9618331482656047  1.0000
  C   C11       1.0  0.9269660963349793  0.2834483905025138  0.4626589109140086  1.0000
  C   C12       1.0  0.6791071746089088  0.21649871825547956  0.03816560674692942  1.0000
  C   C13       1.0  0.1852710695508862  0.6622484732896794  0.5889556664234874  1.0000
  C   C14       1.0  0.43521895848540765  0.8376322514299659  0.9106271243638205  1.0000
  C   C15       1.0  0.8147300147299817  0.3377532913347565  0.41104583479337725  1.0000
  C   C16       1.0  0.5647815135653005  0.1623641890801935  0.08937232561505941  1.0000
  C   C17       1.0  0.1516652921004894  0.5827104652392237  0.6630101353391354  1.0000
  C   C18       1.0  0.4059750903462674  0.9173747054687738  0.8364907940686381  1.0000
  C   C19       1.0  0.8483388779678833  0.4172934290309271  0.33699130723668697  1.0000
  C   C20       1.0  0.5940225094362576  0.0826238646870934  0.16350845176300063  1.0000
  C   C21       1.0  0.004383469018947126  0.5564615170164018  0.6841885202605199  1.0000
  C   C22       1.0  0.26337500477887255  0.944027221554009  0.8150226763750653  1.0000
  C   C23       1.0  0.9956208055137807  0.4435413124308951  0.31581343648402804  1.0000
  C   C24       1.0  0.736625994184216  0.0559702837790041  0.18497805332172132  1.0000
  C   C25       1.0  0.7388246842288313  0.5762480553262606  0.6608733860534955  1.0000
  C   C26       1.0  0.0017997775990752918  0.9245335095295458  0.8385355075086381  1.0000
  C   C27       1.0  0.2611772878318633  0.42375370929817535  0.33912784043329225  1.0000
  C   C28       1.0  0.9982002291198384  0.07546506062632828  0.1614649827494858  1.0000
  C   C29       1.0  0.10713266504970446  0.7966195343089524  0.45515442347940666  1.0000
  C   C30       1.0  0.35753123774621554  0.7033793857477092  0.04419676517697009  1.0000
  C   C31       1.0  0.8928667718730665  0.2033822303154906  0.5448465928892432  1.0000
  C   C32       1.0  0.6424658113867427  0.29661705476245  0.9558027494138489  1.0000
  C   C33       1.0  0.2688231013759509  0.5233210352696602  0.718099773564717  1.0000
  C   C34       1.0  0.5266239300563387  0.9764201976558482  0.7816254659106789  1.0000
  C   C35       1.0  0.7311792315521758  0.4766796645319218  0.28189989847408736  1.0000
  C   C36       1.0  0.4733736697261861  0.0235783725000189  0.21837377992095952  1.0000
  O   O1        1.0  0.7192986705441701  0.5048474235412215  0.7280216684231892  1.0000
  O   O2        1.0  0.985144031103403  0.9964750713254205  0.7718323116612569  1.0000
  O   O3        1.0  0.28070133617474374  0.49515114661464565  0.2719788218349423  1.0000
  O   O4        1.0  0.01485587115115555  0.0035245636533006  0.22816766442814906  1.0000
  O   O5        1.0  0.6342761628602959  0.6284307642065343  0.6119530240210481  1.0000
  O   O6        1.0  0.8953127255948277  0.8718056113470068  0.887385821749213  1.0000
  O   O7        1.0  0.3657284059189153  0.3715741948864704  0.3880507325810356  1.0000
  O   O8        1.0  0.10468859135193752  0.1281950884545751  0.11261515932802271  1.0000
  O   O9        1.0  0.013281538031492488  0.8523406495396487  0.4107049042490588  1.0000
  O   O10       1.0  0.2526519052109323  0.6489499006413126  0.08854168588412392  1.0000
  O   O11       1.0  0.986719650713731  0.1476600502619334  0.5892971111365313  1.0000
  O   O12       1.0  0.7473449112561285  0.35104760469170054  0.911458348846317  1.0000
  O   O13       1.0  0.23364423086106725  0.8026879597651941  0.42963468484262535  1.0000
  O   O14       1.0  0.5029273082757727  0.6957701616188601  0.07027685512609586  1.0000
  O   O15       1.0  0.7663534971229994  0.19731061039067296  0.5703635266806587  1.0000
  O   O16       1.0  0.4970710273478503  0.3042273437141532  0.9297246987609072  1.0000
  O   O17       1.0  0.3979728930265909  0.5421002511577626  0.6919051455770032  1.0000
  O   O18       1.0  0.6642088651902185  0.9582053378814165  0.8084542266605227  1.0000
  O   O19       1.0  0.6020270329651468  0.4579004486438123  0.3080932820353155  1.0000
  O   O20       1.0  0.3357879750140285  0.0417932322744505  0.19154425959283122  1.0000
  O   O21       1.0  0.24101887242509443  0.4555589031835082  0.788129637729462  1.0000
  O   O22       1.0  0.4949240378744194  0.0435129211868599  0.7109361220233766  1.0000
  O   O23       1.0  0.7589842200813167  0.5444417966180737  0.211870793887627  1.0000
  O   O24       1.0  0.5050724414623888  0.9564867137918611  0.28906391867795383  1.0000
  O   O25       1.0  0.3412379990442106  0.2090918104692676  0.6476960873327614  1.0000
  O   O26       1.0  0.9840108261681807  0.29151122916800887  0.8517657496479815  1.0000
  O   O27       1.0  0.6587616705444506  0.7909088893323144  0.3523044088962665  1.0000
  O   O28       1.0  0.015987452465459732  0.708489470633566  0.14823219311612226  1.0000
  O   O29       1.0  0.6781620919178197  0.640443030844871  0.957809300247675  1.0000
  O   O30       1.0  0.57951069251223  0.8604865443879176  0.5416286291173763  1.0000
  O   O31       1.0  0.3218369462941055  0.35955766895671093  0.042189402094713606  1.0000
  O   O32       1.0  0.42048900081361756  0.1395152202365182  0.45837031863456457  1.0000
