data_image0
_chemical_formula_structural       Cu2H28C30S2N6O4
_chemical_formula_sum              "Cu2 H28 C30 S2 N6 O4"
_cell_length_a       5.644824558461765
_cell_length_b       5.672421075896839
_cell_length_c       23.509226895095267
_cell_angle_alpha    90.00015075599052
_cell_angle_beta     89.99970658116717
_cell_angle_gamma    99.61145258568925

_space_group_name_H-M_alt    "P 1"
_space_group_IT_number       1

loop_
  _space_group_symop_operation_xyz
  'x, y, z'

loop_
  _atom_site_type_symbol
  _atom_site_label
  _atom_site_symmetry_multiplicity
  _atom_site_fract_x
  _atom_site_fract_y
  _atom_site_fract_z
  _atom_site_occupancy
  Cu  Cu1       1.0  0.3965212719628822  0.6271834704362718  0.7500007862614595  1.0000
  Cu  Cu2       1.0  0.6034565216464145  0.37281212806402675  0.2499977607464743  1.0000
  H   H1        1.0  0.4541936303182651  0.2514826096219665  0.8406999276989495  1.0000
  H   H2        1.0  0.5458062588177484  0.7485085897440276  0.34070058623500193  1.0000
  H   H3        1.0  0.5458072207519037  0.7485131565292634  0.1592998953900775  1.0000
  H   H4        1.0  0.4541954539062799  0.2514925403041205  0.6592975353954316  1.0000
  H   H5        1.0  0.7688438493325974  0.20935763379257824  0.9141445095359658  1.0000
  H   H6        1.0  0.23115572162742382  0.7906306375464496  0.4141425870749913  1.0000
  H   H7        1.0  0.231149907090618  0.7906380807920004  0.08585914184137522  1.0000
  H   H8        1.0  0.768850112828886  0.2093740942276555  0.5858551091891187  1.0000
  H   H9        1.0  0.4787612567601371  0.7077720022930551  0.9833572218479674  1.0000
  H   H10       1.0  0.5212376450703501  0.2922436612149327  0.48335637490808386  1.0000
  H   H11       1.0  0.5212418416406805  0.29224878251015  0.0166413251521149  1.0000
  H   H12       1.0  0.4787728854984862  0.7077682482396954  0.5166451496394018  1.0000
  H   H13       1.0  0.26092071173567166  0.8996899370503543  0.9685372666626861  1.0000
  H   H14       1.0  0.7390744249302655  0.1003112816831049  0.4685373290681127  1.0000
  H   H15       1.0  0.7390812378343412  0.1003236958731293  0.0314595788764436  1.0000
  H   H16       1.0  0.26093054784143277  0.8996880862069435  0.5314650462089077  1.0000
  H   H17       1.0  0.441142847232399  0.8163279108291663  0.913184826952417  1.0000
  H   H18       1.0  0.5588416423019495  0.18366560006392532  0.41318515005455225  1.0000
  H   H19       1.0  0.5588514332972421  0.18368209457860732  0.0868128693200276  1.0000
  H   H20       1.0  0.44115034049139  0.8163301016156554  0.5868163744993283  1.0000
  H   H21       1.0  0.0985612372598794  0.9332908422428263  0.8745291767500946  1.0000
  H   H22       1.0  0.9014382905598806  0.06669172266213512  0.37452647561318025  1.0000
  H   H23       1.0  0.9014304583213643  0.06670307146866611  0.125472347803445  1.0000
  H   H24       1.0  0.09856610778762592  0.9333040692917297  0.6254758996631793  1.0000
  H   H25       1.0  0.7757256453387099  0.9464594410696778  0.8040904784523449  1.0000
  H   H26       1.0  0.22428295644245105  0.05353685723976302  0.3040894226653919  1.0000
  H   H27       1.0  0.22427817863294303  0.05353277492777411  0.1959072178094132  1.0000
  H   H28       1.0  0.7757140097238491  0.9464678100682066  0.6959112511582646  1.0000
  C   C1        1.0  0.6009147179513974  0.3974164249382781  0.8498307651328786  1.0000
  C   C2        1.0  0.39909442522469607  0.602578493787668  0.3498306640499393  1.0000
  C   C3        1.0  0.39908584590668267  0.6025775532448564  0.1501690579558144  1.0000
  C   C4        1.0  0.6009063754925492  0.3974279872652816  0.65016660685275  1.0000
  C   C5        1.0  0.7750797390864717  0.3744306663407145  0.8901186668264814  1.0000
  C   C6        1.0  0.22492723640161214  0.6255342310618631  0.3901187850512073  1.0000
  C   C7        1.0  0.22491943908163137  0.6255436570928838  0.1098820069872772  1.0000
  C   C8        1.0  0.775070979398002  0.3744561582819302  0.6098793365782598  1.0000
  C   C9        1.0  0.9631421041316127  0.5654692190550038  0.8995510762682598  1.0000
  C   C10       1.0  0.036871095906754206  0.4345136653724567  0.3995504582955007  1.0000
  C   C11       1.0  0.036859084516756006  0.43451762015708095  0.10045002291275301  1.0000
  C   C12       1.0  0.9631386234402438  0.5654821652504226  0.600447663328687  1.0000
  C   C13       1.0  0.1613509319255755  0.5364197537679943  0.9398833668251995  1.0000
  C   C14       1.0  0.8386495936783191  0.4635669650483081  0.4398822409840051  1.0000
  C   C15       1.0  0.838646895877005  0.4635902774442543  0.060117306999472896  1.0000
  C   C16       1.0  0.16136041284122626  0.5364306535592152  0.5601197089246384  1.0000
  C   C17       1.0  0.34699046323874677  0.7522108589370122  0.9527025400646992  1.0000
  C   C18       1.0  0.6530079734774858  0.24778667273520238  0.45270151186659996  1.0000
  C   C19       1.0  0.653012398338049  0.24779742298166957  0.04729515620217481  1.0000
  C   C20       1.0  0.3470011210396676  0.7522162968752827  0.5472991619493968  1.0000
  C   C21       1.0  0.9609990972705373  0.7763034057040064  0.8687232413311534  1.0000
  C   C22       1.0  0.039009418765978396  0.22367917347932578  0.3687203745604677  1.0000
  C   C23       1.0  0.0389979192618668  0.22369054669672295  0.1312787085841478  1.0000
  C   C24       1.0  0.961001499791109  0.7763130941105207  0.6312794485216102  1.0000
  C   C25       1.0  0.7803538852241657  0.7850639510840479  0.829066155596081  1.0000
  C   C26       1.0  0.219652190042865  0.21492004740027687  0.32906604744967183  1.0000
  C   C27       1.0  0.21963872236825205  0.21492461162080193  0.1709357943203003  1.0000
  C   C28       1.0  0.7803572420481044  0.7850739952728961  0.6709363278232061  1.0000
  C   C29       1.0  0.20517085058371257  0.10595115912924773  0.7500016026764769  1.0000
  C   C30       1.0  0.7948477873710686  0.8940340210727556  0.24999949649372874  1.0000
  S   S1        1.0  0.0630023366587196  0.33396014713908784  0.7499996246328777  1.0000
  S   S2        1.0  0.9369884469421091  0.6660391175661645  0.24999849700350302  1.0000
  N   N1        1.0  0.6037452125305546  0.5982519125308486  0.81869113194481  1.0000
  N   N2        1.0  0.3962489487350992  0.401733693948529  0.3186917711770434  1.0000
  N   N3        1.0  0.3962465334739206  0.40173128624950044  0.1813061389566428  1.0000
  N   N4        1.0  0.603739486767722  0.5982619819339308  0.6813084772842188  1.0000
  N   N5        1.0  0.3034648799134203  0.9369713747729665  0.750002205215047  1.0000
  N   N6        1.0  0.6965302118556308  0.0630547094591947  0.24999719252108582  1.0000
  O   O1        1.0  0.17019020274480565  0.3378246256840854  0.9606666344616955  1.0000
  O   O2        1.0  0.8298045221090148  0.6621729490621817  0.4606669076959164  1.0000
  O   O3        1.0  0.8298093987008387  0.6621854184276473  0.0393348900917303  1.0000
  O   O4        1.0  0.17019330570234806  0.3378370821463862  0.5393329153989512  1.0000
