data_image0
_chemical_formula_structural       Zn2H28C30N12O8
_chemical_formula_sum              "Zn2 H28 C30 N12 O8"
_cell_length_a       10.487853364513613
_cell_length_b       10.740467557077459
_cell_length_c       11.512729637755415
_cell_angle_alpha    68.48039311886158
_cell_angle_beta     65.66537915456803
_cell_angle_gamma    61.871778304779454

_space_group_name_H-M_alt    "P 1"
_space_group_IT_number       1

loop_
  _space_group_symop_operation_xyz
  'x, y, z'

loop_
  _atom_site_type_symbol
  _atom_site_label
  _atom_site_symmetry_multiplicity
  _atom_site_fract_x
  _atom_site_fract_y
  _atom_site_fract_z
  _atom_site_occupancy
  Zn  Zn1       1.0  0.9399946688936965  0.2148734446681928  0.851812302629078  1.0000
  Zn  Zn2       1.0  0.060005860370580366  0.7851245557303415  0.14818752085334808  1.0000
  H   H1        1.0  0.9284508646119608  0.14996631782628364  0.37141525834446293  1.0000
  H   H2        1.0  0.07154858797957793  0.8500370850391263  0.628583123121288  1.0000
  H   H3        1.0  0.9483859759883017  0.3165200214296604  0.3357981275346518  1.0000
  H   H4        1.0  0.05161684579785938  0.6834801338578272  0.6642000993615936  1.0000
  H   H5        1.0  0.1300663912199838  0.1167241204288345  0.4488048616483765  1.0000
  H   H6        1.0  0.8699326658523676  0.8832749632774435  0.5511951440981732  1.0000
  H   H7        1.0  0.2032557579658203  0.0145401554609492  0.32828162260101823  1.0000
  H   H8        1.0  0.7967418269146125  0.9854600115530728  0.6717185654096623  1.0000
  H   H9        1.0  0.3754383401237007  0.125635149136258  0.30245775891516047  1.0000
  H   H10       1.0  0.6245621893491135  0.8743628494158099  0.6975446709316273  1.0000
  H   H11       1.0  0.31188856043718977  0.1915530931797633  0.16239146701961715  1.0000
  H   H12       1.0  0.6881130163472592  0.8084449036424886  0.8376097018161628  1.0000
  H   H13       1.0  0.11343676829885402  0.37469461502531953  0.8766822964486778  1.0000
  H   H14       1.0  0.8865673279196359  0.6253022973748585  0.12331656032384328  1.0000
  H   H15       1.0  0.9083105686666856  0.09969097702659721  0.1789289046000276  1.0000
  H   H16       1.0  0.09169015849621338  0.9003091817205301  0.821071844318233  1.0000
  H   H17       1.0  0.0921989935773199  0.5828272817281926  0.43178355614607256  1.0000
  H   H18       1.0  0.9077985913031126  0.4171728852858294  0.5682166318646084  1.0000
  H   H19       1.0  0.23636847030171984  0.45764150448675184  0.07842207708367965  1.0000
  H   H20       1.0  0.7636372960073176  0.5423564829542755  0.9215775228605522  1.0000
  H   H21       1.0  0.4623829988091401  0.2300587681162725  0.5378430810437749  1.0000
  H   H22       1.0  0.5376183508546077  0.7699424698634729  0.4621561969047291  1.0000
  H   H23       1.0  0.29648165922064607  0.9025425491044459  0.6161470155415429  1.0000
  H   H24       1.0  0.7035207378242562  0.09745868652998982  0.38385187018406697  1.0000
  H   H25       1.0  0.6825675588584659  0.9474003595975587  0.11282901055609777  1.0000
  H   H26       1.0  0.31743002595245423  0.05259980803194961  0.8871703086664622  1.0000
  H   H27       1.0  0.5094142311564979  0.1674783335188792  0.7820534271762867  1.0000
  H   H28       1.0  0.4905823063427875  0.8325218358404527  0.21794715305728105  1.0000
  C   C1        1.0  0.0041425602592752835  0.2088541589688049  0.312691176955326  1.0000
  C   C2        1.0  0.9958592142152513  0.7911459980485062  0.687308310951934  1.0000
  C   C3        1.0  0.15520164528904698  0.12491006724222588  0.344165068963207  1.0000
  C   C4        1.0  0.844798459164451  0.8750890141187498  0.6558345445604559  1.0000
  C   C5        1.0  0.2759069582609682  0.1902111521635987  0.2664930241122647  1.0000
  C   C6        1.0  0.724093146331562  0.809787927966397  0.7335083269876393  1.0000
  C   C7        1.0  0.0688025633920475  0.3180012754772648  0.9735256227360621  1.0000
  C   C8        1.0  0.9312000606345163  0.6819967202306574  0.02647341630058973  1.0000
  C   C9        1.0  0.9634208384711725  0.17704221245391244  0.12414476445556483  1.0000
  C   C10       1.0  0.036582408125767074  0.8229568618711413  0.8758536723994509  1.0000
  C   C11       1.0  0.13729840987821254  0.5170064611232804  0.3612260137153028  1.0000
  C   C12       1.0  0.8627027420259452  0.48299261727689197  0.6387740763736005  1.0000
  C   C13       1.0  0.21022578482232746  0.4581838657663796  0.17955147098033558  1.0000
  C   C14       1.0  0.7897789341055625  0.5418141240199503  0.8204485211867832  1.0000
  C   C15       1.0  0.3654617311346797  0.07417640501559929  0.5862753314470195  1.0000
  C   C16       1.0  0.6345385711479209  0.9258248353094487  0.4137243387243643  1.0000
  C   C17       1.0  0.48054030033149786  0.12895877511637371  0.5205837506150031  1.0000
  C   C18       1.0  0.5194616717636009  0.8710435427114761  0.47941318757560936  1.0000
  C   C19       1.0  0.3863875306001674  0.9444422868556825  0.5649600402875733  1.0000
  C   C20       1.0  0.6136138189245557  0.05555895235504237  0.4350375000846896  1.0000
  C   C21       1.0  0.22251430979168427  0.15616289676383843  0.6770668108862734  1.0000
  C   C22       1.0  0.7774870694417049  0.8438329386323886  0.3229377764542675  1.0000
  C   C23       1.0  0.6077339156490282  0.0638714680745949  0.9413103091597605  1.0000
  C   C24       1.0  0.39226219717850336  0.9361297810161916  0.05869179869128512  1.0000
  C   C25       1.0  0.6021419938995933  0.9696544401251259  0.06425581005341029  1.0000
  C   C26       1.0  0.39785222192524117  0.030348973235845695  0.9357462701030171  1.0000
  C   C27       1.0  0.5043694812417598  0.0942562088099237  0.8776019146429233  1.0000
  C   C28       1.0  0.49562663137723467  0.9057450421273288  0.12239758684376757  1.0000
  C   C29       1.0  0.7269744047908304  0.12743543054535422  0.8761654321703602  1.0000
  C   C30       1.0  0.2730236048308683  0.87256365612172  0.12383409701096332  1.0000
  N   N1        1.0  0.015471443086099228  0.23067503075375834  0.17629141112413294  1.0000
  N   N2        1.0  0.984527811745849  0.7693262125320858  0.8237077824820174  1.0000
  N   N3        1.0  0.08222681940805644  0.3214834861516706  0.08143270747764568  1.0000
  N   N4        1.0  0.9177749550664702  0.6785166708656403  0.9185667804296145  1.0000
  N   N5        1.0  0.9954686559674429  0.2313712431970601  0.9951985090718409  1.0000
  N   N6        1.0  0.004530174053726858  0.7686310810512184  0.004800474575560473  1.0000
  N   N7        1.0  0.22415844080479982  0.3392964470274081  0.2758000071401199  1.0000
  N   N8        1.0  0.7758420886680214  0.6607015515246603  0.7242024227066606  1.0000
  N   N9        1.0  0.17753994339994966  0.37475585342696854  0.3927915433923701  1.0000
  N   N10       1.0  0.8224591138114263  0.625243229048337  0.6072101999304277  1.0000
  N   N11       1.0  0.15485180962959794  0.5732839855979535  0.23071449888965387  1.0000
  N   N12       1.0  0.8451497670853386  0.42671401183979185  0.7692858011580056  1.0000
  O   O1        1.0  0.11789617811997032  0.10160874922194549  0.7296035727571776  1.0000
  O   O2        1.0  0.8821039263335279  0.8983903321390231  0.2703960407664924  1.0000
  O   O3        1.0  0.20940993281453046  0.2677182407096126  0.6991382416615649  1.0000
  O   O4        1.0  0.7905888970676144  0.7322840847696453  0.3008590044095954  1.0000
  O   O5        1.0  0.7905246444533844  0.1250045863724552  0.9537664993301433  1.0000
  O   O6        1.0  0.20947441254946142  0.8749944979493165  0.04623263762828607  1.0000
  O   O7        1.0  0.7619995656122782  0.1753688453427102  0.7552472532212133  1.0000
  O   O8        1.0  0.237999066579789  0.8246313199414956  0.2447516737784667  1.0000
