data_image0
_chemical_formula_structural       Ca2H20C24N4Cl4O12
_chemical_formula_sum              "Ca2 H20 C24 N4 Cl4 O12"
_cell_length_a       7.800551776632154
_cell_length_b       10.750874646130054
_cell_length_c       10.813788652888437
_cell_angle_alpha    98.90866941117834
_cell_angle_beta     98.06444636139871
_cell_angle_gamma    97.12362866867532

_space_group_name_H-M_alt    "P 1"
_space_group_IT_number       1

loop_
  _space_group_symop_operation_xyz
  'x, y, z'

loop_
  _atom_site_type_symbol
  _atom_site_label
  _atom_site_symmetry_multiplicity
  _atom_site_fract_x
  _atom_site_fract_y
  _atom_site_fract_z
  _atom_site_occupancy
  Ca  Ca1       1.0  0.7532924074113225  0.9797788634727526  0.5455241141394468  1.0000
  Ca  Ca2       1.0  0.24670706121506916  0.0202233708603288  0.45447600610769706  1.0000
  H   H1        1.0  0.9826542530280521  0.7939228394405405  0.567942629659946  1.0000
  H   H2        1.0  0.017344634785935394  0.20607654276449236  0.43205792987072306  1.0000
  H   H3        1.0  0.7981596837261477  0.707850658229745  0.5374975369625901  1.0000
  H   H4        1.0  0.20183846561859303  0.2921515594703763  0.4624987520734011  1.0000
  H   H5        1.0  0.7137535415602727  0.024902828761504698  0.8195043653542201  1.0000
  H   H6        1.0  0.28624884508747084  0.9750946521260958  0.18049717723581446  1.0000
  H   H7        1.0  0.5622524291408413  0.08344802797283532  0.7418756590625082  1.0000
  H   H8        1.0  0.43775055678292324  0.916552317847909  0.2581282222688089  1.0000
  H   H9        1.0  0.027799054096220698  0.2759973677764052  0.826836876077529  1.0000
  H   H10       1.0  0.972203438250233  0.7240067998185039  0.1731703050668258  1.0000
  H   H11       1.0  0.0025877948453327925  0.3277831246910452  0.0591951378776088  1.0000
  H   H12       1.0  0.9974153364262007  0.672211524969839  0.9408116012153657  1.0000
  H   H13       1.0  0.1272260640904577  0.19092735928643378  0.20666713052240482  1.0000
  H   H14       1.0  0.8727790387684635  0.8090644117551806  0.7933347461606743  1.0000
  H   H15       1.0  0.45975127133147703  0.24312825087206846  0.24971510791634444  1.0000
  H   H16       1.0  0.5402476041734374  0.7568711227962338  0.7502835995977862  1.0000
  H   H17       1.0  0.4226764352040959  0.44789031862509177  0.17003161599977554  1.0000
  H   H18       1.0  0.5773166623707836  0.5521061918720986  0.8299642440607188  1.0000
  H   H19       1.0  0.5815552436773146  0.6538378820995518  0.306297207140112  1.0000
  H   H20       1.0  0.4184306482653355  0.3461614703636399  0.6936946725435292  1.0000
  C   C1        1.0  0.1899295945126269  0.090030739017152  0.7164009920246102  1.0000
  C   C2        1.0  0.8100750589223223  0.9099714978222619  0.2836005629431568  1.0000
  C   C3        1.0  0.2278048309679477  0.04739218033468969  0.9431091789968917  1.0000
  C   C4        1.0  0.7721975372161866  0.9526052877478077  0.056889585568342275  1.0000
  C   C5        1.0  0.1687369265055878  0.11989801078450311  0.8532581724690473  1.0000
  C   C6        1.0  0.831263849093382  0.8801042316448072  0.14674392697272506  1.0000
  C   C7        1.0  0.08371235764266063  0.22161629522766904  0.895492874717718  1.0000
  C   C8        1.0  0.9162928386058907  0.7783821539845166  0.10451278850314343  1.0000
  C   C9        1.0  0.06880743843105822  0.24958009653903446  0.023391978994382605  1.0000
  C   C10       1.0  0.931195547492699  0.7504202492817101  0.976611902336927  1.0000
  C   C11       1.0  0.13611543698745981  0.1731507008109858  0.10550687152439053  1.0000
  C   C12       1.0  0.8638911684996842  0.8268420304589907  0.894497146594894  1.0000
  C   C13       1.0  0.6654425768896531  0.2119544424887536  0.45963849314483  1.0000
  C   C14       1.0  0.3345566960810871  0.7880468397121871  0.5403614648607302  1.0000
  C   C15       1.0  0.7253959388201492  0.45486405231321203  0.4816706612807096  1.0000
  C   C16       1.0  0.2745998168532254  0.5451391184000586  0.5183255356406846  1.0000
  C   C17       1.0  0.6419536979298144  0.3353165626545476  0.415159570789605  1.0000
  C   C18       1.0  0.3580449696103757  0.6646818503448841  0.5848371224664177  1.0000
  C   C19       1.0  0.5301830995964636  0.3341585531665672  0.3019159076180884  1.0000
  C   C20       1.0  0.46981633210270246  0.6658436555563084  0.6980786565794547  1.0000
  C   C21       1.0  0.508906229733661  0.44751220675551906  0.2583964240312255  1.0000
  C   C22       1.0  0.491087246843442  0.5524861994692143  0.7415979084959048  1.0000
  C   C23       1.0  0.5961275663841548  0.5611917311093109  0.33281197150280667  1.0000
  C   C24       1.0  0.4038652086509201  0.43880953622071667  0.6671836465792467  1.0000
  N   N1        1.0  0.21311045780208096  0.07219623414157889  0.0651324960449458  1.0000
  N   N2        1.0  0.7868928321978712  0.9277993420412326  0.9348688492400187  1.0000
  N   N3        1.0  0.7008843647289211  0.5639035692289128  0.44339874627997494  1.0000
  N   N4        1.0  0.29911209248648163  0.4360967403790781  0.5565961650864963  1.0000
  Cl  Cl1       1.0  0.3187382779416125  0.9121669542480784  0.8944609311407561  1.0000
  Cl  Cl2       1.0  0.6812629789255807  0.08783145787032959  0.105536016471433  1.0000
  Cl  Cl3       1.0  0.8639751842775141  0.468278845104976  0.6250957819161584  1.0000
  Cl  Cl4       1.0  0.1360224407172268  0.5317271730274699  0.37489917689153174  1.0000
  O   O1        1.0  0.05317846094141739  0.05157385819311599  0.6350532268629863  1.0000
  O   O2        1.0  0.9468199086771137  0.9484293287126065  0.3649469284476511  1.0000
  O   O3        1.0  0.34264797745729675  0.10740229222479769  0.6878715371600777  1.0000
  O   O4        1.0  0.6573513016679868  0.8925989942445156  0.3121293468537517  1.0000
  O   O5        1.0  0.8196422674762899  0.1868111679530458  0.4853704748760208  1.0000
  O   O6        1.0  0.1803595110190628  0.8131958522104199  0.5146361398067185  1.0000
  O   O7        1.0  0.5297818295596953  0.13769156565086146  0.4678495209435595  1.0000
  O   O8        1.0  0.4702202222391703  0.862310663532831  0.5321499276514956  1.0000
  O   O9        1.0  0.8614316109062871  0.7916588936847191  0.586841768593672  1.0000
  O   O10       1.0  0.13856746025427208  0.20834143211572345  0.41315710116204235  1.0000
  O   O11       1.0  0.685378129334083  0.06852490077044847  0.745902948124396  1.0000
  O   O12       1.0  0.3146259494429983  0.9314744882092825  0.2540999721351583  1.0000
