data_image0
_chemical_formula_structural       Cu2H20C12N16Cl4
_chemical_formula_sum              "Cu2 H20 C12 N16 Cl4"
_cell_length_a       6.652560620027362
_cell_length_b       7.327400923984213
_cell_length_c       11.240622278019748
_cell_angle_alpha    95.07773195324185
_cell_angle_beta     89.99982437487702
_cell_angle_gamma    90.00045195633585

_space_group_name_H-M_alt    "P 1"
_space_group_IT_number       1

loop_
  _space_group_symop_operation_xyz
  'x, y, z'

loop_
  _atom_site_type_symbol
  _atom_site_label
  _atom_site_symmetry_multiplicity
  _atom_site_fract_x
  _atom_site_fract_y
  _atom_site_fract_z
  _atom_site_occupancy
  Cu  Cu1       1.0  4.509548119799999e-06  1.373756163e-06  9.665213483e-07  1.0000
  Cu  Cu2       1.0  0.49999790524426396  0.4999994310399459  0.9999975830039745  1.0000
  H   H1        1.0  0.46103584203096654  0.9994331790952131  0.11451824041677132  1.0000
  H   H2        1.0  0.9610326537010323  0.5005723187419165  0.8854870466496436  1.0000
  H   H3        1.0  0.5389725763773254  0.0005673176889971002  0.8854852664705035  1.0000
  H   H4        1.0  0.038965242444113785  0.49942678973583554  0.11451193437398641  1.0000
  H   H5        1.0  0.5376419470271329  0.27769209313328247  0.40373328000194414  1.0000
  H   H6        1.0  0.037633739000526106  0.22230887767010904  0.5962687560466334  1.0000
  H   H7        1.0  0.4623619618266942  0.722305656147668  0.5962682938382784  1.0000
  H   H8        1.0  0.9623671635194808  0.7776915900225845  0.4037276321516928  1.0000
  H   H9        1.0  0.6730853845052208  0.13394097100605507  0.2956121352730818  1.0000
  H   H10       1.0  0.1730814820505771  0.3660564272929959  0.704387628955473  1.0000
  H   H11       1.0  0.32692002751550575  0.8660554190690205  0.7043920313880889  1.0000
  H   H12       1.0  0.8269149109476857  0.6339467733466078  0.295607132950515  1.0000
  H   H13       1.0  0.7276874013818712  0.03455599457255689  0.49364901147562523  1.0000
  H   H14       1.0  0.22768403189981967  0.46544574834986463  0.5063544365146058  1.0000
  H   H15       1.0  0.2723089915553132  0.9654403954843785  0.5063551551942708  1.0000
  H   H16       1.0  0.7723078515611874  0.534558829662309  0.4936421817584815  1.0000
  H   H17       1.0  0.5969880644019624  0.8621897610836554  0.4057637936115555  1.0000
  H   H18       1.0  0.09698484874447638  0.6378074101724494  0.5942391449132458  1.0000
  H   H19       1.0  0.40300832853522905  0.13780662897327997  0.5942403730583408  1.0000
  H   H20       1.0  0.9030070346919884  0.36219305750208974  0.4057572432937988  1.0000
  C   C1        1.0  0.3400373710889467  0.041132629397886  0.1759708627324486  1.0000
  C   C2        1.0  0.8400234841057638  0.4588668145284275  0.8240295449883775  1.0000
  C   C3        1.0  0.6599665377693923  0.9588664972647081  0.8240325674705103  1.0000
  C   C4        1.0  0.1599759152336517  0.5411336531612464  0.17596684321139833  1.0000
  C   C5        1.0  0.5490518307941484  0.1379000011541862  0.3601392512235506  1.0000
  C   C6        1.0  0.0490451429190415  0.3620941577396691  0.6398605996285838  1.0000
  C   C7        1.0  0.4509505748735876  0.8620977590273854  0.6398649921292048  1.0000
  C   C8        1.0  0.9509542564121956  0.6379049398374546  0.3601357118825134  1.0000
  C   C9        1.0  0.5815691781476531  0.9996672098174813  0.4521204690673954  1.0000
  C   C10       1.0  0.0815689915606868  0.5003312622346741  0.5478807963038149  1.0000
  C   C11       1.0  0.4184287179783085  0.00033055035502370015  0.5478837742897298  1.0000
  C   C12       1.0  0.9184274014193787  0.49966920181439894  0.45211470206184146  1.0000
  N   N1        1.0  0.1430485891319861  0.038459256296150095  0.1547211104563289  1.0000
  N   N2        1.0  0.6430496778589898  0.46153939487660267  0.8452796784126876  1.0000
  N   N3        1.0  0.8569598292699538  0.9615398667409635  0.845281429905242  1.0000
  N   N4        1.0  0.3569497214804258  0.5384610728130638  0.1547167097870883  1.0000
  N   N5        1.0  0.0486234567446076  0.10040336673365151  0.2574910626182003  1.0000
  N   N6        1.0  0.5486197103959328  0.39959217145831616  0.7425115352597302  1.0000
  N   N7        1.0  0.9513804521092125  0.8995943825472992  0.7425105112220152  1.0000
  N   N8        1.0  0.4513796889289522  0.6004055523717187  0.257483809725656  1.0000
  N   N9        1.0  0.18145058540786604  0.1416400579967174  0.3399870550784598  1.0000
  N   N10       1.0  0.6814466811112466  0.3583573885063771  0.6600162523119976  1.0000
  N   N11       1.0  0.8185548266228792  0.8583576985563539  0.660016298434364  1.0000
  N   N12       1.0  0.3185527182136382  0.6416403353236574  0.3399790926733957  1.0000
  N   N13       1.0  0.3648505208642589  0.1046649150667704  0.2905611784987983  1.0000
  N   N14       1.0  0.8648483637905071  0.3953373907763407  0.7094446735980924  1.0000
  N   N15       1.0  0.6351533879959135  0.8953342079612696  0.7094413618671283  1.0000
  N   N16       1.0  0.13514802917588037  0.6046617140638376  0.29055341758996883  1.0000
  Cl  Cl1       1.0  0.7755842709855614  0.8021547735299207  0.07984261065729469  1.0000
  Cl  Cl2       1.0  0.27558643956215423  0.6978540555926215  0.92015525677553  1.0000
  Cl  Cl3       1.0  0.2244181347549556  0.19785393301379628  0.9201586868567945  1.0000
  Cl  Cl4       1.0  0.7244114566384211  0.302154647307475  0.07984515090589642  1.0000
