data_image0
_chemical_formula_structural       Na4H44C36O24
_chemical_formula_sum              "Na4 H44 C36 O24"
_cell_length_a       6.776688628000157
_cell_length_b       10.436698654613297
_cell_length_c       15.139267752940519
_cell_angle_alpha    104.62449009328824
_cell_angle_beta     90.0000202035448
_cell_angle_gamma    89.9999827257066

_space_group_name_H-M_alt    "P 1"
_space_group_IT_number       1

loop_
  _space_group_symop_operation_xyz
  'x, y, z'

loop_
  _atom_site_type_symbol
  _atom_site_label
  _atom_site_symmetry_multiplicity
  _atom_site_fract_x
  _atom_site_fract_y
  _atom_site_fract_z
  _atom_site_occupancy
  Na  Na1       1.0  0.48495957627044106  0.6175865559238503  0.3859028163982785  1.0000
  Na  Na2       1.0  0.9849589662226703  0.8824146901993406  0.6140976978929231  1.0000
  Na  Na3       1.0  0.5150437299167478  0.38241402189740387  0.6140979739649737  1.0000
  Na  Na4       1.0  0.015042864317145197  0.11758687784600855  0.3859026042806875  1.0000
  H   H1        1.0  0.2725651891729797  0.8774638360816313  0.2953117364287792  1.0000
  H   H2        1.0  0.7725677156698438  0.6225364519060435  0.704687255102165  1.0000
  H   H3        1.0  0.7274322144264146  0.1225347612445304  0.7046880487030761  1.0000
  H   H4        1.0  0.22743263922292556  0.37746412588372646  0.2953122141875113  1.0000
  H   H5        1.0  0.5266966789547994  0.9206612693148346  0.31199301860841905  1.0000
  H   H6        1.0  0.026697534187484002  0.5793370754260608  0.6880069153374605  1.0000
  H   H7        1.0  0.4733022002916271  0.07933534751568772  0.6880057612925582  1.0000
  H   H8        1.0  0.9733042963531489  0.42066251217131867  0.31199436321522706  1.0000
  H   H9        1.0  0.4451169921917284  0.8269704823836507  0.20313580648758736  1.0000
  H   H10       1.0  0.9451195655382776  0.6730297795119783  0.7968638694161853  1.0000
  H   H11       1.0  0.5548833627016947  0.17302910519798334  0.7968648115283157  1.0000
  H   H12       1.0  0.0548822650019289  0.326967827558157  0.20313508283214082  1.0000
  H   H13       1.0  0.35825313216187027  0.08026398766313043  0.019158799152208403  1.0000
  H   H14       1.0  0.8582572090300502  0.41973586989501405  0.9808409936205604  1.0000
  H   H15       1.0  0.6417398444954188  0.9197375803353227  0.9808395214107292  1.0000
  H   H16       1.0  0.14174167021681677  0.5802627274627455  0.0191601125847782  1.0000
  H   H17       1.0  0.3680576413461906  0.2875074030321089  0.9662575299622274  1.0000
  H   H18       1.0  0.8680566697623603  0.21249146277140338  0.0337407707440533  1.0000
  H   H19       1.0  0.6319412378979621  0.7124941649024877  0.03373814845436843  1.0000
  H   H20       1.0  0.13194220948443558  0.7875091150818889  0.9662613406922701  1.0000
  H   H21       1.0  0.5185334042344891  0.4927874473494216  0.06833088546542851  1.0000
  H   H22       1.0  0.018530048844439793  0.007212461562915001  0.9316668787682258  1.0000
  H   H23       1.0  0.4814728532456343  0.5072131304081892  0.9316672627512758  1.0000
  H   H24       1.0  0.9814732573428413  0.9927891065140317  0.06833474447886091  1.0000
  H   H25       1.0  0.6506127196599821  0.48658029643226547  0.21904588785118753  1.0000
  H   H26       1.0  0.1506107233895264  0.0134186023034673  0.7809537038907803  1.0000
  H   H27       1.0  0.34939206217461555  0.5134143399181285  0.7809525473558948  1.0000
  H   H28       1.0  0.8493940584443108  0.9865839559973536  0.21904743116687087  1.0000
  H   H29       1.0  0.5550321411914254  0.8682549983623744  0.5172495337026247  1.0000
  H   H30       1.0  0.055032817956927695  0.6317453225867811  0.48275140938845595  1.0000
  H   H31       1.0  0.44496968934895875  0.13174458921915297  0.4827510843133708  1.0000
  H   H32       1.0  0.9449704882302682  0.3682552552344731  0.5172493809747962  1.0000
  H   H33       1.0  0.3792855702740567  0.8055068428340424  0.5625471654291375  1.0000
  H   H34       1.0  0.8792849114445218  0.6944934290224369  0.4374525013805197  1.0000
  H   H35       1.0  0.6207162602659224  0.19449373497146644  0.43745296439732323  1.0000
  H   H36       1.0  0.1207169190958624  0.3055061585590906  0.5625481166354829  1.0000
  H   H37       1.0  0.3013522716651664  0.5669376908600157  0.5382981468635534  1.0000
  H   H38       1.0  0.8013515238323378  0.9330625928039925  0.4617021697171566  1.0000
  H   H39       1.0  0.6986510345216813  0.4330618966896865  0.4617011500791718  1.0000
  H   H40       1.0  0.19865178235444594  0.0669389752412428  0.5382981324565534  1.0000
  H   H41       1.0  0.1964337753245715  0.4451896263354486  0.47315844505975946  1.0000
  H   H42       1.0  0.6964317711318202  0.0548092654990526  0.5268424740852494  1.0000
  H   H43       1.0  0.8035695308627737  0.5548099612459654  0.5268421729563427  1.0000
  H   H44       1.0  0.3035685837614465  0.9451913123224217  0.4731583162777965  1.0000
  C   C1        1.0  0.5796090558132789  0.2820626511183164  0.20613184558713016  1.0000
  C   C2        1.0  0.0796128798886002  0.2179392290955421  0.7938689139250028  1.0000
  C   C3        1.0  0.4203824451980226  0.7179359461924408  0.7938672790076352  1.0000
  C   C4        1.0  0.9203874750044392  0.7820643194613128  0.20613305401618479  1.0000
  C   C5        1.0  0.49880853388322066  0.16846733933350322  0.1469925619953329  1.0000
  C   C6        1.0  0.9988125539533215  0.3315354676616167  0.853007106698378  1.0000
  C   C7        1.0  0.5011785401859683  0.8315342286495454  0.8530050980305076  1.0000
  C   C8        1.0  0.0011907522342084998  0.668466100431182  0.14699517708540097  1.0000
  C   C9        1.0  0.4233321104133338  0.17015662099998963  0.0617223242656735  1.0000
  C   C10       1.0  0.9233347199455719  0.32984322669565813  0.938276816960247  1.0000
  C   C11       1.0  0.5766608662440191  0.8298429665029378  0.9382749910662723  1.0000
  C   C12       1.0  0.07666711059474099  0.6701583413814022  0.061724806286740395  1.0000
  C   C13       1.0  0.4295814381403957  0.28667497796297436  0.032670547083419904  1.0000
  C   C14       1.0  0.929582646356529  0.21332486877137313  0.9673279344689971  1.0000
  C   C15       1.0  0.5704115385162324  0.7133275802436146  0.9673266247532908  1.0000
  C   C16       1.0  0.0704177085373914  0.7866747188419724  0.03267400462027582  1.0000
  C   C17       1.0  0.5128507164959614  0.400429659658279  0.08939953782257959  1.0000
  C   C18       1.0  0.012850254960539998  0.0995702501453692  0.9105995466996502  1.0000
  C   C19       1.0  0.48714816275033707  0.5995709181633089  0.9106012525403671  1.0000
  C   C20       1.0  0.9871530512264001  0.9004303276600325  0.0894005831269098  1.0000
  C   C21       1.0  0.5864324095355256  0.39764418879963875  0.1747359358985534  1.0000
  C   C22       1.0  0.08643335799572328  0.10235570988650268  0.8252638193249595  1.0000
  C   C23       1.0  0.4135664697107444  0.6023534182707239  0.8252630163495736  1.0000
  C   C24       1.0  0.9135699481915577  0.897645858190444  0.17473780392212745  1.0000
  C   C25       1.0  0.6450614114551241  0.2908978729468927  0.30297141997723287  1.0000
  C   C26       1.0  0.1450636907776968  0.20910300710814067  0.6970285156924729  1.0000
  C   C27       1.0  0.3549374677903358  0.709101714571439  0.6970265558918172  1.0000
  C   C28       1.0  0.8549381397623748  0.7908985609530605  0.3029724470178294  1.0000
  C   C29       1.0  0.37117399031097154  0.03376580931239201  0.23879892756271906  1.0000
  C   C30       1.0  0.8711852587486674  0.4662370169780417  0.7612000629634963  1.0000
  C   C31       1.0  0.6288116081117465  0.9662357587024815  0.7612000535363989  1.0000
  C   C32       1.0  0.1288195230851699  0.5337655413227793  0.23880107209415505  1.0000
  C   C33       1.0  0.40380183334330155  0.9057540833578133  0.2629457653839752  1.0000
  C   C34       1.0  0.9038029213422047  0.5942471750130879  0.7370534166229206  1.0000
  C   C35       1.0  0.5961985215497805  0.09424451395227611  0.7370533592114012  1.0000
  C   C36       1.0  0.096197433550401  0.40575439301651534  0.2629462250139056  1.0000
  O   O1        1.0  0.622978349782123  0.4045653774007293  0.35784762382551344  1.0000
  O   O2        1.0  0.1229791631703705  0.09543748647536182  0.642152653487855  1.0000
  O   O3        1.0  0.3770249564049735  0.5954342101648323  0.6421523336539039  1.0000
  O   O4        1.0  0.8770226673697008  0.9045640815858391  0.3578483092224403  1.0000
  O   O5        1.0  0.7150558048353091  0.1901835018514078  0.3249325268194028  1.0000
  O   O6        1.0  0.2150521196975816  0.3098193480774185  0.6750671026764578  1.0000
  O   O7        1.0  0.2849460257032632  0.8098180661146727  0.6750644726707689  1.0000
  O   O8        1.0  0.7849452839013437  0.6901822199682641  0.3249331994968471  1.0000
  O   O9        1.0  0.49336195695272517  0.0465055055090602  0.16974726031968143  1.0000
  O   O10       1.0  0.993362953702075  0.45349532184655317  0.8302527234638218  1.0000
  O   O11       1.0  0.5066310197051962  0.9534921015300387  0.8302503708546637  1.0000
  O   O12       1.0  0.006635925544877399  0.546504265766899  0.1697492156253517  1.0000
  O   O13       1.0  0.2532417547198875  0.12008255492524002  0.2746776887599863  1.0000
  O   O14       1.0  0.7532456566705646  0.37991236722731264  0.7253172645507319  1.0000
  O   O15       1.0  0.7467571245258355  0.8799091106109604  0.7253162661851177  1.0000
  O   O16       1.0  0.24675617387020304  0.6200832593790012  0.2746820035399793  1.0000
  O   O17       1.0  0.24988906678841966  0.5343316457545059  0.473792740982482  1.0000
  O   O18       1.0  0.749889828616233  0.9656676554720324  0.5262080566787972  1.0000
  O   O19       1.0  0.7501142393988401  0.46566695157121535  0.5262070441497855  1.0000
  O   O20       1.0  0.25011347757120456  0.034332922365074105  0.4737933942211399  1.0000
  O   O21       1.0  0.4317020018729209  0.812644010146272  0.502638454177827  1.0000
  O   O22       1.0  0.9317013914633205  0.6873582342748821  0.4973622251035792  1.0000
  O   O23       1.0  0.5682998286671506  0.1873575579149289  0.4973625085324754  1.0000
  O   O24       1.0  0.0683004390768147  0.3126413532907862  0.5026377323757387  1.0000
