data_image0
_chemical_formula_structural       Zn8Co2H54C84N36O12
_chemical_formula_sum              "Zn8 Co2 H54 C84 N36 O12"
_cell_length_a       17.600458629574096
_cell_length_b       17.600434675932274
_cell_length_c       19.572238938199156
_cell_angle_alpha    89.99975421551558
_cell_angle_beta     90.00051996985948
_cell_angle_gamma    119.99968565518772

_space_group_name_H-M_alt    "P 1"
_space_group_IT_number       1

loop_
  _space_group_symop_operation_xyz
  'x, y, z'

loop_
  _atom_site_type_symbol
  _atom_site_label
  _atom_site_symmetry_multiplicity
  _atom_site_fract_x
  _atom_site_fract_y
  _atom_site_fract_z
  _atom_site_occupancy
  Zn  Zn1       1.0  0.8739326433092389  0.5060974473266739  0.3243645768348387  1.0000
  Zn  Zn2       1.0  0.6321618875916003  0.12606743128588951  0.3243673876367694  1.0000
  Zn  Zn3       1.0  0.4939062400166209  0.3678363861472392  0.3243648176260265  1.0000
  Zn  Zn4       1.0  0.36783907639918584  0.49390347841166715  0.6756304596510674  1.0000
  Zn  Zn5       1.0  0.5060970152709247  0.8739370708054609  0.6756282456455693  1.0000
  Zn  Zn6       1.0  0.1260660287257592  0.6321608437847955  0.6756302202261182  1.0000
  Zn  Zn7       1.0  0.666669412164495  0.33333546892463045  0.259570247731979  1.0000
  Zn  Zn8       1.0  0.3333346325659362  0.6666691540184148  0.7404258396931311  1.0000
  Co  Co1       1.0  0.6666662701958188  0.3333331649077992  0.0893209466315597  1.0000
  Co  Co2       1.0  0.33333607001780763  0.6666697535395302  0.9106705424401155  1.0000
  H   H1        1.0  0.13245655497045308  0.6424764912773923  0.4331556676968589  1.0000
  H   H2        1.0  0.09859603549765691  0.7180598724650905  0.4532430172872992  1.0000
  H   H3        1.0  0.14596069506806944  0.7217704487190773  0.3703303602568226  1.0000
  H   H4        1.0  0.5440040248999123  0.5277273569892527  0.4406150819018961  1.0000
  H   H5        1.0  0.8040062050627198  0.7260082165860807  0.5050003248804771  1.0000
  H   H6        1.0  0.8736479860133456  0.661924787941622  0.4314327595255989  1.0000
  H   H7        1.0  0.8532732174017  0.468558748372665  0.9960868978262098  1.0000
  H   H8        1.0  0.0326816079147178  0.6275947069145146  0.20433884876482009  1.0000
  H   H9        1.0  0.09575391785202941  0.6681731674333805  0.0868711190599427  1.0000
  H   H10       1.0  0.5100205902381207  0.867545227911684  0.43315269357653813  1.0000
  H   H11       1.0  0.6194651837063675  0.9014020021056909  0.453239179866415  1.0000
  H   H12       1.0  0.5758056547256275  0.8540354208755333  0.37032727011215627  1.0000
  H   H13       1.0  0.983726138590434  0.4559957328715497  0.44061498311268105  1.0000
  H   H14       1.0  0.9220023378451357  0.19599179796453098  0.5049997949781613  1.0000
  H   H15       1.0  0.7882743661284762  0.12635173140294859  0.43143447088851156  1.0000
  H   H16       1.0  0.6152902613930209  0.1467311843745379  0.996089611153586  1.0000
  H   H17       1.0  0.5949155638570077  0.9673196363924533  0.2043399867836229  1.0000
  H   H18       1.0  0.5724250935781754  0.9042495078982496  0.0868721070184577  1.0000
  H   H19       1.0  0.3575266380514536  0.48998098062784823  0.4331548443296072  1.0000
  H   H20       1.0  0.28194411953824516  0.3805361795569055  0.4532403382090422  1.0000
  H   H21       1.0  0.27823446211839803  0.42419085015784924  0.3703279048102672  1.0000
  H   H22       1.0  0.4722604331437879  0.016270876555722708  0.4406127149774193  1.0000
  H   H23       1.0  0.2739892662394894  0.07800480614402262  0.5049973631871367  1.0000
  H   H24       1.0  0.3380766906402926  0.21172930913049734  0.43142939088444615  1.0000
  H   H25       1.0  0.5314353866334615  0.3847034443981626  0.99608829375601  1.0000
  H   H26       1.0  0.372404986709796  0.40508748611291867  0.2043376103017707  1.0000
  H   H27       1.0  0.3318192743420455  0.42756979917362514  0.0868689791632207  1.0000
  H   H28       1.0  0.4899788608987308  0.3575177413712892  0.5668485769749623  1.0000
  H   H29       1.0  0.3805335154333065  0.28193451052974433  0.5467611498586608  1.0000
  H   H30       1.0  0.4241904223961228  0.2782245014694027  0.6296741806476405  1.0000
  H   H31       1.0  0.016269873827802386  0.472262168594817  0.5593924840210178  1.0000
  H   H32       1.0  0.07800048244238417  0.27398952499886786  0.49500345287236064  1.0000
  H   H33       1.0  0.21172407736673182  0.33807162841728905  0.5685744079427764  1.0000
  H   H34       1.0  0.38470533738241386  0.5314331892621311  0.003907101245872  1.0000
  H   H35       1.0  0.40508964951983734  0.3724035899778784  0.7956585064842514  1.0000
  H   H36       1.0  0.4275742109240213  0.33182010953407115  0.9131250547356871  1.0000
  H   H37       1.0  0.6424825419920595  0.13246232349410283  0.5668516839623621  1.0000
  H   H38       1.0  0.7180643605306756  0.09859831104211032  0.5467654465281555  1.0000
  H   H39       1.0  0.7217792129683148  0.14596991742693893  0.6296761703933242  1.0000
  H   H40       1.0  0.5277319405521937  0.5440046592887527  0.5593898465524276  1.0000
  H   H41       1.0  0.7260095590278938  0.804007294617932  0.4950045735615234  1.0000
  H   H42       1.0  0.6619289073122515  0.8736485772096998  0.5685747055974133  1.0000
  H   H43       1.0  0.46855881279592654  0.853273496104329  0.0039052877789344997  1.0000
  H   H44       1.0  0.6275989523593993  0.0326913717142857  0.7956611017403219  1.0000
  H   H45       1.0  0.6681786331713441  0.0957558111213429  0.9131290557958138  1.0000
  H   H46       1.0  0.8675422098401028  0.5100165248583649  0.5668482984203465  1.0000
  H   H47       1.0  0.9013991557088161  0.6194620761266236  0.546763655058271  1.0000
  H   H48       1.0  0.8540358359468526  0.5758024456740711  0.6296753678192246  1.0000
  H   H49       1.0  0.4559882749093873  0.9837288428093344  0.5593902307985417  1.0000
  H   H50       1.0  0.19598767187720526  0.9220061137431799  0.4950021679938104  1.0000
  H   H51       1.0  0.12634767157267396  0.7882786797602321  0.5685670519352894  1.0000
  H   H52       1.0  0.14673000032682648  0.6152874713597356  0.0039054502821045003  1.0000
  H   H53       1.0  0.967312195337101  0.5949092113091652  0.7956593611666278  1.0000
  H   H54       1.0  0.9042461912980783  0.5724227878348104  0.9131260339074244  1.0000
  C   C1        1.0  0.013290552279592334  0.6152967719364851  0.38467431882388325  1.0000
  C   C2        1.0  0.10325592154489976  0.6795791336099625  0.41124076269193216  1.0000
  C   C3        1.0  0.6548341990485227  0.5232026787446955  0.3961678971180334  1.0000
  C   C4        1.0  0.7470592366331134  0.5603406989896342  0.3933238689145497  1.0000
  C   C5        1.0  0.615081810822545  0.5580203116846362  0.43810308319239505  1.0000
  C   C6        1.0  0.7631838190781723  0.6695276602163533  0.47269379438655795  1.0000
  C   C7        1.0  0.8029212892304047  0.6351044869379551  0.4320839540679984  1.0000
  C   C8        1.0  0.6700888733127001  0.6317834630056324  0.4767446315402708  1.0000
  C   C9        1.0  0.9066354499965142  0.5264637736016268  0.16516827049083818  1.0000
  C   C10       1.0  0.8562991359295823  0.4833673748616434  0.1064855407803265  1.0000
  C   C11       1.0  0.891584093657272  0.5049042009425476  0.0404957484592856  1.0000
  C   C12       1.0  0.9788638108354702  0.5710436617613719  0.0339847151679535  1.0000
  C   C13       1.0  0.9944160364341954  0.5943716188339535  0.1590613796721669  1.0000
  C   C14       1.0  0.028336701800867618  0.6151656582727439  0.0936657733112796  1.0000
  C   C15       1.0  0.6020063305652597  0.9867074517444717  0.3846693729180757  1.0000
  C   C16       1.0  0.5763241061160682  0.8967432136615583  0.4112376851609056  1.0000
  C   C17       1.0  0.8683702571286602  0.3451661547263568  0.3961670759891689  1.0000
  C   C18       1.0  0.8132818774226394  0.2529418618659776  0.39332473780695654  1.0000
  C   C19       1.0  0.9429415042048391  0.38491663769337947  0.4381037437838202  1.0000
  C   C20       1.0  0.9063439276227641  0.23681412866505255  0.4726936897814227  1.0000
  C   C21       1.0  0.8321823278592078  0.19707899206396468  0.4320839030054416  1.0000
  C   C22       1.0  0.961695016116963  0.329908640367421  0.47674437148081955  1.0000
  C   C23       1.0  0.619831805860983  0.09336731799604782  0.165170488501829  1.0000
  C   C24       1.0  0.6270703812193902  0.14370175616740258  0.1064878137683536  1.0000
  C   C25       1.0  0.6133243170251461  0.1084193736879797  0.0404974195267513  1.0000
  C   C26       1.0  0.5921838670555316  0.021139102248632503  0.033986238971238  1.0000
  C   C27       1.0  0.5999601385377034  0.0055864223099177995  0.15906243612312207  1.0000
  C   C28       1.0  0.5868344344204105  0.9716662188359422  0.0936668634100926  1.0000
  C   C29       1.0  0.3847084539804797  0.39799615311956427  0.3846747331793665  1.0000
  C   C30       1.0  0.32042368359403645  0.42367666774600105  0.41123959676261274  1.0000
  C   C31       1.0  0.4767916450702926  0.13162801354290812  0.39616537181979067  1.0000
  C   C32       1.0  0.4396561443007911  0.18671876557490924  0.3933217994178904  1.0000
  C   C33       1.0  0.4419711559579795  0.05705764814803163  0.43810283428677377  1.0000
  C   C34       1.0  0.3304694153343775  0.09366089353481745  0.4726910921559053  1.0000
  C   C35       1.0  0.3648942114253019  0.16782243773261024  0.43207948636887034  1.0000
  C   C36       1.0  0.36820926960717054  0.03830782835682801  0.47674198982173266  1.0000
  C   C37       1.0  0.4735376778435452  0.3801714380925531  0.1651688198807477  1.0000
  C   C38       1.0  0.5166320048453913  0.3729301973789347  0.10648691511972429  1.0000
  C   C39       1.0  0.49509170808335773  0.3866727006894095  0.0404958827395063  1.0000
  C   C40       1.0  0.42895177296612996  0.40781293954709236  0.0339837959249323  1.0000
  C   C41       1.0  0.4056270485761146  0.4000415564466309  0.15906087211190106  1.0000
  C   C42       1.0  0.384828302074105  0.41316296171133626  0.09366558573917419  1.0000
  C   C43       1.0  0.39799660183400226  0.3847000987137151  0.6153326353041919  1.0000
  C   C44       1.0  0.4236753187736754  0.32041546381327635  0.5887636007404993  1.0000
  C   C45       1.0  0.13162754459926154  0.47679074280814854  0.6038385538758604  1.0000
  C   C46       1.0  0.1867158175062684  0.439654091335143  0.606682676057936  1.0000
  C   C47       1.0  0.05705688527825  0.44197248472590184  0.5619034092885684  1.0000
  C   C48       1.0  0.09365628328314562  0.3304681408841503  0.5273109018846327  1.0000
  C   C49       1.0  0.1678150981688944  0.36489030621944357  0.5679227426778936  1.0000
  C   C50       1.0  0.03830363577788636  0.36821233323308894  0.5232594551642434  1.0000
  C   C51       1.0  0.3801730493943155  0.47353645426147756  0.8348249072188381  1.0000
  C   C52       1.0  0.3729313630394487  0.5166297120943142  0.8935079114320814  1.0000
  C   C53       1.0  0.38667473917108464  0.495090281071505  0.9594999487930167  1.0000
  C   C54       1.0  0.40781410585147165  0.4289487768825565  0.9660088726481602  1.0000
  C   C55       1.0  0.40004327824537  0.4056232676262539  0.8409332619472565  1.0000
  C   C56       1.0  0.4131657072099131  0.38482750604774196  0.9063290426301477  1.0000
  C   C57       1.0  0.615302996869218  0.01330095461671729  0.6153378253699768  1.0000
  C   C58       1.0  0.679584966347413  0.10326082319386373  0.5887676279258115  1.0000
  C   C59       1.0  0.5232063818998468  0.6548353616515498  0.6038362395520664  1.0000
  C   C60       1.0  0.5603450015884165  0.7470611160972993  0.6066805477357845  1.0000
  C   C61       1.0  0.5580251581417955  0.6150834561875483  0.5619005318734693  1.0000
  C   C62       1.0  0.6695307033893981  0.763185864984159  0.527310893468794  1.0000
  C   C63       1.0  0.6351088275265441  0.8029226691780167  0.567921767151155  1.0000
  C   C64       1.0  0.6317856605237823  0.6700892987467598  0.523258751285411  1.0000
  C   C65       1.0  0.526466536993844  0.9066418089854763  0.8348241559281817  1.0000
  C   C66       1.0  0.4833699130984924  0.8563051849507983  0.8935082162061434  1.0000
  C   C67       1.0  0.504906448704162  0.8915866234523407  0.9594986424393924  1.0000
  C   C68       1.0  0.5710476954977679  0.9788669537269711  0.9660105187082024  1.0000
  C   C69       1.0  0.5943767314914439  0.9944235738526926  0.8409354711311181  1.0000
  C   C70       1.0  0.6151712753312923  0.028340605295554145  0.9063310753406739  1.0000
  C   C71       1.0  0.9867047331749106  0.602000132071531  0.6153336088528434  1.0000
  C   C72       1.0  0.8967406466993426  0.5763199224614225  0.5887640244587473  1.0000
  C   C73       1.0  0.3451612367038095  0.8683720156836043  0.6038345828369032  1.0000
  C   C74       1.0  0.25293642019061485  0.8132842907443346  0.6066766021883581  1.0000
  C   C75       1.0  0.3849136137395772  0.9429432923886976  0.5619007171140921  1.0000
  C   C76       1.0  0.23681187762166897  0.9063482892775311  0.5273083276591279  1.0000
  C   C77       1.0  0.19707337593088417  0.8321858452979639  0.5679183788451212  1.0000
  C   C78       1.0  0.32990568101596557  0.9616988042003527  0.5232579672372566  1.0000
  C   C79       1.0  0.09336234835174663  0.6198258419783972  0.8348244672588194  1.0000
  C   C80       1.0  0.14369790841435295  0.6270649354184313  0.8935077775283417  1.0000
  C   C81       1.0  0.10841616673243942  0.6133201235783828  0.9594995984416173  1.0000
  C   C82       1.0  0.021136068914969972  0.5921797488272631  0.9660095224883206  1.0000
  C   C83       1.0  0.005579265667101661  0.5999532020673187  0.8409333084945771  1.0000
  C   C84       1.0  0.9716622767724915  0.5868302653589481  0.9063304327566399  1.0000
  N   N1        1.0  0.7630635225129296  0.5096280446263108  0.3493668750857069  1.0000
  N   N2        1.0  0.685929993684461  0.4456827671163309  0.3266166026176975  1.0000
  N   N3        1.0  0.6198683481195887  0.45248280198273266  0.3532724407096879  1.0000
  N   N4        1.0  0.8540576911107253  0.4882377624647133  0.2205072243397836  1.0000
  N   N5        1.0  0.7762823181958041  0.4253865887170816  0.1974192238688062  1.0000
  N   N6        1.0  0.7751224092582873  0.4206553996987097  0.1290882619574205  1.0000
  N   N7        1.0  0.7465635695233673  0.23693749859441476  0.3493678478211351  1.0000
  N   N8        1.0  0.7597535332099312  0.3140709164964972  0.3266146067069968  1.0000
  N   N9        1.0  0.8326173500415094  0.3801325911351368  0.35326936739669174  1.0000
  N   N10       1.0  0.6341812798341665  0.14594344509147555  0.22050902990824992  1.0000
  N   N11       1.0  0.6491043744086441  0.22372092996261733  0.1974221588394087  1.0000
  N   N12       1.0  0.6455336002135539  0.22488005811031533  0.1290901537339408  1.0000
  N   N13       1.0  0.49037104523526415  0.253435342988773  0.34936523100230227  1.0000
  N   N14       1.0  0.5543158141228304  0.2402467740926468  0.3266144174163301  1.0000
  N   N15       1.0  0.547513002745248  0.1673827187561231  0.3532706535478951  1.0000
  N   N16       1.0  0.5117654104323465  0.3658238890719403  0.22050861115815928  1.0000
  N   N17       1.0  0.5746181434115483  0.35089902955406405  0.1974216060004395  1.0000
  N   N18       1.0  0.5793455950594649  0.3544675557782569  0.1290896302907569  1.0000
  N   N19       1.0  0.253435240971605  0.4903699767348754  0.6506359221448221  1.0000
  N   N20       1.0  0.24024857881320133  0.5543166984435645  0.6733842909472185  1.0000
  N   N21       1.0  0.16738418046379883  0.5475141277947699  0.6467304370303282  1.0000
  N   N22       1.0  0.36582559633367145  0.5117636484157231  0.7794861894820002  1.0000
  N   N23       1.0  0.3509020793380629  0.5746177674228791  0.8025727874446033  1.0000
  N   N24       1.0  0.3544717967286958  0.5793424813834847  0.8709042701916517  1.0000
  N   N25       1.0  0.5096297575476569  0.7630640929382794  0.6506344008710627  1.0000
  N   N26       1.0  0.4456830942168395  0.6859310184304945  0.673384367997059  1.0000
  N   N27       1.0  0.4524841400712347  0.6198690179313573  0.6467294235061019  1.0000
  N   N28       1.0  0.48823951082234657  0.8540655769013697  0.7794855164741676  1.0000
  N   N29       1.0  0.4253876065292345  0.7762900018720414  0.8025716798026679  1.0000
  N   N30       1.0  0.4206597152546863  0.7751320732051851  0.8709026289737023  1.0000
  N   N31       1.0  0.23693422619022897  0.7465641406599346  0.6506307585120723  1.0000
  N   N32       1.0  0.3140690364908282  0.7597516423590918  0.6733806186284497  1.0000
  N   N33       1.0  0.38013066855828737  0.8326175109094364  0.6467261586096384  1.0000
  N   N34       1.0  0.1459376843858494  0.6341765538259736  0.7794865816209011  1.0000
  N   N35       1.0  0.22371564407885106  0.6491015194944438  0.8025731423912461  1.0000
  N   N36       1.0  0.22487187162469263  0.6455298107045663  0.8709041204116161  1.0000
  O   O1        1.0  0.9478426740448426  0.5783596752710662  0.42428892374555716  1.0000
  O   O2        1.0  0.0038998312105747385  0.5964334443077989  0.32009866952027716  1.0000
  O   O3        1.0  0.6305439984113976  0.05216188981934517  0.424279956926476  1.0000
  O   O4        1.0  0.5925045200130015  0.9960907681278642  0.3200977557257403  1.0000
  O   O5        1.0  0.42164433091901543  0.3694828702291844  0.4242902342325153  1.0000
  O   O6        1.0  0.4035752953103895  0.4074724216027191  0.3200996558017621  1.0000
  O   O7        1.0  0.3694602686629977  0.4216201496853103  0.5757212398380602  1.0000
  O   O8        1.0  0.40749679383250753  0.4035823604875546  0.6799036866707979  1.0000
  O   O9        1.0  0.5783717890859777  0.9478460026260509  0.5757277178241438  1.0000
  O   O10       1.0  0.5964286669121608  0.003916263257522763  0.6799103479002467  1.0000
  O   O11       1.0  0.05216284426746399  0.6305465551596612  0.5757246404729983  1.0000
  O   O12       1.0  0.9960844998245975  0.592488867104002  0.67990318208151  1.0000
