data_image0
_chemical_formula_structural       Zr6H54C62O32
_chemical_formula_sum              "Zr6 H54 C62 O32"
_cell_length_a       14.775896811050933
_cell_length_b       14.769501424762115
_cell_length_c       14.797857457300385
_cell_angle_alpha    60.24522195307503
_cell_angle_beta     59.873023978982296
_cell_angle_gamma    60.04356084186112

_space_group_name_H-M_alt    "P 1"
_space_group_IT_number       1

loop_
  _space_group_symop_operation_xyz
  'x, y, z'

loop_
  _atom_site_type_symbol
  _atom_site_label
  _atom_site_symmetry_multiplicity
  _atom_site_fract_x
  _atom_site_fract_y
  _atom_site_fract_z
  _atom_site_occupancy
  Zr  Zr1       1.0  0.8771588814336511  0.8831553454561956  0.6183368966133569  1.0000
  Zr  Zr2       1.0  0.11967292132485606  0.11815989460612292  0.3836340733306684  1.0000
  Zr  Zr3       1.0  0.11524370639816801  0.8818731067157086  0.6212740427938215  1.0000
  Zr  Zr4       1.0  0.8796102726722169  0.12415700771995845  0.37995964613372013  1.0000
  Zr  Zr5       1.0  0.11636572565894479  0.8827040290584022  0.38077084049648147  1.0000
  Zr  Zr6       1.0  0.8775588466592553  0.12132519535214947  0.6209215790208161  1.0000
  H   H1        1.0  0.08941700900089018  0.7199239233337806  0.5919476986245654  1.0000
  H   H2        1.0  0.09452916316273977  0.09500490682327722  0.2188595799520741  1.0000
  H   H3        1.0  0.09077708564846897  0.09322974316888377  0.5987767301946006  1.0000
  H   H4        1.0  0.7147452503212434  0.09958815497309105  0.5933306736662162  1.0000
  H   H5        1.0  0.16363995588021402  0.5523647270797339  0.41724369602849265  1.0000
  H   H6        1.0  0.8244761085043281  0.4654057223827123  0.5629202225090637  1.0000
  H   H7        1.0  0.6475466867639099  0.05848893165853772  0.9674623183611217  1.0000
  H   H8        1.0  0.3639426995547979  0.9189834420959144  0.050156836461553625  1.0000
  H   H9        1.0  0.8526527860981331  0.1393164302627312  0.09659075597451762  1.0000
  H   H10       1.0  0.11888935105803028  0.8499647375613293  0.9244384649873182  1.0000
  H   H11       1.0  0.6013440708338608  0.4204104558351176  0.351831644167099  1.0000
  H   H12       1.0  0.4141680059187109  0.6046039964943973  0.630017775997018  1.0000
  H   H13       1.0  0.7394867405968101  0.6482345038482721  0.9828609017250257  1.0000
  H   H14       1.0  0.8049321436393556  0.5628985882497732  0.8993489905316634  1.0000
  H   H15       1.0  0.8073748380825237  0.39311821066535657  0.07008753572620907  1.0000
  H   H16       1.0  0.7403950346254007  0.478592187126047  0.1537358299396701  1.0000
  H   H17       1.0  0.594761680365586  0.8615700288088918  0.6339106882449173  1.0000
  H   H18       1.0  0.4091157781271662  0.13460591941555577  0.3597928109215473  1.0000
  H   H19       1.0  0.2288649988121564  0.27110352483880706  0.4558856496202139  1.0000
  H   H20       1.0  0.22837402754970532  0.3586537071282764  0.32160044142123917  1.0000
  H   H21       1.0  0.27788880715812075  0.384569565294946  0.39143395698708616  1.0000
  H   H22       1.0  0.713361730480706  0.653378213372605  0.5572988345727621  1.0000
  H   H23       1.0  0.7460111458783769  0.6425125484385673  0.6634139085094971  1.0000
  H   H24       1.0  0.7684886629197295  0.7486474549003077  0.5357636030386246  1.0000
  H   H25       1.0  0.5718155224472525  0.06970333790947354  0.14427046607067942  1.0000
  H   H26       1.0  0.4298725793817937  0.15305883866274422  0.16060671202981772  1.0000
  H   H27       1.0  0.4627613565939867  0.016728138198018827  0.2506558405541526  1.0000
  H   H28       1.0  0.5436472908161891  0.9564076854657203  0.7699825254257108  1.0000
  H   H29       1.0  0.590935750038007  0.8217720101601245  0.8569404690320538  1.0000
  H   H30       1.0  0.4454219875976268  0.8916897024982616  0.8826662951286011  1.0000
  H   H31       1.0  0.757939204448512  0.22850410967177484  0.9790052709257322  1.0000
  H   H32       1.0  0.8426358546743344  0.23397068962490425  0.839165271035462  1.0000
  H   H33       1.0  0.7576415674323654  0.15177072301366237  0.9163916834482251  1.0000
  H   H34       1.0  0.20101328134632715  0.7502074508012981  0.05369778980382716  1.0000
  H   H35       1.0  0.2192426598707584  0.8315390340925788  0.09704340839340367  1.0000
  H   H36       1.0  0.12360264765823828  0.760977683239602  0.1894159485278876  1.0000
  H   H37       1.0  0.4864469262518866  0.5456941478676214  0.25422775132949477  1.0000
  H   H38       1.0  0.34445610362133283  0.5931845494745717  0.33639061449384394  1.0000
  H   H39       1.0  0.42109616373448955  0.6836169370849348  0.25905127957842206  1.0000
  H   H40       1.0  0.5416884426469721  0.49269612635536225  0.7144087254183376  1.0000
  H   H41       1.0  0.5820072405328603  0.35107995312622364  0.730619752951199  1.0000
  H   H42       1.0  0.6787700920938066  0.42033555493565444  0.6414995155601559  1.0000
  H   H43       1.0  0.48093670616566475  0.7624430874844917  0.7222046104321648  1.0000
  H   H44       1.0  0.33896700350508974  0.8420092843915868  0.7330431488346533  1.0000
  H   H45       1.0  0.419409456401823  0.7627898280023191  0.6443180345621042  1.0000
  H   H46       1.0  0.5324634250340948  0.22444337558491867  0.2621314168547285  1.0000
  H   H47       1.0  0.5835261420558382  0.23488790201918172  0.34219867220914324  1.0000
  H   H48       1.0  0.6718327095551045  0.14690672149014725  0.2622358263109986  1.0000
  H   H49       1.0  0.23288249531587724  0.46129463397728176  0.04406112551216515  1.0000
  H   H50       1.0  0.14798890324718172  0.3978562303862034  0.17536260582787117  1.0000
  H   H51       1.0  0.24177993400999045  0.322759447979017  0.08326088703927328  1.0000
  H   H52       1.0  0.2774341022430421  0.48615948228016487  0.8835919796788331  1.0000
  H   H53       1.0  0.21970993171913017  0.5904894202442463  0.7791991913167351  1.0000
  H   H54       1.0  0.20945678306993198  0.6256486587844421  0.8820285569046787  1.0000
  C   C1        1.0  0.9894628834585363  0.7050752562976897  0.4931100645014083  1.0000
  C   C2        1.0  0.309687709921363  0.9936702635100332  0.20379237306104864  1.0000
  C   C3        1.0  0.9999637726204115  0.3072550006635595  0.49662993460512433  1.0000
  C   C4        1.0  0.6956524430122857  0.9947632853033214  0.8077408338892197  1.0000
  C   C5        1.0  0.9978965128136537  0.6980505376363554  0.8033597160623102  1.0000
  C   C6        1.0  0.6965281000332978  0.005093156491376824  0.4922992339454382  1.0000
  C   C7        1.0  0.9991828746145118  0.3083855740414026  0.2020576711320102  1.0000
  C   C8        1.0  0.30563077352973517  0.9927672912303009  0.5033232364087609  1.0000
  C   C9        1.0  0.30619799089170396  0.7026336306351979  0.49295601656113064  1.0000
  C   C10       1.0  0.9870781124427029  0.9997429974580286  0.8115765789656564  1.0000
  C   C11       1.0  0.7000071539185766  0.3131197534717742  0.4981103441253579  1.0000
  C   C12       1.0  0.9941362666632969  0.9969765155974527  0.20083048667371622  1.0000
  C   C13       1.0  0.0012529258078260049  0.4100887836589919  0.49166355753207813  1.0000
  C   C14       1.0  0.9868254413305593  0.606458996548703  0.490947186823213  1.0000
  C   C15       1.0  0.10048450667083139  0.4328975136662123  0.4476093038157103  1.0000
  C   C16       1.0  0.8876745061640677  0.5850696163781208  0.531987318713291  1.0000
  C   C17       1.0  0.08946108617483615  0.5317159851936281  0.4490123873792129  1.0000
  C   C18       1.0  0.8987254190572995  0.48574001022666374  0.5315208897485987  1.0000
  C   C19       1.0  0.4138086026559689  0.9903704625422309  0.10572844605101749  1.0000
  C   C20       1.0  0.5964515050489111  0.9895206048287118  0.9106292482564342  1.0000
  C   C21       1.0  0.49422721760515037  0.02950893809041595  0.08568658796836104  1.0000
  C   C22       1.0  0.5179101228160765  0.9468832991379299  0.9323670087041619  1.0000
  C   C23       1.0  0.5836852880100593  0.028450390276788154  0.9868967690553703  1.0000
  C   C24       1.0  0.4277381637835802  0.9492123441027118  0.03058173189813808  1.0000
  C   C25       1.0  0.9811507190478184  9.093623848612585e-05  0.915376148190077  1.0000
  C   C26       1.0  0.9921560967051805  0.990602455293299  0.10406683680157156  1.0000
  C   C27       1.0  0.9016205981491724  0.08379535674263382  0.9640183961841514  1.0000
  C   C28       1.0  0.06912530465418616  0.9046789040990076  0.05784941567220157  1.0000
  C   C29       1.0  0.910771817371362  0.07583889776664438  0.05737479285163966  1.0000
  C   C30       1.0  0.06067136655843122  0.9132941378473445  0.9638233571896462  1.0000
  C   C31       1.0  0.4115948525545506  0.6059769973921193  0.48648395413919576  1.0000
  C   C32       1.0  0.60204905360586  0.4172849132308658  0.4971287401409794  1.0000
  C   C33       1.0  0.4645431297019016  0.5563946655549614  0.40355454949990827  1.0000
  C   C34       1.0  0.5514440366014882  0.4693537682192783  0.5775925383350824  1.0000
  C   C35       1.0  0.558629451899769  0.4625099606987605  0.41266634874554586  1.0000
  C   C36       1.0  0.45685200536940596  0.5626990097663622  0.5690327799637629  1.0000
  C   C37       1.0  0.0063960089019519115  0.5947981383368416  0.9003164198588107  1.0000
  C   C38       1.0  0.003598123051695356  0.40800035863313866  0.10106911766689558  1.0000
  C   C39       1.0  0.9178311843634861  0.5543191575924027  0.9625527275591137  1.0000
  C   C40       1.0  0.09403012401678984  0.44975553870488477  0.04134801412410376  1.0000
  C   C41       1.0  0.9179975024523302  0.462093116483267  0.057645495614941956  1.0000
  C   C42       1.0  0.09911823937930145  0.5364629421016716  0.9380416807309043  1.0000
  C   C43       1.0  0.804955509014228  0.5709890710190777  0.9692605592345486  1.0000
  C   C44       1.0  0.8058965160104422  0.46488815558170415  0.07649202301566752  1.0000
  C   C45       1.0  0.40773633690558614  0.9906366986366988  0.5034296582452951  1.0000
  C   C46       1.0  0.5965541276869785  0.0051399503226932505  0.48995131150242327  1.0000
  C   C47       1.0  0.4596810142588054  0.9097833511229255  0.583288812278333  1.0000
  C   C48       1.0  0.5457749738791193  0.08486964386342784  0.4089383888690604  1.0000
  C   C49       1.0  0.5527246948040629  0.9210480242194308  0.5736898238356712  1.0000
  C   C50       1.0  0.4516313708666431  0.07469211152496781  0.41957916417420177  1.0000
  C   C51       1.0  0.2149016211750236  0.35774393764476997  0.4021335349166577  1.0000
  C   C52       1.0  0.7730382043371692  0.6620396079598266  0.5735364660243079  1.0000
  C   C53       1.0  0.48969782902832987  0.06904758869816167  0.16447279347817562  1.0000
  C   C54       1.0  0.5244998380023705  0.9022010340813934  0.8564578045136454  1.0000
  C   C55       1.0  0.8099803057504075  0.1796595619631064  0.9226716138235459  1.0000
  C   C56       1.0  0.157965607764652  0.8064497388529686  0.10178505515213483  1.0000
  C   C57       1.0  0.4273871663636513  0.5967428178708332  0.30807175457719166  1.0000
  C   C58       1.0  0.590506956228694  0.43169886954229514  0.6709224463860436  1.0000
  C   C59       1.0  0.4229043483822322  0.814043705527567  0.6758168448046785  1.0000
  C   C60       1.0  0.5853696938483708  0.17784388354507993  0.3136674897787302  1.0000
  C   C61       1.0  0.18447271297742426  0.4058115389201333  0.08760360547101699  1.0000
  C   C62       1.0  0.2069493819878547  0.5609531923405129  0.867242775863751  1.0000
  O   O1        1.0  0.914146061007123  0.7438419048839081  0.5712886991490291  1.0000
  O   O2        1.0  0.2690430659132589  0.07127319887922574  0.24300771283004247  1.0000
  O   O3        1.0  0.0782087487409556  0.2636386389377278  0.42266336955364636  1.0000
  O   O4        1.0  0.7364654334783793  0.919934516086819  0.7646861057271437  1.0000
  O   O5        1.0  0.06855238370086178  0.7456277506025301  0.7644328220155642  1.0000
  O   O6        1.0  0.7363927707910348  0.08248148547456692  0.4186850051993573  1.0000
  O   O7        1.0  0.9206431607326875  0.27138553988015013  0.23874618234177084  1.0000
  O   O8        1.0  0.26216791781016  0.9188866690183132  0.5804367724713514  1.0000
  O   O9        1.0  0.26247939191035413  0.7408237769657263  0.42000360743482895  1.0000
  O   O10       1.0  0.9132772049688072  0.07713835487925287  0.7680341674290077  1.0000
  O   O11       1.0  0.738115618186363  0.2689126251388673  0.5768494193403695  1.0000
  O   O12       1.0  0.07224625037861197  0.9232525478018019  0.2394685110592789  1.0000
  O   O13       1.0  0.06637759464536706  0.9239529305301915  0.7712670845220017  1.0000
  O   O14       1.0  0.738326263093029  0.2731309541725936  0.42166657472252916  1.0000
  O   O15       1.0  0.9192360313522414  0.07667220017761187  0.23771087098548097  1.0000
  O   O16       1.0  0.26500332848707603  0.7395203160926087  0.572513373126057  1.0000
  O   O17       1.0  0.9201050606075611  0.7345447608286264  0.7662302939758517  1.0000
  O   O18       1.0  0.2670425800126068  0.07001781957246327  0.4263197315388894  1.0000
  O   O19       1.0  0.07470779594110873  0.2635221350605406  0.24454046638633994  1.0000
  O   O20       1.0  0.7349888492812584  0.9277548143280399  0.5693861025972918  1.0000
  O   O21       1.0  0.7327007955731518  0.07303897174988087  0.7698768682482395  1.0000
  O   O22       1.0  0.06935506623411666  0.7415084853161106  0.4188024445992014  1.0000
  O   O23       1.0  0.266497635588067  0.920604531135737  0.23930895700041066  1.0000
  O   O24       1.0  0.9214951062959713  0.26999912964362965  0.5737087605796842  1.0000
  O   O25       1.0  0.7951648258918667  0.07119312906850436  0.5673343856241075  1.0000
  O   O26       1.0  0.0644650888276105  0.067513446879552  0.5704970826445931  1.0000
  O   O27       1.0  0.06692788226497022  0.06863081033265668  0.2990172768010169  1.0000
  O   O28       1.0  0.06327401748984593  0.8000739691213993  0.5666645256917491  1.0000
  O   O29       1.0  0.14676411660462202  0.950380754769995  0.4522727031318042  1.0000
  O   O30       1.0  0.9472721801043208  0.9543158288811071  0.4497906908253455  1.0000
  O   O31       1.0  0.9495211289458254  0.15012408354977685  0.4521685596782134  1.0000
  O   O32       1.0  0.9462813618988551  0.9526188324970234  0.6488811546266503  1.0000
