data_image0
_chemical_formula_structural       CuH28C20S4N10O4
_chemical_formula_sum              "Cu1 H28 C20 S4 N10 O4"
_cell_length_a       8.694042224492742
_cell_length_b       9.70085117390343
_cell_length_c       9.83194102306872
_cell_angle_alpha    63.12833958584386
_cell_angle_beta     73.48162169634968
_cell_angle_gamma    64.29060193610083

_space_group_name_H-M_alt    "P 1"
_space_group_IT_number       1

loop_
  _space_group_symop_operation_xyz
  'x, y, z'

loop_
  _atom_site_type_symbol
  _atom_site_label
  _atom_site_symmetry_multiplicity
  _atom_site_fract_x
  _atom_site_fract_y
  _atom_site_fract_z
  _atom_site_occupancy
  Cu  Cu1       1.0  0.9999992493689405  9.422711641931313e-07  0.9999987355730725  1.0000
  H   H1        1.0  0.21718953822147583  0.7532726195309039  0.8690554523949031  1.0000
  H   H2        1.0  0.7828136063394525  0.2467304952117146  0.13093933925266296  1.0000
  H   H3        1.0  0.11862984173978224  0.6721298964484106  0.049394447317098474  1.0000
  H   H4        1.0  0.8813705789812193  0.32787083708207376  0.9505999919855483  1.0000
  H   H5        1.0  0.08741313269671021  0.04359260126860679  0.19760873398266912  1.0000
  H   H6        1.0  0.9125881625441115  0.9564055931895722  0.8023896323476482  1.0000
  H   H7        1.0  0.17165155211723263  0.14377227465724468  0.024312264455375005  1.0000
  H   H8        1.0  0.828346003529987  0.8562296628744406  0.9756854074553518  1.0000
  H   H9        1.0  0.2668207387681394  0.9386381740491598  0.11520963976219906  1.0000
  H   H10       1.0  0.7331792354671907  0.06136377451480259  0.8847854048681966  1.0000
  H   H11       1.0  0.4099821224111794  0.057353146678544  0.3781784571495167  1.0000
  H   H12       1.0  0.5900244380400184  0.9426437458053482  0.6218191869755788  1.0000
  H   H13       1.0  0.1989305259646201  0.14630792673460036  0.32881920346736854  1.0000
  H   H14       1.0  0.801076276360959  0.8536815555108247  0.6711825736547187  1.0000
  H   H15       1.0  0.33498935207234143  0.8404161717104303  0.3733599517787383  1.0000
  H   H16       1.0  0.6650218151116648  0.15957439502550125  0.6266443688668987  1.0000
  H   H17       1.0  0.14892538587360354  0.8788332721316294  0.5046026770564398  1.0000
  H   H18       1.0  0.8510836827353148  0.1211597409561804  0.4954031403482304  1.0000
  H   H19       1.0  0.35536000224919223  0.7921556129965596  0.5648036821743574  1.0000
  H   H20       1.0  0.6446502830343872  0.20783744920953498  0.43519876651686945  1.0000
  H   H21       1.0  0.2267722709638705  0.34960249543611605  0.05966281001327905  1.0000
  H   H22       1.0  0.7732261407516462  0.650396794017908  0.9403439266083071  1.0000
  H   H23       1.0  0.49352340155105184  0.25371996379229955  0.17364112138815105  1.0000
  H   H24       1.0  0.5064759775841455  0.7462867414163197  0.8263601685962743  1.0000
  H   H25       1.0  0.23446771423048332  0.6065477563345993  0.2800134231460235  1.0000
  H   H26       1.0  0.7655241407916052  0.3934567636080645  0.7199824936877733  1.0000
  H   H27       1.0  0.5021075733055511  0.4851827005411025  0.6066537641775014  1.0000
  H   H28       1.0  0.4978816622074335  0.5148156349653734  0.3933484907247334  1.0000
  C   C1        1.0  0.3480328209799881  0.4224805846122805  0.8253383629212225  1.0000
  C   C2        1.0  0.6519648353077515  0.5775175278942797  0.17466702693949535  1.0000
  C   C3        1.0  0.13183357113082653  0.25715499628183386  0.7260068957709153  1.0000
  C   C4        1.0  0.8681644310020576  0.7428457262163803  0.2739901708120628  1.0000
  C   C5        1.0  0.27924609046543475  0.05491240959229769  0.4228501479486084  1.0000
  C   C6        1.0  0.7207625537996378  0.9450819493354173  0.5771501095639949  1.0000
  C   C7        1.0  0.2788559895480987  0.8826752444302102  0.4688907519874589  1.0000
  C   C8        1.0  0.7211535292367943  0.11731657542519965  0.5311134325528144  1.0000
  C   C9        1.0  0.21567626271615836  0.11365371898160961  0.5523071380270325  1.0000
  C   C10       1.0  0.7843307331498012  0.8863418930655912  0.4476929833802146  1.0000
  C   C11       1.0  0.34630398077446506  0.3545956605540397  0.9857055679061872  1.0000
  C   C12       1.0  0.6536869665150679  0.6454112022512817  0.014295669729662452  1.0000
  C   C13       1.0  0.49504661454947313  0.3018781020246735  0.049462582479641415  1.0000
  C   C14       1.0  0.5049527535148144  0.6981285377807324  0.9505417901146918  1.0000
  C   C15       1.0  0.35277790112818525  0.6802312895842489  0.04478658658282339  1.0000
  C   C16       1.0  0.6472171205291917  0.31977437473600645  0.9552101048047845  1.0000
  C   C17       1.0  0.3516744725454614  0.6173736776307878  0.20535369885416802  1.0000
  C   C18       1.0  0.6483238237683224  0.3826293496440769  0.7946494299639614  1.0000
  C   C19       1.0  0.4999293205776354  0.4339593891391472  0.7306698401590666  1.0000
  C   C20       1.0  0.5000613177697845  0.5660450816852389  0.2693294453881735  1.0000
  S   S1        1.0  0.22873813170880203  0.2946354847310957  0.5349802889729675  1.0000
  S   S2        1.0  0.7712655710492203  0.70536265535614  0.46501853268693344  1.0000
  S   S3        1.0  0.15559983089558224  0.5041794629893488  0.7433129350153749  1.0000
  S   S4        1.0  0.8444035739912368  0.4958163505201655  0.25668085194600115  1.0000
  N   N1        1.0  0.2061556765140297  0.7280464561341091  0.9828807889589868  1.0000
  N   N2        1.0  0.7938417489702447  0.27195913201413197  0.017117385294831346  1.0000
  N   N3        1.0  0.08904413514112265  0.35142123443213785  0.8067661404172739  1.0000
  N   N4        1.0  0.9109531041833778  0.6485782675164699  0.19323163447810998  1.0000
  N   N5        1.0  0.09925008632100683  0.11645360144626689  0.7846133150137719  1.0000
  N   N6        1.0  0.9007467065178293  0.883547115535812  0.21538506520936815  1.0000
  N   N7        1.0  0.14531656059676834  0.0374438153109367  0.6859214008877006  1.0000
  N   N8        1.0  0.8546854937621333  0.9625555778957775  0.31407728466684404  1.0000
  N   N9        1.0  0.1520550581024551  0.035020243150427184  0.09526508965630141  1.0000
  N   N10       1.0  0.8479453552379399  0.9649804467779147  0.9047314047196199  1.0000
  O   O1        1.0  0.030621776556408443  0.6240224628521674  0.8082974509673023  1.0000
  O   O2        1.0  0.9693665622949371  0.3759782809201866  0.19170704212707795  1.0000
  O   O3        1.0  0.19708168454679517  0.5638264896444553  0.5769584192688343  1.0000
  O   O4        1.0  0.8029162880636636  0.43617405844518237  0.42304686760722626  1.0000
