data_image0
_chemical_formula_structural       Zn4H8C22N4O17
_chemical_formula_sum              "Zn4 H8 C22 N4 O17"
_cell_length_a       13.096942734712634
_cell_length_b       13.292694479432015
_cell_length_c       13.09599832200329
_cell_angle_alpha    87.41189669284283
_cell_angle_beta     72.83509510944059
_cell_angle_gamma    94.2204561029638

_space_group_name_H-M_alt    "P 1"
_space_group_IT_number       1

loop_
  _space_group_symop_operation_xyz
  'x, y, z'

loop_
  _atom_site_type_symbol
  _atom_site_label
  _atom_site_symmetry_multiplicity
  _atom_site_fract_x
  _atom_site_fract_y
  _atom_site_fract_z
  _atom_site_occupancy
  Zn  Zn1       1.0  0.40877800388580704  0.3935830977923017  0.44600498744422595  1.0000
  Zn  Zn2       1.0  0.5672069899290547  0.4095508491564671  0.5856546018418597  1.0000
  Zn  Zn3       1.0  0.38967940860978695  0.5698302687846847  0.6156039390460746  1.0000
  Zn  Zn4       1.0  0.5793664372477281  0.5785615729978987  0.39152735292525137  1.0000
  H   H1        1.0  0.4743453898756868  0.4119787938568463  0.09002128814724839  1.0000
  H   H2        1.0  0.08929635122113669  0.5616362134157171  0.3296979976933016  1.0000
  H   H3        1.0  0.6488698897037536  0.6049276520225747  0.12671271085161345  1.0000
  H   H4        1.0  0.4298994908605777  0.015849160708071994  0.36482891425580277  1.0000
  H   H5        1.0  0.4894145243717033  0.8265468062692066  0.31106385079792875  1.0000
  H   H6        1.0  0.034914547607876  0.46153526007545764  0.6407425624345106  1.0000
  H   H7        1.0  0.43437626938774077  0.9071245624939477  0.6099549154279981  1.0000
  H   H8        1.0  0.4722549465723205  0.0784951418808291  0.6474287104153472  1.0000
  C   C1        1.0  0.7676272997074917  0.5210499869776015  0.4442565917339392  1.0000
  C   C2        1.0  0.43946138047144956  0.040945656298475804  0.5044100379950933  1.0000
  C   C3        1.0  0.20720506968496716  0.4858524680783205  0.5517573709954035  1.0000
  C   C4        1.0  0.523259525810836  0.47328634502515843  0.22108032581808595  1.0000
  C   C5        1.0  0.466313788074359  0.2177379366306837  0.5571353189408297  1.0000
  C   C6        1.0  0.4673848290287239  0.7546081045682269  0.4791038122690095  1.0000
  C   C7        1.0  0.5256920213924515  0.47106054387803914  0.10966350653752237  1.0000
  C   C8        1.0  0.4845552777259882  0.5150906522021046  0.7830839453690001  1.0000
  C   C9        1.0  0.0912461018086077  0.4829712702145841  0.561971244275149  1.0000
  C   C10       1.0  0.5866297379347714  0.5415345906128053  0.032344229576899856  1.0000
  C   C11       1.0  0.053622170873950395  0.5064910094418735  0.4782283839536915  1.0000
  C   C12       1.0  0.4881806937021267  0.5261141247711977  0.8962917934957697  1.0000
  C   C13       1.0  0.8863493168975579  0.5381284815407099  0.42640485383549265  1.0000
  C   C14       1.0  0.5829901960855963  0.5392242560807503  0.9205765940024758  1.0000
  C   C15       1.0  0.9373964239848432  0.49387760815618975  0.49284038848721673  1.0000
  C   C16       1.0  0.4557623846401738  0.8629682244615042  0.45468968385909375  1.0000
  C   C17       1.0  0.683833379977301  0.5565864101718673  0.8394196374953606  1.0000
  C   C18       1.0  0.8781441380146189  0.42704858280938396  0.5828056795564008  1.0000
  C   C19       1.0  0.38670540453978924  0.5249416898919534  0.9753058455062625  1.0000
  C   C20       1.0  0.9420989104331382  0.6067156070679403  0.337863495914547  1.0000
  C   C21       1.0  0.441079579194941  0.9333674173450532  0.5281600545517688  1.0000
  C   C22       1.0  0.4560167075077499  0.1083316513602668  0.5756879415960297  1.0000
  N   N1        1.0  0.7687605264721566  0.5756085104426417  0.7776149010050444  1.0000
  N   N2        1.0  0.8397942790081672  0.3704921225682583  0.6576444965864636  1.0000
  N   N3        1.0  0.30099085917277074  0.5236557746184544  0.0364975506597389  1.0000
  N   N4        1.0  0.9880560990817172  0.661577383184614  0.263228571979738  1.0000
  O   O1        1.0  0.4872528611143352  0.4917052342503964  0.5119320880510614  1.0000
  O   O2        1.0  0.45947743811899494  0.40862940687793536  0.2884714077333185  1.0000
  O   O3        1.0  0.5168498550974404  0.2682112058999238  0.6126043371910155  1.0000
  O   O4        1.0  0.43460563227522897  0.7170897575358808  0.5750948521521051  1.0000
  O   O5        1.0  0.5112198046522636  0.708419794022447  0.3950628514202065  1.0000
  O   O6        1.0  0.5593840641072134  0.4702065106908933  0.723622384441647  1.0000
  O   O7        1.0  0.7196004482667036  0.44194386998701424  0.5003123795089336  1.0000
  O   O8        1.0  0.5868581457698666  0.5430341270061732  0.24482892481130133  1.0000
  O   O9        1.0  0.2408457546611301  0.5396394610144595  0.6158592917009995  1.0000
  O   O10       1.0  0.4260635849482525  0.25700022505834136  0.4883605861137068  1.0000
  O   O11       1.0  0.6546740522122646  0.6146846876374069  0.048299518760749956  1.0000
  O   O12       1.0  0.1241040519230339  0.5417293626817212  0.383255341537996  1.0000
  O   O13       1.0  0.727738101106766  0.588875185035981  0.39951712644553783  1.0000
  O   O14       1.0  0.4263365351708258  0.07308734667977748  0.4102235305306791  1.0000
  O   O15       1.0  0.46846081173348597  0.8877015419080011  0.3488825119111637  1.0000
  O   O16       1.0  0.40595337606612236  0.5510647472536832  0.7605042096989575  1.0000
  O   O17       1.0  0.26125936732965016  0.4314775336487101  0.48192783395325006  1.0000
