data_image0
_chemical_formula_structural       Zn6H32C50O25
_chemical_formula_sum              "Zn6 H32 C50 O25"
_cell_length_a       18.849512984183793
_cell_length_b       18.836270352022808
_cell_length_c       18.956464922965754
_cell_angle_alpha    109.30833097610913
_cell_angle_beta     109.81760764444348
_cell_angle_gamma    109.11625373135608

_space_group_name_H-M_alt    "P 1"
_space_group_IT_number       1

loop_
  _space_group_symop_operation_xyz
  'x, y, z'

loop_
  _atom_site_type_symbol
  _atom_site_label
  _atom_site_symmetry_multiplicity
  _atom_site_fract_x
  _atom_site_fract_y
  _atom_site_fract_z
  _atom_site_occupancy
  Zn  Zn1       1.0  0.4997241818561803  0.44166709007666316  0.441796104007949  1.0000
  Zn  Zn2       1.0  0.500740558823324  0.5590951948127695  0.5582753196585558  1.0000
  Zn  Zn3       1.0  0.9398540705835002  0.4417531652861726  0.9977217515564973  1.0000
  Zn  Zn4       1.0  0.055231846059236006  0.5592272497657405  0.9976966150991303  1.0000
  Zn  Zn5       1.0  0.9414442604473692  0.0004509412438906997  0.4421748669200697  1.0000
  Zn  Zn6       1.0  0.05860145398573744  0.9998763975319919  0.5584635635966607  1.0000
  H   H1        1.0  0.7602057339031633  0.48341342257446474  0.6176998243998996  1.0000
  H   H2        1.0  0.7184787007505733  0.4771025116265192  0.8592725467509439  1.0000
  H   H3        1.0  0.7266890383324593  0.6266663967939154  0.7833016165879415  1.0000
  H   H4        1.0  0.8284837255032754  0.6262227404878615  0.8941936984161671  1.0000
  H   H5        1.0  0.23867883025663159  0.3786210906877443  0.5021867782210381  1.0000
  H   H6        1.0  0.12063680270877343  0.26070708269233484  0.4958847608576705  1.0000
  H   H7        1.0  0.2648867455932091  0.12502797350934  0.5052778545095151  1.0000
  H   H8        1.0  0.37682829861539346  0.23675859519906337  0.4993551258290196  1.0000
  H   H9        1.0  0.37355907654856685  0.6390798326772328  0.37711419637829385  1.0000
  H   H10       1.0  0.26161414052458537  0.638991536086223  0.25814315003217553  1.0000
  H   H11       1.0  0.12053940892410957  0.3606287246152603  0.12321593868057325  1.0000
  H   H12       1.0  0.6841349294426208  0.3872972601977267  0.6012924632171845  1.0000
  H   H13       1.0  0.23869423414507898  0.36079311571566547  0.23623107851941677  1.0000
  H   H14       1.0  0.763616702458279  0.7595138539491586  0.6385787529857295  1.0000
  H   H15       1.0  0.8813244453704668  0.8722409107071767  0.6391151447724894  1.0000
  H   H16       1.0  0.7357582140632173  0.7414762583583182  0.36156008314525684  1.0000
  H   H17       1.0  0.6233615259699474  0.6233791869484759  0.36075660320221903  1.0000
  H   H18       1.0  0.13796948238884704  0.37883004873378207  0.8740766295498049  1.0000
  H   H19       1.0  0.1386167917959041  0.2607122863304808  0.7633855476854876  1.0000
  H   H20       1.0  0.85966307149684  0.1254206166252203  0.6198399913617436  1.0000
  H   H21       1.0  0.8589489425210105  0.2371939620057688  0.7367536471674117  1.0000
  H   H22       1.0  0.001832618432047148  0.7652738695018114  0.1248507328887882  1.0000
  H   H23       1.0  0.795489862530225  0.3921119403039555  0.7095165832289538  1.0000
  H   H24       1.0  0.9965940416920062  0.877003683299037  0.23741762698073626  1.0000
  H   H25       1.0  0.003236595481347034  0.7384797747646913  0.37777592544914285  1.0000
  H   H26       1.0  0.9962528811261251  0.6207108758699247  0.2591556499164938  1.0000
  H   H27       1.0  0.8705875174766433  0.49457046623337675  0.7341649243353104  1.0000
  H   H28       1.0  0.8927756831770495  0.6314620544087575  0.8444670602001451  1.0000
  H   H29       1.0  0.6212358920816924  0.49178394073943094  0.7568182286112162  1.0000
  H   H30       1.0  0.5946688392985634  0.39067904667159314  0.6774228164225279  1.0000
  H   H31       1.0  0.700851798191138  0.3827958910944814  0.7779589287738631  1.0000
  H   H32       1.0  0.8341013966271404  0.6253125686912568  0.7096922508992307  1.0000
  C   C1        1.0  0.3830236188047563  0.38241814693308374  0.5010853948085057  1.0000
  C   C2        1.0  0.8072790877809692  0.5006039880360191  0.8104681314245852  1.0000
  C   C3        1.0  0.8276218676149653  0.5942969550669658  0.833455055261723  1.0000
  C   C4        1.0  0.7169698168625587  0.4503278169177349  0.7974478947028844  1.0000
  C   C5        1.0  0.24295118590227094  0.3220198091860738  0.5011865706227425  1.0000
  C   C6        1.0  0.17791485808415788  0.25705747745831786  0.49849517872478094  1.0000
  C   C7        1.0  0.18632518615923024  0.18642887835537889  0.5006679270566323  1.0000
  C   C8        1.0  0.25899647283983274  0.17995618328087198  0.5029335708403905  1.0000
  C   C9        1.0  0.3214574436429913  0.24232963981961567  0.5005339259875542  1.0000
  C   C10       1.0  0.31440592063504613  0.3143008635734574  0.500987038176234  1.0000
  C   C11       1.0  0.31876825993292357  0.5785440060090535  0.3203844868645476  1.0000
  C   C12       1.0  0.6208635124082418  0.5014660330649575  0.6173980471688195  1.0000
  C   C13       1.0  0.25633187490632986  0.5784723233833304  0.25481760464659686  1.0000
  C   C14       1.0  0.18456967585910888  0.4997809908340328  0.184123195378568  1.0000
  C   C15       1.0  0.17706169800262464  0.4211732269467347  0.1781490584794412  1.0000
  C   C16       1.0  0.24206911173193646  0.4212383919737023  0.24117095836723476  1.0000
  C   C17       1.0  0.3124798486561673  0.4999129007742127  0.3131603192340719  1.0000
  C   C18       1.0  0.7587499757273194  0.7558216864317091  0.5783808773379989  1.0000
  C   C19       1.0  0.823741213914431  0.8183935983912463  0.5786384071796392  1.0000
  C   C20       1.0  0.8148543821390887  0.8135520397304746  0.500404016772663  1.0000
  C   C21       1.0  0.7418809994357645  0.7440974665352938  0.4217436470460568  1.0000
  C   C22       1.0  0.6792169454401317  0.6790702735558014  0.42130055746248024  1.0000
  C   C23       1.0  0.6173666921010224  0.6179676866828743  0.4991691598349136  1.0000
  C   C24       1.0  0.6866731158979249  0.6855638105118799  0.4996093105798138  1.0000
  C   C25       1.0  0.9976051401571908  0.3828519844467024  0.8792989049530037  1.0000
  C   C26       1.0  0.8779353328893579  0.5015528393467149  0.8809762196093516  1.0000
  C   C27       1.0  0.9987028001882122  0.6186152698368589  0.11673952871769436  1.0000
  C   C28       1.0  0.11601338101316114  0.49950883895449744  0.11515984557969715  1.0000
  C   C29       1.0  0.0002563030397481614  0.8824541862335664  0.3826481347376713  1.0000
  C   C30       1.0  0.11794737652091669  0.118128239096805  0.5005650797412217  1.0000
  C   C31       1.0  0.9994376579480291  0.11821443295208667  0.617273049454397  1.0000
  C   C32       1.0  0.882957787290252  0.8821499591967951  0.5006344778592365  1.0000
  C   C33       1.0  0.07743678659468152  0.3222259735238496  0.8190638609315927  1.0000
  C   C34       1.0  0.3807330776769361  0.49977385404955743  0.3820394223588934  1.0000
  C   C35       1.0  0.07779095148865169  0.25713750319874856  0.7572711987259738  1.0000
  C   C36       1.0  0.9991637184927666  0.18657625560936  0.6851410381644385  1.0000
  C   C37       1.0  0.9201548368165575  0.1802434670622404  0.676631153294757  1.0000
  C   C38       1.0  0.9198048814718051  0.24271069014081084  0.7409776178586185  1.0000
  C   C39       1.0  0.9984182026087609  0.3146588873024853  0.8117604919169709  1.0000
  C   C40       1.0  0.00033211581521895106  0.7591869181294584  0.17959266431468277  1.0000
  C   C41       1.0  0.9983229226977102  0.8215472056689705  0.24240024551193784  1.0000
  C   C42       1.0  1.1015636701374617e-05  0.814241896189358  0.31413343100656727  1.0000
  C   C43       1.0  0.0011975799529438133  0.7428365681422521  0.32129514666973347  1.0000
  C   C44       1.0  0.9981368983193165  0.6779544745055118  0.2559462854092728  1.0000
  C   C45       1.0  0.7342195871735981  0.4543699374644135  0.651219457403407  1.0000
  C   C46       1.0  0.9989618339051702  0.6865333214632514  0.18548506040711032  1.0000
  C   C47       1.0  0.806197528665706  0.4576638603829224  0.724738953036642  1.0000
  C   C48       1.0  0.7602934090581357  0.5955701330905823  0.7597399794504369  1.0000
  C   C49       1.0  0.6490484697315181  0.45568759108364515  0.7285973663265607  1.0000
  C   C50       1.0  0.6909177181627086  0.5012009749016713  0.6871993322521277  1.0000
  O   O1        1.0  0.4243762596775085  0.3586537355965689  0.46590778749448003  1.0000
  O   O2        1.0  0.06164828226496156  0.45996167014271794  0.9204741978190614  1.0000
  O   O3        1.0  0.8557710741945568  0.4637239532765918  0.9209527628447916  1.0000
  O   O4        1.0  0.9551389213969443  0.5398763839199886  0.8946756833286997  1.0000
  O   O5        1.0  0.9637382122856193  0.5414724465239259  0.10404443714963203  1.0000
  O   O6        1.0  0.03358632155979534  0.642617256096713  0.07546134316742568  1.0000
  O   O7        1.0  0.039393650774840736  0.4343150504001941  0.07313172491658552  1.0000
  O   O8        1.0  0.13859349571141172  0.5642897579157733  0.10297634098931503  1.0000
  O   O9        1.0  0.9657137104725066  0.9251817125633863  0.3599452493530464  1.0000
  O   O10       1.0  0.03490035006488757  0.893358732677022  0.4589636765292938  1.0000
  O   O11       1.0  0.041110252007563006  0.1070092866056029  0.4662020606875431  1.0000
  O   O12       1.0  0.3954313569063501  0.4594837571556312  0.5362957954750556  1.0000
  O   O13       1.0  0.1411310779169668  0.07553078652085081  0.5348684075912901  1.0000
  O   O14       1.0  0.9339378356566712  0.07603722813965419  0.5407994927388344  1.0000
  O   O15       1.0  0.06501516104424347  0.10674708698267207  0.6403290705323172  1.0000
  O   O16       1.0  0.8597471433177972  0.8938908171413543  0.4355729105480677  1.0000
  O   O17       1.0  0.9598438105529465  0.92449465286424  0.5658464577987276  1.0000
  O   O18       1.0  0.6054596922444232  0.46318414194826113  0.5399831244518437  1.0000
  O   O19       1.0  0.5809361432794019  0.5388139778606273  0.6413900860030352  1.0000
  O   O20       1.0  0.5754450740158034  0.541046729708327  0.4347488400703056  1.0000
  O   O21       1.0  0.6046985231509864  0.6421508606254918  0.5630345641217219  1.0000
  O   O22       1.0  0.3927595454841679  0.43465326210963434  0.35948138776500116  1.0000
  O   O23       1.0  0.4221045000004934  0.5645019343367678  0.4583990136436711  1.0000
  O   O24       1.0  0.932810055799571  0.3591362552919435  0.8911395117112662  1.0000
  O   O25       1.0  0.7994986326760696  0.6469672099606996  0.7280984085464085  1.0000
