data_image0
_chemical_formula_structural       Cu2H26C36N4O12
_chemical_formula_sum              "Cu2 H26 C36 N4 O12"
_cell_length_a       8.725417820167086
_cell_length_b       9.756071650593613
_cell_length_c       10.325212787818447
_cell_angle_alpha    91.01425884099834
_cell_angle_beta     106.3048232291858
_cell_angle_gamma    108.95828433415112

_space_group_name_H-M_alt    "P 1"
_space_group_IT_number       1

loop_
  _space_group_symop_operation_xyz
  'x, y, z'

loop_
  _atom_site_type_symbol
  _atom_site_label
  _atom_site_symmetry_multiplicity
  _atom_site_fract_x
  _atom_site_fract_y
  _atom_site_fract_z
  _atom_site_occupancy
  Cu  Cu1       1.0  0.848798883428614  0.6010387381673183  0.8652739421371435  1.0000
  Cu  Cu2       1.0  0.1512006949977973  0.3989617866043815  0.13472514089835388  1.0000
  H   H1        1.0  0.6513627524567125  0.3521342646062777  0.8037069475098162  1.0000
  H   H2        1.0  0.3486331711258899  0.6478630219215518  0.19628920582424308  1.0000
  H   H3        1.0  0.5423350892167134  0.42358379056435796  0.8770576989454211  1.0000
  H   H4        1.0  0.4576664276787952  0.5764156069774771  0.12294374476083898  1.0000
  H   H5        1.0  0.6565814615038545  0.7728062132313838  0.2950978044387398  1.0000
  H   H6        1.0  0.3434212785894458  0.2271932415150388  0.7049019966053505  1.0000
  H   H7        1.0  0.7854419939347179  0.8611581491911905  0.5442127287361841  1.0000
  H   H8        1.0  0.21456209913363009  0.1388447048860471  0.4557826755369375  1.0000
  H   H9        1.0  0.07065622398768312  0.8535406709460959  0.6653284358958017  1.0000
  H   H10       1.0  0.9293474005705844  0.14646101662739847  0.33466972024603336  1.0000
  H   H11       1.0  0.3656765795452158  0.9911635529082687  0.5956811223961863  1.0000
  H   H12       1.0  0.6343229988812025  0.008836971863431096  0.4043179606393038  1.0000
  H   H13       1.0  0.6569526564068012  0.004054784807642907  0.7232365764415076  1.0000
  H   H14       1.0  0.3430481320786073  0.9959457721235482  0.2767618286406091  1.0000
  H   H15       1.0  0.4784970806227022  0.5287195220861491  0.6517699269027445  1.0000
  H   H16       1.0  0.5214967731027896  0.47127864122051477  0.34823351284848764  1.0000
  H   H17       1.0  0.19292973585421444  0.5366121813684971  0.5249029053533361  1.0000
  H   H18       1.0  0.8070657701627438  0.46338713051119396  0.4750990339934018  1.0000
  H   H19       1.0  0.9969762742383989  0.9167880760506792  0.9234275369752608  1.0000
  H   H20       1.0  0.0030236560596535  0.0832102981436407  0.07657058359152558  1.0000
  H   H21       1.0  0.28754778411885695  0.10359267952276949  0.00014392302881561153  1.0000
  H   H22       1.0  0.7124531210050049  0.8964111944895237  0.9998526926532985  1.0000
  H   H23       1.0  0.47881931696105784  0.7558365869942847  0.9413755357728203  1.0000
  H   H24       1.0  0.5211821079628436  0.2441626352318309  0.0586326608950003  1.0000
  H   H25       1.0  0.18120221183652765  0.5877488998410526  0.8690565140697117  1.0000
  H   H26       1.0  0.8188007224627895  0.41224810378677296  0.1309539010112033  1.0000
  C   C1        1.0  0.7887282420304869  0.6705194701210005  0.12704751866996833  1.0000
  C   C2        1.0  0.2112696331600077  0.3294767142220749  0.8729500306260575  1.0000
  C   C3        1.0  0.13704853592324895  0.6601688033908388  0.27718446574582595  1.0000
  C   C4        1.0  0.8629490136732226  0.33982958161981  0.722812116601318  1.0000
  C   C5        1.0  0.8696927642891906  0.7184086418041176  0.2779176954711176  1.0000
  C   C6        1.0  0.13030803733501983  0.28159194017217004  0.7220797449022098  1.0000
  C   C7        1.0  0.7822439347454944  0.7712088164578078  0.35004888488568736  1.0000
  C   C8        1.0  0.21775902548591825  0.22879724740573687  0.6499483020671801  1.0000
  C   C9        1.0  0.8536801845561895  0.8207495345664386  0.48818520284519445  1.0000
  C   C10       1.0  0.14632756335598168  0.17925655775465543  0.5118131311293652  1.0000
  C   C11       1.0  0.014210681239532662  0.8172506137077421  0.5569501159132669  1.0000
  C   C12       1.0  0.985791420804517  0.18275326741893852  0.44304678652427026  1.0000
  C   C13       1.0  0.10222653194543344  0.7652074013534573  0.48582199671950826  1.0000
  C   C14       1.0  0.8977747119112603  0.23479429703636612  0.5141746212026914  1.0000
  C   C15       1.0  0.033397259178805455  0.7163863511248394  0.3461502445503513  1.0000
  C   C16       1.0  0.9666002772788644  0.2836120088407129  0.653847302505582  1.0000
  C   C17       1.0  0.5971635858416416  0.7655284765231656  0.7035011726968887  1.0000
  C   C18       1.0  0.4028335593279876  0.2344719588844484  0.29650023095414463  1.0000
  C   C19       1.0  0.3987265236693175  0.8932194516288163  0.6127994033215245  1.0000
  C   C20       1.0  0.601274264816091  0.1067811053023675  0.3871990017605923  1.0000
  C   C21       1.0  0.5587666018362115  0.897868435515726  0.6824085213950325  1.0000
  C   C22       1.0  0.44123297659020005  0.10213208925596721  0.31759056164045757  1.0000
  C   C23       1.0  0.45827281781613743  0.632713253499894  0.6404702921418418  1.0000
  C   C24       1.0  0.541725511134878  0.3672871639770038  0.359532362973404  1.0000
  C   C25       1.0  0.300783593502878  0.6351613544726578  0.5719304375745509  1.0000
  C   C26       1.0  0.6992131357118794  0.3648380146116281  0.42806985911001744  1.0000
  C   C27       1.0  0.10945776220419393  0.88798681053445  0.9312762968853007  1.0000
  C   C28       1.0  0.8905458229376675  0.11201480190374014  0.06872475338291648  1.0000
  C   C29       1.0  0.2721250839957961  0.9908398924441358  0.9720362814994273  1.0000
  C   C30       1.0  0.727876848854592  0.009160571421027401  0.02796626917329092  1.0000
  C   C31       1.0  0.41224894759762504  0.9474597490271391  0.9774073136115502  1.0000
  C   C32       1.0  0.5877545587114312  0.05254171314042821  0.022599524909438215  1.0000
  C   C33       1.0  0.3782730298068272  0.7996402535007903  0.9383989932835347  1.0000
  C   C34       1.0  0.6217288767659638  0.20036016027416537  0.06160548680677633  1.0000
  C   C35       1.0  0.2121396153237143  0.70312821961398  0.898952445909863  1.0000
  C   C36       1.0  0.7878614462005158  0.2968700364692154  0.10105078495631391  1.0000
  N   N1        1.0  0.2690808509956923  0.7639055068615903  0.558310338939215  1.0000
  N   N2        1.0  0.7309187274307262  0.23609501791010254  0.44168874409627523  1.0000
  N   N3        1.0  0.07989764177673216  0.7462796567181724  0.895505285375698  1.0000
  N   N4        1.0  0.9201050457613673  0.253719697847842  0.10449837450357079  1.0000
  O   O1        1.0  0.893313620248648  0.6631522380242958  0.06356697282389233  1.0000
  O   O2        1.0  0.10668291314932789  0.3368526738537767  0.9364296028029951  1.0000
  O   O3        1.0  0.6322267103884086  0.644788114209426  0.07306616030810892  1.0000
  O   O4        1.0  0.3677702671983242  0.35520581226148107  0.9269339985989616  1.0000
  O   O5        1.0  0.2625651891840661  0.7498504126464027  0.2514652263346662  1.0000
  O   O6        1.0  0.7374319313187245  0.2501468809958142  0.748531213754809  1.0000
  O   O7        1.0  0.09096259900928064  0.5203264762869324  0.2615254661009274  1.0000
  O   O8        1.0  0.9090333245733146  0.479670810240897  0.7384706872331248  1.0000
  O   O9        1.0  0.7449350822114694  0.7696097767418238  0.7730428977470961  1.0000
  O   O10       1.0  0.25506123104840833  0.23038852601913357  0.226956291971014  1.0000
  O   O11       1.0  0.6287724764434087  0.4436450507615818  0.8269935080691794  1.0000
  O   O12       1.0  0.3712262700732509  0.5563533413634545  0.1730033610333876  1.0000
