data_image0
_chemical_formula_structural       MnH60C66N8O2
_chemical_formula_sum              "Mn1 H60 C66 N8 O2"
_cell_length_a       11.570685002050878
_cell_length_b       12.442894156466341
_cell_length_c       14.023657282166662
_cell_angle_alpha    112.37849244690973
_cell_angle_beta     105.74306882466271
_cell_angle_gamma    91.96605872436629

_space_group_name_H-M_alt    "P 1"
_space_group_IT_number       1

loop_
  _space_group_symop_operation_xyz
  'x, y, z'

loop_
  _atom_site_type_symbol
  _atom_site_label
  _atom_site_symmetry_multiplicity
  _atom_site_fract_x
  _atom_site_fract_y
  _atom_site_fract_z
  _atom_site_occupancy
  Mn  Mn1       1.0  0.9972019819669101  0.003640684944876708  0.9991054486162767  1.0000
  H   H1        1.0  0.3386947228033251  0.1317073610888144  0.8640237944681317  1.0000
  H   H2        1.0  0.6615978349818691  0.8673784491495979  0.13580638499558254  1.0000
  H   H3        1.0  0.1731570802739029  0.9696880429374346  0.682439919550383  1.0000
  H   H4        1.0  0.826960332603001  0.02973210569967219  0.3174117447003582  1.0000
  H   H5        1.0  0.7530826002746096  0.7210963722541236  0.5975239387737474  1.0000
  H   H6        1.0  0.2469696027081483  0.2778628791316464  0.402205892155834  1.0000
  H   H7        1.0  0.6178356922018083  0.691000809251136  0.7194499825099853  1.0000
  H   H8        1.0  0.38267520502731145  0.3076365065449664  0.2805360739294116  1.0000
  H   H9        1.0  0.0175663319170596  0.6126836562662134  0.40550721076581897  1.0000
  H   H10       1.0  0.9821597082490499  0.38749044401632193  0.5946016420563254  1.0000
  H   H11       1.0  0.8304858009198454  0.8999081379040631  0.3888142064239162  1.0000
  H   H12       1.0  0.1687619933266831  0.09965571188896402  0.6101971664922345  1.0000
  H   H13       1.0  0.05510974691979696  0.6955462925704409  0.699285321750416  1.0000
  H   H14       1.0  0.9453058463618405  0.30630368374301037  0.30136962370612946  1.0000
  H   H15       1.0  0.045227914566687795  0.5751323454646666  0.575805803594406  1.0000
  H   H16       1.0  0.953764345903025  0.42569270733218184  0.4250787722693801  1.0000
  H   H17       1.0  0.16915310358316293  0.690970055240676  0.6365291284001628  1.0000
  H   H18       1.0  0.8303822268398734  0.30912652038161775  0.3628719022400873  1.0000
  H   H19       1.0  0.9013250776247904  0.6116302186956446  0.22640895950814874  1.0000
  H   H20       1.0  0.0981785954398404  0.3877825430915323  0.7733186546924031  1.0000
  H   H21       1.0  0.8225908425341474  0.7308254638067877  0.221479067001539  1.0000
  H   H22       1.0  0.17714551308365864  0.26862883869377907  0.7779002235345301  1.0000
  H   H23       1.0  0.9821311466862994  0.7466610281908928  0.24925461492320977  1.0000
  H   H24       1.0  0.017625894741058787  0.2525782785836909  0.7502926822514625  1.0000
  H   H25       1.0  0.8470131867901358  0.06831796134911632  0.5580333195173424  1.0000
  H   H26       1.0  0.15193861900716138  0.9315488830483432  0.4405584053982847  1.0000
  H   H27       1.0  0.7480365110089622  0.987682974974554  0.5927358198534094  1.0000
  H   H28       1.0  0.2513670086751887  0.012748846036288298  0.406702857088014  1.0000
  H   H29       1.0  0.892995344805513  0.05750220922153199  0.6851252495769272  1.0000
  H   H30       1.0  0.10668614847872243  0.9430849416323139  0.3137683881097643  1.0000
  H   H31       1.0  0.5590293182356874  0.45797112065216067  0.07162655197238611  1.0000
  H   H32       1.0  0.44181006793337474  0.5412393505171593  0.9281426251084213  1.0000
  H   H33       1.0  0.6888238776109432  0.17615660254946866  0.15541762819570684  1.0000
  H   H34       1.0  0.3102328630492793  0.8223088349940751  0.8440594351603963  1.0000
  H   H35       1.0  0.2304920488652371  0.3523444500744048  0.017752408337592805  1.0000
  H   H36       1.0  0.7700216484669299  0.6486342244311203  0.9825579424550243  1.0000
  H   H37       1.0  0.3165283143521478  0.3921383442814133  0.9463274379745882  1.0000
  H   H38       1.0  0.6842001300229441  0.6078073514024069  0.05356478898146826  1.0000
  H   H39       1.0  0.3335667028227007  0.4864208391338066  0.08215745537997772  1.0000
  H   H40       1.0  0.6675897595495143  0.514089895818408  0.9176766336141142  1.0000
  H   H41       1.0  0.7716592036271804  0.42113307530954097  0.08535276456814232  1.0000
  H   H42       1.0  0.2287780479889321  0.5758370755491667  0.9130768879264294  1.0000
  H   H43       1.0  0.824447958307829  0.3052422555387793  0.12162173232184165  1.0000
  H   H44       1.0  0.17546912228957012  0.6923873425327969  0.8783154657018457  1.0000
  H   H45       1.0  0.8075209632211439  0.438166890657996  0.22198294215347392  1.0000
  H   H46       1.0  0.19257307402064328  0.5603542092638065  0.7768508697560962  1.0000
  H   H47       1.0  0.4630399497512273  0.0833742096573076  0.2117238321920922  1.0000
  H   H48       1.0  0.5367256288562955  0.9161322605945795  0.7882540223340938  1.0000
  H   H49       1.0  0.5503358637055769  0.0141999122096195  0.1257402753863488  1.0000
  H   H50       1.0  0.4474847293774715  0.9842568607656118  0.8727336537634683  1.0000
  H   H51       1.0  0.39034278824982493  0.0037023755922475994  0.07175032947197478  1.0000
  H   H52       1.0  0.6073627895358484  0.9964963574339902  0.9285348742525058  1.0000
  H   H53       1.0  0.23538316772634  0.5687803311031275  0.3503321379499695  1.0000
  H   H54       1.0  0.7656007112454617  0.43174623315896815  0.6517337755736533  1.0000
  H   H55       1.0  0.09085186830147049  0.4765558910637182  0.27383938715708916  1.0000
  H   H56       1.0  0.9104193663781289  0.5235801707365865  0.7278548799799083  1.0000
  H   H57       1.0  0.22056918828914723  0.44160177161351294  0.22817622596135576  1.0000
  H   H58       1.0  0.7809020025539227  0.5593751898489784  0.7736314538994549  1.0000
  H   H59       1.0  0.035294455490323194  0.3655735047857362  0.09536593701942306  1.0000
  H   H60       1.0  0.9664142256463677  0.6354307431359131  0.9066865800471149  1.0000
  C   C1        1.0  0.20826670935042557  0.09959139505075136  0.9462584023096241  1.0000
  C   C2        1.0  0.7909775282989457  0.9012233995841471  0.053397602490107915  1.0000
  C   C3        1.0  0.2534711750864602  0.0852024712532256  0.8565742436421361  1.0000
  C   C4        1.0  0.7463288064493127  0.9146637583458384  0.14320968237023363  1.0000
  C   C5        1.0  0.1700549327358019  0.0042471417594284995  0.7651837511183004  1.0000
  C   C6        1.0  0.8296475076412478  0.9957530791125889  0.23455950973173864  1.0000
  C   C7        1.0  0.07285169731919437  0.9682996589609016  0.797741513531349  1.0000
  C   C8        1.0  0.9261595221926909  0.032673489808694  0.20177900067876917  1.0000
  C   C9        1.0  0.9712326435588283  0.8842882796685317  0.726354750248376  1.0000
  C   C10       1.0  0.0277860402508381  0.11667070836712408  0.2731790607745808  1.0000
  C   C11       1.0  0.8810529146497786  0.8428293359097625  0.7587196446967327  1.0000
  C   C12       1.0  0.11790300803562562  0.15817058641438564  0.24079990694683318  1.0000
  C   C13       1.0  0.7733787525093875  0.7605710514956385  0.6850078555445335  1.0000
  C   C14       1.0  0.2262822048000785  0.23923418532066165  0.3146797675134678  1.0000
  C   C15       1.0  0.7054028221006591  0.7453977687762856  0.7462721846911505  1.0000
  C   C16       1.0  0.2944940410891093  0.2542267890206417  0.2535177144367253  1.0000
  C   C17       1.0  0.7709078788202391  0.8177192832333161  0.8580501164674031  1.0000
  C   C18       1.0  0.22832970802282662  0.1830023590300058  0.141612539714167  1.0000
  C   C19       1.0  0.2715824972203862  0.171435386348243  0.054643079041476  1.0000
  C   C20       1.0  0.7277447636064664  0.8291188712164155  0.9450459458991602  1.0000
  C   C21       1.0  0.9560726726545424  0.838434585110001  0.607813031381383  1.0000
  C   C22       1.0  0.0432308985218128  0.1620585295631756  0.3917519960842455  1.0000
  C   C23       1.0  0.0012256895453006328  0.735008786745652  0.5568298809916  1.0000
  C   C24       1.0  0.9982801136779571  0.2654804203772655  0.4430617168975742  1.0000
  C   C25       1.0  0.9829358479326734  0.693017321158635  0.4450713926500712  1.0000
  C   C26       1.0  0.016629279674916102  0.3071163575744293  0.5547970731655241  1.0000
  C   C27       1.0  0.9218113387677604  0.7510673861920624  0.38308660011725243  1.0000
  C   C28       1.0  0.07763438576133548  0.2487090930113708  0.6164639445064921  1.0000
  C   C29       1.0  0.8784836914894143  0.8536372340156506  0.43598499607721664  1.0000
  C   C30       1.0  0.12079674707855051  0.14613359934459416  0.5632502533017032  1.0000
  C   C31       1.0  0.8945408161052201  0.8990391993421979  0.5473089025637705  1.0000
  C   C32       1.0  0.1046944421515903  0.10109648352680979  0.4519428382425943  1.0000
  C   C33       1.0  0.07054742062499025  0.6709215059094047  0.6204554340691999  1.0000
  C   C34       1.0  0.9290791486076629  0.329915459826033  0.3797918752938613  1.0000
  C   C35       1.0  0.9056043174098178  0.7073567339869055  0.2639138648979439  1.0000
  C   C36       1.0  0.0940151066323764  0.2920909278554831  0.7356431097420639  1.0000
  C   C37       1.0  0.843664610239003  0.008922768230533505  0.5987677407552568  1.0000
  C   C38       1.0  0.1556142018980751  0.9913298679314905  0.4002330534110499  1.0000
  C   C39       1.0  0.3980083137837767  0.2287167277373214  0.07915441912378178  1.0000
  C   C40       1.0  0.6016284265521392  0.7712124354822335  0.9206656005789426  1.0000
  C   C41       1.0  0.4208669112892024  0.33206410736997327  0.0640495619783295  1.0000
  C   C42       1.0  0.5793585005451689  0.6678653828061768  0.9359358927522408  1.0000
  C   C43       1.0  0.5413791297827261  0.37808958667201853  0.08389369164785167  1.0000
  C   C44       1.0  0.45899314594534957  0.6212151248512112  0.9158879295056364  1.0000
  C   C45       1.0  0.6389601232624572  0.3239262132022701  0.11712161642708442  1.0000
  C   C46       1.0  0.3609518395689761  0.6746932470181546  0.8823186680836057  1.0000
  C   C47       1.0  0.6140363445140623  0.22126981054686462  0.1316216192399153  1.0000
  C   C48       1.0  0.38532574514270823  0.7775253520851351  0.8678780895810546  1.0000
  C   C49       1.0  0.49532204330973423  0.17289995957904128  0.11391393464713663  1.0000
  C   C50       1.0  0.5038666995275206  0.82646391913363  0.8857494201339832  1.0000
  C   C51       1.0  0.31985693367140305  0.39345759358954513  0.025947292078264135  1.0000
  C   C52       1.0  0.6808102264330033  0.6069317838371545  0.9740940741960954  1.0000
  C   C53       1.0  0.7673813983220087  0.374629449394213  0.13723363899138966  1.0000
  C   C54       1.0  0.23270688953991234  0.62325609940261  0.86186223784442  1.0000
  C   C55       1.0  0.47336886921899435  0.06256363560765982  0.1310720955326019  1.0000
  C   C56       1.0  0.5252117315188015  0.9368176208078507  0.8684988086824033  1.0000
  C   C57       1.0  0.11246117447558389  0.8047016047726742  0.06457960440059192  1.0000
  C   C58       1.0  0.8912686260933286  0.19506252294289791  0.9364342347364244  1.0000
  C   C59       1.0  0.057796690791207084  0.6198590994536701  0.054935000520401865  1.0000
  C   C60       1.0  0.9438843172030148  0.3813404674090676  0.9472473394574054  1.0000
  C   C61       1.0  0.07705985870448731  0.5422768260227288  0.10958819716054083  1.0000
  C   C62       1.0  0.9242858903992542  0.4587117405631531  0.8925775474343709  1.0000
  C   C63       1.0  0.020804589861128882  0.4262938342310106  0.055711341893839944  1.0000
  C   C64       1.0  0.9808291461101959  0.5747068719490968  0.9463493369583772  1.0000
  C   C65       1.0  0.1755149915979075  0.5140411085249426  0.2686512664373026  1.0000
  C   C66       1.0  0.8256585434856522  0.48662564863133184  0.7332974242313101  1.0000
  N   N1        1.0  0.09751596386853831  0.0281615654459486  0.9082743908276427  1.0000
  N   N2        1.0  0.9012137554909573  0.9733634784364537  0.09118662139101015  1.0000
  N   N3        1.0  0.8785991935390316  0.8750274839319445  0.8638110540406316  1.0000
  N   N4        1.0  0.12011397955893698  0.12657918870359447  0.1356821819347118  1.0000
  N   N5        1.0  0.12128224884470733  0.8747217310324088  0.026509730863786187  1.0000
  N   N6        1.0  0.8854571626609486  0.12327867545709381  0.9735429302038555  1.0000
  N   N7        1.0  0.11473417673350636  0.7334221696802741  0.11020007681873514  1.0000
  N   N8        1.0  0.887221198702733  0.2673434051733565  0.8924860755390541  1.0000
  O   O1        1.0  0.1526858289144002  0.5902618735444563  0.21328905721824035  1.0000
  O   O2        1.0  0.848276465748981  0.41069494469237355  0.789017871257343  1.0000
