data_image0
_chemical_formula_structural       NiH18C18N4Cl4O6
_chemical_formula_sum              "Ni1 H18 C18 N4 Cl4 O6"
_cell_length_a       8.769626340169633
_cell_length_b       8.730656056803173
_cell_length_c       9.701797295646125
_cell_angle_alpha    73.51155164677515
_cell_angle_beta     88.87148252829479
_cell_angle_gamma    80.25291232999288

_space_group_name_H-M_alt    "P 1"
_space_group_IT_number       1

loop_
  _space_group_symop_operation_xyz
  'x, y, z'

loop_
  _atom_site_type_symbol
  _atom_site_label
  _atom_site_symmetry_multiplicity
  _atom_site_fract_x
  _atom_site_fract_y
  _atom_site_fract_z
  _atom_site_occupancy
  Ni  Ni1       1.0  7.279956385295852e-06  0.49998792790662355  0.500007564124715  1.0000
  H   H1        1.0  0.16765867314613564  0.23564246029107494  0.43375891629080593  1.0000
  H   H2        1.0  0.83233960012263  0.764359643199576  0.5662280486147324  1.0000
  H   H3        1.0  0.1452742133254006  0.3850966765386731  0.2987627998966715  1.0000
  H   H4        1.0  0.8547172181128245  0.6149166918825841  0.7012344637661414  1.0000
  H   H5        1.0  0.3224562183672008  0.3260520671874545  0.6311048413445022  1.0000
  H   H6        1.0  0.6775534390089533  0.6739550441829606  0.3689053473097558  1.0000
  H   H7        1.0  0.532900730381904  0.502198121724085  0.6998385696514475  1.0000
  H   H8        1.0  0.4671137605695039  0.4978137854006945  0.3001640290974308  1.0000
  H   H9        1.0  0.11341854784047463  0.8185628567226216  0.5404905409051182  1.0000
  H   H10       1.0  0.886565808136595  0.1814462136775106  0.45949769369303073  1.0000
  H   H11       1.0  0.5097362626361815  0.786375002300936  0.7139275684586226  1.0000
  H   H12       1.0  0.49026054806221014  0.2136345268680415  0.28606144176607273  1.0000
  H   H13       1.0  0.3231125812757226  0.9129019497619028  0.6835033358976048  1.0000
  H   H14       1.0  0.6768837612710285  0.08709797400690178  0.3164925141415296  1.0000
  H   H15       1.0  0.3590568062731307  0.9810257751810525  0.4190560455581931  1.0000
  H   H16       1.0  0.6409249695757353  0.018990642988903492  0.5809332363384101  1.0000
  H   H17       1.0  0.5404820903920539  0.8485881852312076  0.4476526401503236  1.0000
  H   H18       1.0  0.45950663995172647  0.15142744950254183  0.5523419488972934  1.0000
  C   C1        1.0  0.3108763329295385  0.4537469629750391  0.6223010261643367  1.0000
  C   C2        1.0  0.689124118677512  0.5462608158370513  0.3777028795576172  1.0000
  C   C3        1.0  0.41454786495415163  0.5385976448836871  0.6581243090179711  1.0000
  C   C4        1.0  0.5854539304298996  0.4614096543224023  0.3418663110829598  1.0000
  C   C5        1.0  0.19710412767506819  0.707434334305326  0.5735384608303704  1.0000
  C   C6        1.0  0.80291059127876  0.2925355326789117  0.42646052544678525  1.0000
  C   C7        1.0  0.4096849702564144  0.8352071377174326  0.6389511460704753  1.0000
  C   C8        1.0  0.5903103595402257  0.16479782942267457  0.3610484481217213  1.0000
  C   C9        1.0  0.460191025773895  0.9313874858386271  0.4931206335530901  1.0000
  C   C10       1.0  0.5397999156703933  0.0686229843199939  0.5068661080615513  1.0000
  C   C11       1.0  0.9590682893224595  0.8002714826557735  0.29199717070113707  1.0000
  C   C12       1.0  0.04092708786328103  0.19972735125210758  0.7080031219047954  1.0000
  C   C13       1.0  0.9807691876397159  0.901116789130235  0.14016344395178493  1.0000
  C   C14       1.0  0.019240242876037403  0.09887410573820432  0.8598420398091663  1.0000
  C   C15       1.0  0.12814663159355175  0.9298201797310597  0.09321723349929562  1.0000
  C   C16       1.0  0.8718588911755063  0.07017850269074437  0.9068015629210037  1.0000
  C   C17       1.0  0.14723949052785912  0.029223552222703092  0.9543578762696825  1.0000
  C   C18       1.0  0.8527674133777767  0.9707511296166302  0.045644987597029285  1.0000
  N   N1        1.0  0.17595109189461075  0.560557366642911  0.5688347379220033  1.0000
  N   N2        1.0  0.824055759579366  0.43944688976019103  0.4311680339432939  1.0000
  N   N3        1.0  0.3408362218236079  0.6976243084613074  0.6272700852200543  1.0000
  N   N4        1.0  0.6591438656809175  0.3023893326498452  0.37271277790829777  1.0000
  Cl  Cl1       1.0  0.28656450968698977  0.8447184675500525  0.20764228699913181  1.0000
  Cl  Cl2       1.0  0.7134418151302813  0.1552589151760131  0.7923670401146765  1.0000
  Cl  Cl3       1.0  0.32831475227885687  0.0683037158442517  0.9016475525305196  1.0000
  Cl  Cl4       1.0  0.6716940345144878  0.931690039200788  0.09836847551800788  1.0000
  O   O1        1.0  0.011490703157115005  0.6475763708016445  0.31424048477213523  1.0000
  O   O2        1.0  0.9885146824871927  0.3524172699852883  0.6857756099946499  1.0000
  O   O3        1.0  0.8956059945991796  0.8687181579796858  0.38030407188814047  1.0000
  O   O4        1.0  0.1043952557967884  0.1312502798421775  0.6197016421096464  1.0000
  O   O5        1.0  0.21071713272501583  0.2800588907456287  0.33883336887648596  1.0000
  O   O6        1.0  0.7892791150435343  0.7199532994876208  0.6611610843351768  1.0000
