data_image0
_chemical_formula_structural       Zn4H32C52N4O16
_chemical_formula_sum              "Zn4 H32 C52 N4 O16"
_cell_length_a       11.011127171489031
_cell_length_b       11.006790635688485
_cell_length_c       14.033969029629148
_cell_angle_alpha    89.21273298182462
_cell_angle_beta     89.8949696499482
_cell_angle_gamma    77.6517398070331

_space_group_name_H-M_alt    "P 1"
_space_group_IT_number       1

loop_
  _space_group_symop_operation_xyz
  'x, y, z'

loop_
  _atom_site_type_symbol
  _atom_site_label
  _atom_site_symmetry_multiplicity
  _atom_site_fract_x
  _atom_site_fract_y
  _atom_site_fract_z
  _atom_site_occupancy
  Zn  Zn1       1.0  0.730099001843243  0.8354857102647416  0.7998038945017356  1.0000
  Zn  Zn2       1.0  0.7268282823689701  0.8414431226707395  0.5946834677707928  1.0000
  Zn  Zn3       1.0  0.26989929151932296  0.16451346126137173  0.20019467229796822  1.0000
  Zn  Zn4       1.0  0.2731734972123121  0.15855227367173091  0.40531725121954315  1.0000
  H   H1        1.0  0.6431013118233578  0.2567594259369343  0.560054234187966  1.0000
  H   H2        1.0  0.6646933269348876  0.4784998610636038  0.5626632628516433  1.0000
  H   H3        1.0  0.8151707202308243  0.423271174787189  0.8455195583340185  1.0000
  H   H4        1.0  0.7956303907542406  0.19940985602746517  0.8425866639108648  1.0000
  H   H5        1.0  0.3297265589550307  0.8896120367977576  0.5460244726993437  1.0000
  H   H6        1.0  0.10644755870566765  0.8783929440381119  0.5441527539176364  1.0000
  H   H7        1.0  0.12337750417037797  0.7903107319257004  0.8435028343030383  1.0000
  H   H8        1.0  0.35026050602881037  0.797645353104848  0.8450878985976545  1.0000
  H   H9        1.0  0.9237614436730793  0.7976386396620117  0.4472117363840766  1.0000
  H   H10       1.0  0.9393952963035233  0.7934914898688916  0.2692244604614586  1.0000
  H   H11       1.0  0.5373510057883593  0.8675152754522276  0.2605192628396438  1.0000
  H   H12       1.0  0.5389434484596477  0.8676482034772733  0.4384962620048043  1.0000
  H   H13       1.0  0.8902818852533726  0.6710087231754757  0.1290675057411192  1.0000
  H   H14       1.0  0.8785885444043515  0.6802230319528493  0.9501005604687479  1.0000
  H   H15       1.0  0.5996932240985513  0.9975945465001886  0.9530750445939589  1.0000
  H   H16       1.0  0.5918728713925672  0.9982605828999952  0.1320552128547945  1.0000
  H   H17       1.0  0.3568960374361509  0.7432490375988865  0.4399413939793675  1.0000
  H   H18       1.0  0.3353130249699063  0.5215047147120658  0.4373394685963491  1.0000
  H   H19       1.0  0.18483655415746367  0.5767148501446616  0.15448335610093983  1.0000
  H   H20       1.0  0.20436314743616882  0.8005810660529425  0.1574098822009447  1.0000
  H   H21       1.0  0.6702722910164808  0.11039360781837361  0.453975449335168  1.0000
  H   H22       1.0  0.893548916980265  0.12162015677999699  0.4558471084024163  1.0000
  H   H23       1.0  0.8766215218714989  0.20969398481213378  0.15649638341106004  1.0000
  H   H24       1.0  0.6497392378510866  0.20235564790139904  0.15490992693609232  1.0000
  H   H25       1.0  0.0762325157255432  0.20235967073153918  0.5527911445868483  1.0000
  H   H26       1.0  0.060601214735790186  0.20650770160608545  0.7307783938969762  1.0000
  H   H27       1.0  0.46264565823974363  0.13248762810749076  0.7394807022678337  1.0000
  H   H28       1.0  0.46105157139269437  0.1323491711727414  0.5615030583156937  1.0000
  H   H29       1.0  0.10971315090228727  0.32898401362069774  0.8709332869592714  1.0000
  H   H30       1.0  0.12141048713105819  0.3197724175140807  0.0498987518025515  1.0000
  H   H31       1.0  0.4003123652670765  0.002409126135987101  0.046924138458450705  1.0000
  H   H32       1.0  0.4081310778288127  0.0017421923527365  0.8679439906826831  1.0000
  C   C1        1.0  0.7072247696293485  0.08133980320276632  0.6998812060802777  1.0000
  C   C2        1.0  0.7183296583215719  0.2147521591740116  0.701225337770147  1.0000
  C   C3        1.0  0.6814698991488725  0.2932224288051302  0.6222321004788256  1.0000
  C   C4        1.0  0.6935294076218452  0.416480034927382  0.6234545337878004  1.0000
  C   C5        1.0  0.7420543558174513  0.4633437638791308  0.7039909186224379  1.0000
  C   C6        1.0  0.7789482494095166  0.3849865697977536  0.7830903649702208  1.0000
  C   C7        1.0  0.767488237807022  0.26152401081015614  0.78172978221901  1.0000
  C   C8        1.0  0.7493849415827255  0.5977662444095843  0.7062935387773236  1.0000
  C   C9        1.0  0.48819167257635593  0.8500267907121924  0.6955809792162313  1.0000
  C   C10       1.0  0.3536797002694596  0.8438906597673468  0.6956873901792661  1.0000
  C   C11       1.0  0.2850747011444242  0.866118970149614  0.6108790090068086  1.0000
  C   C12       1.0  0.16022761213000072  0.8603551429958646  0.6098289186295176  1.0000
  C   C13       1.0  0.10205763640447425  0.8327137469008082  0.6938392169869871  1.0000
  C   C14       1.0  0.17053394772665328  0.8109189740503313  0.778864247391283  1.0000
  C   C15       1.0  0.2956479748122689  0.8159342010944928  0.7798025608436276  1.0000
  C   C16       1.0  0.9669980455776609  0.8286110642178317  0.6937076827652362  1.0000
  C   C17       1.0  0.8410944689516382  0.811159130580592  0.4023838517423357  1.0000
  C   C18       1.0  0.8486100300384293  0.8085516044483758  0.3035955505691135  1.0000
  C   C19       1.0  0.7385612840755725  0.8302577404797021  0.2500700177622477  1.0000
  C   C20       1.0  0.6251667980770393  0.8510047142042295  0.2990807115780285  1.0000
  C   C21       1.0  0.6252851026267409  0.8507933761512518  0.3979932906082624  1.0000
  C   C22       1.0  0.7402864451241695  0.8332249048700859  0.1450283311068929  1.0000
  C   C23       1.0  0.8238448311251715  0.744700685660021  0.0928402640898653  1.0000
  C   C24       1.0  0.818362080397449  0.749128769832275  0.9938837519538168  1.0000
  C   C25       1.0  0.659974981506899  0.9255605572873549  0.9955429516864457  1.0000
  C   C26       1.0  0.6567227764207143  0.9256889194767556  0.0944526994891532  1.0000
  C   C27       1.0  0.292775719201657  0.9186574736351151  0.3001180774757088  1.0000
  C   C28       1.0  0.28166991223471866  0.7852451360750906  0.2987732393626104  1.0000
  C   C29       1.0  0.3185312952483556  0.7067804016812574  0.37776498378896417  1.0000
  C   C30       1.0  0.30647748605059627  0.5835217529949973  0.3765475098002469  1.0000
  C   C31       1.0  0.25795674191172674  0.5366505331280322  0.2960118849758828  1.0000
  C   C32       1.0  0.22105573241848478  0.6150069297472955  0.216911783327042  1.0000
  C   C33       1.0  0.23251005830231003  0.7384705270805084  0.2182688318592909  1.0000
  C   C34       1.0  0.25062747804132357  0.40223079519164184  0.2937142157299988  1.0000
  C   C35       1.0  0.5118078708668462  0.14997051297369524  0.3044147477139277  1.0000
  C   C36       1.0  0.6463189560436219  0.15611128541922883  0.3043111458023162  1.0000
  C   C37       1.0  0.7149237831298051  0.1338885344415033  0.38912089656723486  1.0000
  C   C38       1.0  0.8397685073836884  0.13965518205258584  0.3901716870593077  1.0000
  C   C39       1.0  0.897939015351824  0.16729842603900383  0.306159941012652  1.0000
  C   C40       1.0  0.8294645365475759  0.18908853054078636  0.22113565818276734  1.0000
  C   C41       1.0  0.7043526778173045  0.18407141724518544  0.22019521128410705  1.0000
  C   C42       1.0  0.03299859536885209  0.17139647930492433  0.3062900974117042  1.0000
  C   C43       1.0  0.15890057123552734  0.1888382377418339  0.5976176062301164  1.0000
  C   C44       1.0  0.1513864769693782  0.1914429555003423  0.696406638517267  1.0000
  C   C45       1.0  0.26143483690013625  0.1697386857715983  0.7499300172117245  1.0000
  C   C46       1.0  0.37483006235624566  0.14899725514960246  0.7009206868609894  1.0000
  C   C47       1.0  0.37470793171889477  0.1492049547627161  0.602008171388789  1.0000
  C   C48       1.0  0.2597133082807659  0.16677146039151589  0.8549702542561024  1.0000
  C   C49       1.0  0.1761538618260374  0.2552966153451167  0.9071618819235567  1.0000
  C   C50       1.0  0.18163658544067113  0.25086853960964833  0.0061155438570069  1.0000
  C   C51       1.0  0.3400300552812893  0.07444127378505531  0.0044555414031962  1.0000
  C   C52       1.0  0.3432815520544921  0.07431199158259011  0.9055479456100883  1.0000
  N   N1        1.0  0.7314390835898835  0.8321744613634009  0.4487950141529069  1.0000
  N   N2        1.0  0.7376520114223337  0.8379191055493466  0.9460208774246226  1.0000
  N   N3        1.0  0.2685552279494772  0.16782199327355585  0.551206458177198  1.0000
  N   N4        1.0  0.26235104938417914  0.16207904604237203  0.053980517170821  1.0000
  O   O1        1.0  0.6980546940294942  0.033266001709208105  0.6188346035339904  1.0000
  O   O2        1.0  0.7080571687739762  0.0260305410308774  0.7804715640834415  1.0000
  O   O3        1.0  0.7488285351937023  0.653858947095664  0.6264507463458102  1.0000
  O   O4        1.0  0.7529955130353371  0.6456117203233945  0.7882694421190949  1.0000
  O   O5        1.0  0.5397690194783564  0.8532092499023634  0.6146320854080898  1.0000
  O   O6        1.0  0.5409430924604164  0.8521752750868857  0.7764313092097199  1.0000
  O   O7        1.0  0.9126293997713474  0.8359988396435513  0.6130519337093078  1.0000
  O   O8        1.0  0.9164492280996869  0.819633026297794  0.7743865483595372  1.0000
  O   O9        1.0  0.30194252806956706  0.9667294761433782  0.38116614609344174  1.0000
  O   O10       1.0  0.2919398812862254  0.9739704962262651  0.21953055513645844  1.0000
  O   O11       1.0  0.25119354519394926  0.34613977315829914  0.3735569242994288  1.0000
  O   O12       1.0  0.247003620174155  0.3543836975055968  0.2117405584119325  1.0000
  O   O13       1.0  0.4602325149650781  0.14677783024867347  0.3853615944027098  1.0000
  O   O14       1.0  0.4590578987533575  0.14782849171459136  0.2235636291758922  1.0000
  O   O15       1.0  0.0873717823540829  0.16401326022293014  0.3869443434506437  1.0000
  O   O16       1.0  0.08354719482208138  0.1803661925967362  0.22560704284045843  1.0000
