data_image0
_chemical_formula_structural       K2H14C18N8O4
_chemical_formula_sum              "K2 H14 C18 N8 O4"
_cell_length_a       4.166410748145825
_cell_length_b       7.857267961789339
_cell_length_c       15.095549962417268
_cell_angle_alpha    88.1778795029717
_cell_angle_beta     84.77057579688716
_cell_angle_gamma    87.34125832292803

_space_group_name_H-M_alt    "P 1"
_space_group_IT_number       1

loop_
  _space_group_symop_operation_xyz
  'x, y, z'

loop_
  _atom_site_type_symbol
  _atom_site_label
  _atom_site_symmetry_multiplicity
  _atom_site_fract_x
  _atom_site_fract_y
  _atom_site_fract_z
  _atom_site_occupancy
  K   K1        1.0  0.9122929877682463  0.9757346587935064  0.6386324924299204  1.0000
  K   K2        1.0  0.08770101547154499  0.02428210838712631  0.3613567690338257  1.0000
  H   H1        1.0  0.9440538934486754  0.561571586460204  0.719267083519519  1.0000
  H   H2        1.0  0.0559582955007514  0.43842839440264225  0.28073651136591593  1.0000
  H   H3        1.0  0.895658374678611  0.35509113210603976  0.8709952871739548  1.0000
  H   H4        1.0  0.10433995336710918  0.6449000236960957  0.1290041459538358  1.0000
  H   H5        1.0  0.3194494254761722  0.08144936490521813  0.8254323257739176  1.0000
  H   H6        1.0  0.6805487729823482  0.918543118442564  0.1745624555346268  1.0000
  H   H7        1.0  0.9243217739283481  0.9800153382713649  0.9255445448364483  1.0000
  H   H8        1.0  0.07567168980041569  0.019977038416861603  0.0744609589667959  1.0000
  H   H9        1.0  0.5939800532597272  0.7520710540846525  0.03809302448657801  1.0000
  H   H10       1.0  0.40599156799348174  0.24792273826114564  0.96190639700977  1.0000
  H   H11       1.0  0.2967212688535454  0.555653480700592  0.922773134652637  1.0000
  H   H12       1.0  0.7032568997744235  0.44434927211813874  0.0772206978522334  1.0000
  H   H13       1.0  0.4660050395872588  0.6803942852169699  0.7661839452430357  1.0000
  H   H14       1.0  0.5339994909689876  0.3196108988599208  0.23381248914751046  1.0000
  C   C1        1.0  0.3646714370657306  0.3316825353070456  0.5112948375798041  1.0000
  C   C2        1.0  0.63533563923513  0.6683213063843851  0.48870684918829715  1.0000
  C   C3        1.0  0.3868051817287679  0.4315956985193453  0.5872426386739988  1.0000
  C   C4        1.0  0.6132117316338536  0.5684055499119296  0.4127601552002035  1.0000
  C   C5        1.0  0.49686715001094234  0.5988574629322514  0.5803275178012726  1.0000
  C   C6        1.0  0.5031422616526626  0.4011476232954224  0.4196760795115466  1.0000
  C   C7        1.0  0.0650112905438718  0.4409200641231124  0.7343876867335339  1.0000
  C   C8        1.0  0.9350033091415778  0.5590799094743205  0.2656158462873535  1.0000
  C   C9        1.0  0.04639335874139049  0.3348019523704552  0.8095662647567465  1.0000
  C   C10       1.0  0.9536143481788382  0.6651929827957943  0.19043420118069324  1.0000
  C   C11       1.0  0.2574253580408481  0.1946845678096309  0.7865636535816521  1.0000
  C   C12       1.0  0.7425824296740515  0.8053091079805627  0.21343550236937153  1.0000
  C   C13       1.0  0.7743845793778305  0.8786761950168017  0.9087833776327301  1.0000
  C   C14       1.0  0.2256087710279076  0.12131748649387222  0.09121946161982211  1.0000
  C   C15       1.0  0.6063078674307576  0.7613895518065021  0.9660957889581712  1.0000
  C   C16       1.0  0.3936756350704371  0.23860673811313404  0.033904618342568  1.0000
  C   C17       1.0  0.4556111399903813  0.6605249668968514  0.9097405822267179  1.0000
  C   C18       1.0  0.5443818921318667  0.3394725987835869  0.09025691306515432  1.0000
  N   N1        1.0  0.2756706979325542  0.3639532802423489  0.6723217347808088  1.0000
  N   N2        1.0  0.7243437022138152  0.6360492651279943  0.3276797812529466  1.0000
  N   N3        1.0  0.3976539822087588  0.21163212439471124  0.7033545349598853  1.0000
  N   N4        1.0  0.6023557526335067  0.788367924328739  0.2966438224072974  1.0000
  N   N5        1.0  0.5362837200181757  0.7193418907598002  0.8259081249639593  1.0000
  N   N6        1.0  0.4637115558293701  0.28065819398172925  0.17409126601333474  1.0000
  N   N7        1.0  0.7321664220354477  0.8524802493039588  0.8231962926790858  1.0000
  N   N8        1.0  0.26783379402854723  0.14751850850989712  0.1768063015426691  1.0000
  O   O1        1.0  0.2330004213242276  0.19061854915016607  0.5134656003770459  1.0000
  O   O2        1.0  0.7669919964428261  0.8093879003322543  0.4865351030140417  1.0000
  O   O3        1.0  0.49175440110121815  0.6998099555251828  0.6446537499699616  1.0000
  O   O4        1.0  0.508264453967385  0.30019767341374165  0.3553475828975365  1.0000
