data_image0
_chemical_formula_structural       Mg6H42C66S6N12O18
_chemical_formula_sum              "Mg6 H42 C66 S6 N12 O18"
_cell_length_a       6.904153631247192
_cell_length_b       31.38833428412884
_cell_length_c       31.382254609945875
_cell_angle_alpha    119.46427186053631
_cell_angle_beta     94.18689389519986
_cell_angle_gamma    94.21853640130881

_space_group_name_H-M_alt    "P 1"
_space_group_IT_number       1

loop_
  _space_group_symop_operation_xyz
  'x, y, z'

loop_
  _atom_site_type_symbol
  _atom_site_label
  _atom_site_symmetry_multiplicity
  _atom_site_fract_x
  _atom_site_fract_y
  _atom_site_fract_z
  _atom_site_occupancy
  Mg  Mg1       1.0  0.5735967754792952  0.296617412791548  0.658100702120379  1.0000
  Mg  Mg2       1.0  0.9156073880478389  0.3418801504176585  0.6383643891635273  1.0000
  Mg  Mg3       1.0  0.277070421972347  0.3616229950615378  0.7033861336400166  1.0000
  Mg  Mg4       1.0  0.20530724819867882  0.6279204080390174  0.3169105120757791  1.0000
  Mg  Mg5       1.0  0.8882727451704325  0.6829847487700533  0.31107361392292887  1.0000
  Mg  Mg6       1.0  0.5772309080566415  0.688787484503017  0.37196050071725045  1.0000
  H   H1        1.0  0.38779355553727146  0.4202082672940293  0.8840530085075073  1.0000
  H   H2        1.0  0.5040734433975302  0.1159193945926447  0.5361902585185234  1.0000
  H   H3        1.0  0.9676940716274627  0.46385454745363575  0.5798159732922912  1.0000
  H   H4        1.0  0.3182717364033181  0.4566050383661279  0.005432921792945017  1.0000
  H   H5        1.0  0.3136787454767926  0.994557671713082  0.4513057489552919  1.0000
  H   H6        1.0  0.8615655939756265  0.5488233406373908  0.5434647629154413  1.0000
  H   H7        1.0  0.08218117845590457  0.5085590254255905  0.05472606769274782  1.0000
  H   H8        1.0  0.027800612940943364  0.9452819108479957  0.4537866581820396  1.0000
  H   H9        1.0  0.5731431461133525  0.5462515818355556  0.4916980456096454  1.0000
  H   H10       1.0  0.6327847928906039  0.5194815848950968  0.0038023440343763985  1.0000
  H   H11       1.0  0.628729016309343  0.9960756572507635  0.5154362050336018  1.0000
  H   H12       1.0  0.11296321734425166  0.48436841523138713  0.4806810928224082  1.0000
  H   H13       1.0  0.033446207289095815  0.5950216587010575  0.06585082023129016  1.0000
  H   H14       1.0  0.9673447220364294  0.9341045492744726  0.5290298786044473  1.0000
  H   H15       1.0  0.43850986197749353  0.47086548652978166  0.4052074084737781  1.0000
  H   H16       1.0  0.850131831423887  0.6045419241419341  0.1794392582967319  1.0000
  H   H17       1.0  0.6711395674724727  0.8204985567909162  0.4249916753284566  1.0000
  H   H18       1.0  0.24641986040204958  0.5749365614153206  0.39570416904144423  1.0000
  H   H19       1.0  0.5444307963854484  0.6619980314653875  0.18297422661155593  1.0000
  H   H20       1.0  0.36191521166276164  0.8170248993474375  0.47885258558020644  1.0000
  H   H21       1.0  0.8830106703107886  0.5209864505610255  0.3381405962140462  1.0000
  H   H22       1.0  0.3144949889051316  0.6305759427572467  0.10648054632358134  1.0000
  H   H23       1.0  0.20855162960406662  0.8935537082051611  0.5238358766519654  1.0000
  H   H24       1.0  0.684506823589544  0.47593350734747736  0.36961138164985397  1.0000
  H   H25       1.0  0.8078983581301243  0.5076573718043847  0.9261001447255595  1.0000
  H   H26       1.0  0.8810487727251368  0.0738447160380531  0.5813855042644036  1.0000
  H   H27       1.0  0.3000960563601822  0.41839456472222025  0.492427974672907  1.0000
  H   H28       1.0  0.04137906497508936  0.45263620224729806  0.8756842890260614  1.0000
  H   H29       1.0  0.16516017482039294  0.1242781694915038  0.5768830615983235  1.0000
  H   H30       1.0  0.5887180815907697  0.4230009622106151  0.5474039369529962  1.0000
  H   H31       1.0  0.5307111573400931  0.3239169379121877  0.8980463133210534  1.0000
  H   H32       1.0  0.6327641347665035  0.1019391689406035  0.4258330500894303  1.0000
  H   H33       1.0  0.20721633082536775  0.5741927543846401  0.676021888657452  1.0000
  H   H34       1.0  0.32658237002763  0.3395358805099136  0.8019648446995263  1.0000
  H   H35       1.0  0.5249259866839181  0.1980173370833285  0.5374885630430768  1.0000
  H   H36       1.0  0.9875526844351511  0.4624674833861634  0.660424010088235  1.0000
  H   H37       1.0  0.05161898955249457  0.3606506323781104  0.8244701503665297  1.0000
  H   H38       1.0  0.2274543003448314  0.17554504572423466  0.5360656571520934  1.0000
  H   H39       1.0  0.6918615687201708  0.4641561976319508  0.639676761843468  1.0000
  H   H40       1.0  0.8749394261614397  0.35661767295172814  0.8885927071113926  1.0000
  H   H41       1.0  0.9867383347269937  0.1113748975518547  0.4679671559153036  1.0000
  H   H42       1.0  0.5191537883178512  0.5322376259128063  0.643651019948628  1.0000
  C   C1        1.0  0.34258420620067637  0.3732058097397015  0.9113346019668569  1.0000
  C   C2        1.0  0.43165792527666713  0.08862848303279951  0.4619002017769064  1.0000
  C   C3        1.0  0.96975177487397  0.5381388365626166  0.6268036422194712  1.0000
  C   C4        1.0  0.19097848616822682  0.44940507873193514  0.9368103373845359  1.0000
  C   C5        1.0  0.2543423333908592  0.0631917009309646  0.5126516367230565  1.0000
  C   C6        1.0  0.7414985030936306  0.4873824607619852  0.5506658214651736  1.0000
  C   C7        1.0  0.20580847408623273  0.4672929873627255  0.987704728197116  1.0000
  C   C8        1.0  0.21850633997061664  0.012291121772030098  0.4796525089242324  1.0000
  C   C9        1.0  0.7383102540979607  0.5204228855298467  0.5328216972002621  1.0000
  C   C10       1.0  0.0724919113151472  0.49702703318617847  0.01566644286461381  1.0000
  C   C11       1.0  0.0569870452741412  0.9843140637594631  0.4813151771106162  1.0000
  C   C12       1.0  0.5751193936488831  0.5187048238699177  0.5031769511165861  1.0000
  C   C13       1.0  0.9226863922284776  0.5101734094691182  0.9932735963882635  1.0000
  C   C14       1.0  0.9292294049259124  0.006695627455591999  0.5167878934937278  1.0000
  C   C15       1.0  0.41219719786191417  0.48313776002524383  0.4900145332994157  1.0000
  C   C16       1.0  0.7860390906547678  0.5613627175609109  0.07109044761251226  1.0000
  C   C17       1.0  0.7151137734620148  0.9288107965209704  0.49000094509186437  1.0000
  C   C18       1.0  0.22479161299010994  0.5097871836856314  0.43882226213287373  1.0000
  C   C19       1.0  0.06786385176237528  0.6145864288336185  0.13786603389797836  1.0000
  C   C20       1.0  0.9303848016033313  0.8621092963271765  0.4765548898424044  1.0000
  C   C21       1.0  0.45378624454217936  0.5232765662284181  0.3855834914919144  1.0000
  C   C22       1.0  0.0016318712827256706  0.6171901567372872  0.17994622354097345  1.0000
  C   C23       1.0  0.8221225121309528  0.8199998693301538  0.43714048361452024  1.0000
  C   C24       1.0  0.38506289993199516  0.5627403598331142  0.38296115318306073  1.0000
  C   C25       1.0  0.13113175969470356  0.6354242071304059  0.22382945045080768  1.0000
  C   C26       1.0  0.907645627873414  0.7760905719844189  0.4115634445524492  1.0000
  C   C27       1.0  0.4960761652863113  0.5883050240657043  0.36459908310131794  1.0000
  C   C28       1.0  0.33249474080582786  0.6509332291599961  0.22428005451567395  1.0000
  C   C29       1.0  0.10856768665161105  0.7756576666146061  0.426605045107209  1.0000
  C   C30       1.0  0.6819399928973979  0.5732507113483578  0.3490876896885808  1.0000
  C   C31       1.0  0.391215554927271  0.6500508613403184  0.18188080977530058  1.0000
  C   C32       1.0  0.2097618559781367  0.8181108032261477  0.468023811315298  1.0000
  C   C33       1.0  0.7416607503632234  0.5318008801334599  0.35005739800344327  1.0000
  C   C34       1.0  0.26297342247460165  0.6328016832077099  0.13947229540866612  1.0000
  C   C35       1.0  0.12395085723600366  0.860538768546057  0.49312684322605077  1.0000
  C   C36       1.0  0.6306617284368554  0.506664817000825  0.36735371716674337  1.0000
  C   C37       1.0  0.48494628202661244  0.666027825450058  0.2659836105953061  1.0000
  C   C38       1.0  0.21911511217884075  0.7338931769276726  0.4000919960872125  1.0000
  C   C39       1.0  0.8190572672981347  0.5998079264742485  0.333872967449821  1.0000
  C   C40       1.0  0.9186045221225497  0.49575140017932284  0.9431793778454818  1.0000
  C   C41       1.0  0.9749700361093686  0.05679629644796341  0.5524575163770039  1.0000
  C   C42       1.0  0.42265509276973023  0.4474183894547679  0.5043769679821111  1.0000
  C   C43       1.0  0.05094293543157849  0.4652297621263132  0.9150114610531332  1.0000
  C   C44       1.0  0.1356356939458152  0.0849741732824612  0.5501780180367888  1.0000
  C   C45       1.0  0.5856255253162529  0.44975576465186157  0.534854999110479  1.0000
  C   C46       1.0  0.588977115468772  0.3501096332438891  0.8503010852030926  1.0000
  C   C47       1.0  0.7390524651268534  0.14967429571891702  0.49974272173754747  1.0000
  C   C48       1.0  0.23949312621576277  0.5003173691312811  0.6499365247598021  1.0000
  C   C49       1.0  0.4860334806657606  0.3456615154494216  0.8078761762415709  1.0000
  C   C50       1.0  0.6784674918225805  0.19211336219798622  0.5376828002741192  1.0000
  C   C51       1.0  0.14096289157326672  0.46231491150197707  0.6543493122365476  1.0000
  C   C52       1.0  0.5842093943739144  0.3433281881349544  0.7691439712179147  1.0000
  C   C53       1.0  0.8152940619757985  0.23086724279700385  0.5740522309663518  1.0000
  C   C54       1.0  0.24147175150162778  0.42593548493247374  0.6566992696461043  1.0000
  C   C55       1.0  0.7941989149010452  0.35140603717549385  0.7767843638861791  1.0000
  C   C56       1.0  0.017666152078391024  0.2232330555694945  0.574508557030704  1.0000
  C   C57       1.0  0.44349766525575507  0.42554897202983016  0.6486780187368951  1.0000
  C   C58       1.0  0.8923351947954002  0.35527610682996885  0.819690140263269  1.0000
  C   C59       1.0  0.0729404951418857  0.18032399602768126  0.5354801279656343  1.0000
  C   C60       1.0  0.5378373273892406  0.46466496260860163  0.6449381605498701  1.0000
  C   C61       1.0  0.7944378922073341  0.3535379844197665  0.8557419018776501  1.0000
  C   C62       1.0  0.9390718649414111  0.14424629262894945  0.4977083771308913  1.0000
  C   C63       1.0  0.441664909633907  0.5024335858242353  0.6466709258722716  1.0000
  C   C64       1.0  0.9118309830439343  0.3567436940529731  0.7421721828613317  1.0000
  C   C65       1.0  0.16975967610611056  0.2578297713809974  0.6144720077916901  1.0000
  C   C66       1.0  0.5555448035279937  0.385572160467774  0.6432656309966661  1.0000
  S   S1        1.0  0.21965805402282257  0.35382204612460544  0.9436477950782134  1.0000
  S   S2        1.0  0.2764587158651892  0.0562952955524452  0.4102208934098428  1.0000
  S   S3        1.0  0.8663064889032694  0.5898347855138725  0.6462118350612016  1.0000
  S   S4        1.0  0.6096398658044961  0.5527326634150924  0.09995818944673117  1.0000
  S   S5        1.0  0.5103554275729465  0.8999469862010873  0.45232973680142413  1.0000
  S   S6        1.0  0.05722469735201231  0.5472942627085332  0.44745193336466826  1.0000
  N   N1        1.0  0.3137142508151953  0.4142247828372804  0.9078848051900722  1.0000
  N   N2        1.0  0.406165237559378  0.092092136217147  0.5063933903935336  1.0000
  N   N3        1.0  0.8995948488865436  0.493657724364958  0.585807581929764  1.0000
  N   N4        1.0  0.771597189694404  0.5358435523540237  0.019593716366280444  1.0000
  N   N5        1.0  0.7518120110756003  0.98032583816466  0.5160732783702572  1.0000
  N   N6        1.0  0.23550354776030957  0.48378836882004356  0.4643328208452004  1.0000
  N   N7        1.0  0.9558630166349571  0.5932443181795577  0.09143754954888549  1.0000
  N   N8        1.0  0.8645220294410263  0.9084960508754989  0.5016047537905662  1.0000
  N   N9        1.0  0.3629102944778921  0.49823851810504044  0.40696152440102656  1.0000
  N   N10       1.0  0.4891164377674499  0.3474574664193071  0.8866580443478612  1.0000
  N   N11       1.0  0.6028269854506689  0.11328771512432215  0.4607798447122491  1.0000
  N   N12       1.0  0.14220033552199848  0.539254890502427  0.6525026092918509  1.0000
  O   O1        1.0  0.09330563485968917  0.3736283141044083  0.7543087978550673  1.0000
  O   O2        1.0  0.33903018844102206  0.24567944696956093  0.6192422930697958  1.0000
  O   O3        1.0  0.720085394587258  0.3808208358155127  0.6263570075534305  1.0000
  O   O4        1.0  0.8257605653360042  0.3438024906033377  0.6987415020278647  1.0000
  O   O5        1.0  0.12696371792495847  0.3012409121762403  0.6449505647145058  1.0000
  O   O6        1.0  0.48219192666699934  0.35505230615375893  0.6561485884429317  1.0000
  O   O7        1.0  0.4790848192723089  0.3320270729332578  0.7264882590706493  1.0000
  O   O8        1.0  0.7526975583194186  0.27352090170964527  0.6053722771536486  1.0000
  O   O9        1.0  0.14741021922419154  0.3945633206799429  0.6679674843457519  1.0000
  O   O10       1.0  0.6617216274230768  0.6795930455983239  0.2644642376371991  1.0000
  O   O11       1.0  0.39737745826664644  0.7354010363706963  0.41517299559143334  1.0000
  O   O12       1.0  0.982282243386244  0.584741566207839  0.32030391061748986  1.0000
  O   O13       1.0  0.4356798590310617  0.6638893355332343  0.30400426498334804  1.0000
  O   O14       1.0  0.13167097395545824  0.6958380773922529  0.36000795254595636  1.0000
  O   O15       1.0  0.7717073014223528  0.6399068087297123  0.33593339940681216  1.0000
  O   O16       1.0  0.0590702828261414  0.6368364382415095  0.2630094065480009  1.0000
  O   O17       1.0  0.7962689429118652  0.7368891827108968  0.37388046669594377  1.0000
  O   O18       1.0  0.42241668177516095  0.6259930991580307  0.3630925020175654  1.0000
