data_image0
_chemical_formula_structural       Cd6H4C16O20
_chemical_formula_sum              "Cd6 H4 C16 O20"
_cell_length_a       7.258149832356007
_cell_length_b       7.633420060058246
_cell_length_c       12.037245646818667
_cell_angle_alpha    78.55875730292485
_cell_angle_beta     72.43740371806228
_cell_angle_gamma    61.63489865883275

_space_group_name_H-M_alt    "P 1"
_space_group_IT_number       1

loop_
  _space_group_symop_operation_xyz
  'x, y, z'

loop_
  _atom_site_type_symbol
  _atom_site_label
  _atom_site_symmetry_multiplicity
  _atom_site_fract_x
  _atom_site_fract_y
  _atom_site_fract_z
  _atom_site_occupancy
  Cd  Cd1       1.0  7.629946445444668e-08  9.431499847999858e-07  0.4999995306068428  1.0000
  Cd  Cd2       1.0  0.49999904637495945  1.4077799334999337e-06  0.4999996175370569  1.0000
  Cd  Cd3       1.0  0.2908352759466408  0.703215480079379  0.7153997522658742  1.0000
  Cd  Cd4       1.0  0.7091636163444406  0.29678309847638923  0.28460041071139136  1.0000
  Cd  Cd5       1.0  3.488187862681002e-08  0.49999937404668776  1.4996524769010025e-06  1.0000
  Cd  Cd6       1.0  0.5000006581829484  0.5000011622243719  0.9999994792374238  1.0000
  H   H1        1.0  0.5821019484859633  0.303028715020865  0.5327821424812598  1.0000
  H   H2        1.0  0.4178954091267784  0.6969698626034386  0.4672166652257346  1.0000
  H   H3        1.0  0.13640449108093836  0.7831938018161749  0.9443836961359224  1.0000
  H   H4        1.0  0.8635960621187592  0.21680477634473053  0.05561480485258135  1.0000
  C   C1        1.0  0.02492540012850236  0.3359901925288042  0.614400255404469  1.0000
  C   C2        1.0  0.9750720453844508  0.6640128631087162  0.38560192154317735  1.0000
  C   C3        1.0  0.08875266757875264  0.42651165662755364  0.6830863092576607  1.0000
  C   C4        1.0  0.19804235727053776  0.5734379226433574  0.31688999189112366  1.0000
  C   C5        1.0  0.9112479862978446  0.5734899064333803  0.3169134321382643  1.0000
  C   C6        1.0  0.8019548495839927  0.42656662421655506  0.68311020349838  1.0000
  C   C7        1.0  0.8712468611576866  0.49529809501589017  0.7626207744894273  1.0000
  C   C8        1.0  0.12875425828451637  0.5047049603963315  0.23737917161302144  1.0000
  C   C9        1.0  0.27574781330701365  0.011643919581693798  0.23429365289538137  1.0000
  C   C10       1.0  0.5220766689713583  0.9882269243664651  0.7656368211902134  1.0000
  C   C11       1.0  0.7242508275489568  0.988357643309655  0.7657066573569794  1.0000
  C   C12       1.0  0.4779213928654116  0.011771654386741699  0.2343641727814401  1.0000
  C   C13       1.0  0.3886126085555048  0.8812746375053422  0.13597055373170264  1.0000
  C   C14       1.0  0.4058519638875922  0.1187327548530206  0.863911681199589  1.0000
  C   C15       1.0  0.6113874663018918  0.11872394141744279  0.8640298713835152  1.0000
  C   C16       1.0  0.5941473939690876  0.8812673160540498  0.13608868648420008  1.0000
  O   O1        1.0  0.12417736806532523  0.221083128979302  0.5306579930559323  1.0000
  O   O2        1.0  0.8758217511329391  0.7789184331501602  0.4693403930697215  1.0000
  O   O3        1.0  0.2600377088964478  0.43788817731430635  0.6730164596138408  1.0000
  O   O4        1.0  0.37070933555091307  0.5620025999329245  0.32684607288121725  1.0000
  O   O5        1.0  0.739963548527271  0.5621104019754953  0.32698422763932194  1.0000
  O   O6        1.0  0.6292928530040172  0.43799896405947436  0.6731550237849929  1.0000
  O   O7        1.0  0.7839800036710257  0.5714270499685129  0.8610897456405909  1.0000
  O   O8        1.0  0.21602195797672138  0.42857153045019913  0.1389131278772311  1.0000
  O   O9        1.0  0.08348480220567457  0.0824392588277263  0.29755915240865255  1.0000
  O   O10       1.0  0.4643527405634202  0.9171191622195703  0.7022592141465296  1.0000
  O   O11       1.0  0.9165145556510127  0.917560812079337  0.7024412152751368  1.0000
  O   O12       1.0  0.5356430695943005  0.08288090758644981  0.29774036712341706  1.0000
  O   O13       1.0  0.3295805099575657  0.8008221356135578  0.0813498854697485  1.0000
  O   O14       1.0  0.21164203747677848  0.1992063305542544  0.9182847979633805  1.0000
  O   O15       1.0  0.6704173004440926  0.1991794274752294  0.918651255776993  1.0000
  O   O16       1.0  0.7883570817214857  0.8007952315752078  0.08171358816227327  1.0000
  O   O17       1.0  0.6628214123314461  0.195976738578004  0.4785053608670609  1.0000
  O   O18       1.0  0.33717747995963526  0.8040218399777712  0.5214948021102046  1.0000
  O   O19       1.0  0.2183046502667236  0.6549765884673491  0.9085781998957289  1.0000
  O   O20       1.0  0.7816950724786692  0.345021989890988  0.09142113208716297  1.0000
