data_image0
_chemical_formula_structural       Zr6H34C120Br30N18O32
_chemical_formula_sum              "Zr6 H34 C120 Br30 N18 O32"
_cell_length_a       19.74884690865858
_cell_length_b       19.76821453898422
_cell_length_c       19.816892826018456
_cell_angle_alpha    91.95399049516874
_cell_angle_beta     92.72503837870872
_cell_angle_gamma    91.60685373185812

_space_group_name_H-M_alt    "P 1"
_space_group_IT_number       1

loop_
  _space_group_symop_operation_xyz
  'x, y, z'

loop_
  _atom_site_type_symbol
  _atom_site_label
  _atom_site_symmetry_multiplicity
  _atom_site_fract_x
  _atom_site_fract_y
  _atom_site_fract_z
  _atom_site_occupancy
  Zr  Zr1       1.0  0.8094670221286222  0.9589656416449587  0.8649345632260362  1.0000
  Zr  Zr2       1.0  0.7751002821037003  0.8587630188567628  0.00437763094080878  1.0000
  Zr  Zr3       1.0  0.9773982163335119  0.9881840355807724  0.9304173300326113  1.0000
  Zr  Zr4       1.0  0.9115991267672428  0.8200645302292882  0.9022893354357036  1.0000
  Zr  Zr5       1.0  0.8394708908813938  0.02545232316101219  0.03206122018216457  1.0000
  Zr  Zr6       1.0  0.9440096508416927  0.8868900706050624  0.06899048847203199  1.0000
  H   H1        1.0  0.7725001364057602  0.8185074714083947  0.8645327159782141  1.0000
  H   H2        1.0  0.8762262823955069  0.0843430964185927  0.9098471154132568  1.0000
  H   H3        1.0  0.037657400626407884  0.864884418225763  0.9674879619242843  1.0000
  H   H4        1.0  0.8221522385854313  0.9237109836761094  0.12812307626062133  1.0000
  H   H5        1.0  0.265700252605903  0.8003467607746726  0.7915859509807744  1.0000
  H   H6        1.0  0.08082533978699759  0.9555822515554835  0.7352218286597746  1.0000
  H   H7        1.0  0.4234101835105263  0.8998698252344963  0.8461425256079095  1.0000
  H   H8        1.0  0.6479668240046408  0.8580854114399443  0.755722993903781  1.0000
  H   H9        1.0  0.32500147451958833  0.9601386902440081  0.09303759584828697  1.0000
  H   H10       1.0  0.10037059701814849  0.006081315359970999  0.182192432744813  1.0000
  H   H11       1.0  0.5316403023726296  0.0855168279030281  0.21167999469240328  1.0000
  H   H12       1.0  0.6193330111829666  0.8685986049708629  0.12581901006014107  1.0000
  H   H13       1.0  0.46841039138847407  0.0014884192533201996  0.4234356891373849  1.0000
  H   H14       1.0  0.2844185845843299  0.8604521724712978  0.5121010969659635  1.0000
  H   H15       1.0  0.5578359509343542  0.2354822686178012  0.9569808298467208  1.0000
  H   H16       1.0  0.7791438057313015  0.2034796146793028  0.8538553756898609  1.0000
  H   H17       1.0  0.7248256754744771  0.48736581508500615  0.8626983586364005  1.0000
  H   H18       1.0  0.7152860863043953  0.6730827837998276  0.034799603079115074  1.0000
  H   H19       1.0  0.0870469144768649  0.14763056302839317  0.06987012826780868  1.0000
  H   H20       1.0  0.007839792637923898  0.3658023471943038  0.9847789456781797  1.0000
  H   H21       1.0  0.016603282359177695  0.5057879304132199  0.011984830857279895  1.0000
  H   H22       1.0  0.1347876273069133  0.729318672290965  0.041609489477309594  1.0000
  H   H23       1.0  0.4353572249600575  0.31709394791260337  0.9361488598814772  1.0000
  H   H24       1.0  0.32028589857604556  0.5258032149800369  0.9993104413533728  1.0000
  H   H25       1.0  0.736623392294028  0.7877866879422797  0.22118549758160097  1.0000
  H   H26       1.0  0.9136391564410785  0.6347191859927077  0.3047148830756541  1.0000
  H   H27       1.0  0.7484708967820096  0.6596361139975995  0.6160694748608576  1.0000
  H   H28       1.0  0.9074966462549626  0.8593470506360389  0.6413964868310345  1.0000
  H   H29       1.0  0.9257838422040764  0.05488776596254749  0.4138769620492013  1.0000
  H   H30       1.0  0.9357594167133384  0.1446077705679798  0.1852182433217493  1.0000
  H   H31       1.0  0.8624104839758504  0.008912459176322293  0.6709397935598318  1.0000
  H   H32       1.0  0.9799730387291703  0.23142039992428914  0.6538774708286184  1.0000
  H   H33       1.0  0.8154992695850966  0.3463040018900401  0.5423303681349694  1.0000
  H   H34       1.0  0.9461626979626843  0.5079899202845722  0.40974333063466867  1.0000
  C   C1        1.0  0.9243953292334336  0.18805496417817114  0.535314735147338  1.0000
  C   C2        1.0  0.9134317163435736  0.2850266962981322  0.47907924723828893  1.0000
  C   C3        1.0  0.9313556822675224  0.1863915916963137  0.4209839376308294  1.0000
  C   C4        1.0  0.8245190446600716  0.6550385326114991  0.3957651718453548  1.0000
  C   C5        1.0  0.8243141140310752  0.6717743554542607  0.5091049913595781  1.0000
  C   C6        1.0  0.8437135433733046  0.5676164412990231  0.46454284213267266  1.0000
  C   C7        1.0  0.1460363508835698  0.49041572632366826  0.019685489391541484  1.0000
  C   C8        1.0  0.23538404578846434  0.4238342508132789  0.9988027711812463  1.0000
  C   C9        1.0  0.135307245201794  0.3760957467068734  0.026867632328091393  1.0000
  C   C10       1.0  0.611507684908723  0.3512877790874142  0.921388967483267  1.0000
  C   C11       1.0  0.5232287968773335  0.41729232332922084  0.9483045808752448  1.0000
  C   C12       1.0  0.629916332522427  0.4627557168795846  0.9471473317841299  1.0000
  C   C13       1.0  0.44827711328971265  0.9774685075856904  0.23612453535458394  1.0000
  C   C14       1.0  0.3845237817820149  0.9560696133907811  0.3250936324963547  1.0000
  C   C15       1.0  0.3339961168071426  0.9816227047344981  0.22412060511440046  1.0000
  C   C16       1.0  0.3006119810694301  0.8835092216435001  0.6974708294416557  1.0000
  C   C17       1.0  0.4151652794217426  0.8835209999720561  0.7131861108145685  1.0000
  C   C18       1.0  0.36711350056986447  0.9067708922637082  0.6105710806821064  1.0000
  C   C19       1.0  0.9179390746996033  0.047937954978870295  0.7874860939621441  1.0000
  C   C20       1.0  0.6619351423209777  0.8919335454197396  0.8828802633597944  1.0000
  C   C21       1.0  0.8402652297474872  0.8376108187298639  0.7550805152699525  1.0000
  C   C22       1.0  0.7418224227547794  0.0959217323272199  0.9223518827217345  1.0000
  C   C23       1.0  0.840848026746741  0.7891573629722541  0.14233661630660066  1.0000
  C   C24       1.0  0.0876038863074697  0.9635098606479886  0.05579877046746869  1.0000
  C   C25       1.0  0.7910504273802559  0.710525221447483  0.9393649141447041  1.0000
  C   C26       1.0  0.6985932971858089  0.9676070720072614  0.09403695680880017  1.0000
  C   C27       1.0  0.9653198889971648  0.1329010182677948  0.007378541477464814  1.0000
  C   C28       1.0  0.049428449522935076  0.8794632703761066  0.8360080042293845  1.0000
  C   C29       1.0  0.0014384877489561953  0.7419644815168169  0.011579265261296698  1.0000
  C   C30       1.0  0.9170718040164233  0.014217258054976895  0.176955635937496  1.0000
  C   C31       1.0  0.22365571402128373  0.832242479938827  0.777466073323275  1.0000
  C   C32       1.0  0.23300486947826465  0.8791342030556918  0.7267154524819688  1.0000
  C   C33       1.0  0.17932875288615688  0.9219059196522821  0.7097682138799114  1.0000
  C   C34       1.0  0.12005602645182725  0.9190192818598244  0.7449502338110675  1.0000
  C   C35       1.0  0.11096158042342096  0.8719980914868438  0.7951834291822449  1.0000
  C   C36       1.0  0.163026717613171  0.8274175558076492  0.8102399190240631  1.0000
  C   C37       1.0  0.472952880828231  0.8892293910698326  0.827025057347967  1.0000
  C   C38       1.0  0.4770204782598098  0.8759711568752447  0.7571296466557556  1.0000
  C   C39       1.0  0.5409610287496704  0.860794442447343  0.7325462478439634  1.0000
  C   C40       1.0  0.5983801630038527  0.8661180383708567  0.7757616649989387  1.0000
  C   C41       1.0  0.5945314054933774  0.8819448589024997  0.8449639078295306  1.0000
  C   C42       1.0  0.5304217773914317  0.8908582338326592  0.8708017043749334  1.0000
  C   C43       1.0  0.27552324782620724  0.9718439913435475  0.11165850867397607  1.0000
  C   C44       1.0  0.2716458549260635  0.9886553364162721  0.18088122907712287  1.0000
  C   C45       1.0  0.20783007873156115  0.0049085108118234  0.20517442195355778  1.0000
  C   C46       1.0  0.15007028483922366  0.9977071405985211  0.16234134452108853  1.0000
  C   C47       1.0  0.15395890651875987  0.9779058512650421  0.09410248782868538  1.0000
  C   C48       1.0  0.21784614675326  0.9672901684173634  0.06840700370317877  1.0000
  C   C49       1.0  0.5513130027885537  0.03755794098928078  0.193780096501321  1.0000
  C   C50       1.0  0.5150320621676484  0.9774610944745844  0.2038972379785307  1.0000
  C   C51       1.0  0.5411118723705641  0.9161920341649928  0.18054834623482208  1.0000
  C   C52       1.0  0.600321087966499  0.9158854962433904  0.14591029063274868  1.0000
  C   C53       1.0  0.6371067765984506  0.9761861158572812  0.134696850179381  1.0000
  C   C54       1.0  0.6124591643945081  0.037458443515952  0.1607625693239001  1.0000
  C   C55       1.0  0.42813595855708536  0.9703051887238626  0.44322496118314086  1.0000
  C   C56       1.0  0.379073994801182  0.9402961450710093  0.3971868805109153  1.0000
  C   C57       1.0  0.326997575597268  0.8998546502082686  0.4229270488720259  1.0000
  C   C58       1.0  0.32464591080402266  0.8916595058920437  0.492210705070363  1.0000
  C   C59       1.0  0.37355177569346404  0.9219274704182538  0.5383818813281991  1.0000
  C   C60       1.0  0.4256982985919393  0.962243664547834  0.5125704131695201  1.0000
  C   C61       1.0  0.606571889289448  0.2278000694816028  0.9347953044890431  1.0000
  C   C62       1.0  0.6397807559939322  0.2839712400026996  0.9078843289534007  1.0000
  C   C63       1.0  0.7008539465132769  0.273470892883921  0.8754560379039092  1.0000
  C   C64       1.0  0.7309706932104163  0.21068475005914417  0.8773757676911345  1.0000
  C   C65       1.0  0.7006519415820448  0.15719934146557785  0.910236901179367  1.0000
  C   C66       1.0  0.6362643144112352  0.16496014109677756  0.9354170538487026  1.0000
  C   C67       1.0  0.7226372831842908  0.5288901556768264  0.9000190602373194  1.0000
  C   C68       1.0  0.6769388645294256  0.5226317938157266  0.951601202120429  1.0000
  C   C69       1.0  0.6769775101190589  0.5740428593010944  0.0023085425385573712  1.0000
  C   C70       1.0  0.7166074149911096  0.6323139999564517  0.9966844293928075  1.0000
  C   C71       1.0  0.7588321980509747  0.6411794705539646  0.9421156464007936  1.0000
  C   C72       1.0  0.7639185475204896  0.5868088061910867  0.8950835293060421  1.0000
  C   C73       1.0  0.0691341409502613  0.19587851604330092  0.052177686528324295  1.0000
  C   C74       1.0  0.003944633924561497  0.19874787077196734  0.021542980575190995  1.0000
  C   C75       1.0  0.9811962431957113  0.2610627890551027  0.9995610219996465  1.0000
  C   C76       1.0  0.02443707460543719  0.31796619027559797  0.0045021939279336985  1.0000
  C   C77       1.0  0.09096039061363827  0.3148882979323844  0.0325625914730665  1.0000
  C   C78       1.0  0.11179045760326999  0.253222939291227  0.05912533151388289  1.0000
  C   C79       1.0  0.04230066654479709  0.5552036437026757  0.017061657920983492  1.0000
  C   C80       1.0  0.113556235845806  0.5571730357962607  0.024119217597238698  1.0000
  C   C81       1.0  0.14639080859025458  0.6213038060310365  0.03395200416790799  1.0000
  C   C82       1.0  0.1087088458108951  0.680144504985769  0.033720612350883486  1.0000
  C   C83       1.0  0.03821978717756739  0.6773785396328761  0.02244396617474819  1.0000
  C   C84       1.0  0.005141005111376295  0.6135524810478401  0.01572948734136759  1.0000
  C   C85       1.0  0.4097396437464198  0.3629065314680344  0.9509300950110954  1.0000
  C   C86       1.0  0.44948860206711316  0.4232169278799416  0.9582659934570259  1.0000
  C   C87       1.0  0.4152305395644689  0.48314917328144685  0.9743957329033818  1.0000
  C   C88       1.0  0.346317856332753  0.4797474208020062  0.986013574312615  1.0000
  C   C89       1.0  0.30733583614863136  0.4190683435429462  0.9811808321594809  1.0000
  C   C90       1.0  0.34054580373931737  0.35984622369951313  0.9609510641753757  1.0000
  C   C91       1.0  0.7763030427406862  0.7554241158423806  0.24056537311393095  1.0000
  C   C92       1.0  0.8336234120198398  0.7460659889500646  0.20256947222422633  1.0000
  C   C93       1.0  0.8832606216794686  0.7018177647196209  0.22630929136915506  1.0000
  C   C94       1.0  0.8756261239946354  0.6696314216423073  0.286885654069053  1.0000
  C   C95       1.0  0.8211596652132442  0.6832604764574339  0.32744939984618066  1.0000
  C   C96       1.0  0.7705842485568508  0.725948034464764  0.30295237421799465  1.0000
  C   C97       1.0  0.7820222234884254  0.7043838591420267  0.6212808271922156  1.0000
  C   C98       1.0  0.8248406507033222  0.7190986119070428  0.5688817409500045  1.0000
  C   C99       1.0  0.8681561005292052  0.7768505620794952  0.5757582956839542  1.0000
  C   C100      1.0  0.8708887205929158  0.8170641208983865  0.6350711067949247  1.0000
  C   C101      1.0  0.8289224165887958  0.8015314748923857  0.6874360064358099  1.0000
  C   C102      1.0  0.7830245965081984  0.7463299056574255  0.6790537267556046  1.0000
  C   C103      1.0  0.9299065213060658  0.07405367071246617  0.3633333641820257  1.0000
  C   C104      1.0  0.9354203464987447  0.14496030401015494  0.3573822654015331  1.0000
  C   C105      1.0  0.9399666114246231  0.1696931956121759  0.2915724040855139  1.0000
  C   C106      1.0  0.9356162181578256  0.12478338578206659  0.23579943227997552  1.0000
  C   C107      1.0  0.9288130654990495  0.05458329401362501  0.24219476663490977  1.0000
  C   C108      1.0  0.9272356111884718  0.0294166920042898  0.3074380003815875  1.0000
  C   C109      1.0  0.8909703733056202  0.05624952848202009  0.6660006788696646  1.0000
  C   C110      1.0  0.925353648326407  0.08564090049443959  0.7237867269129907  1.0000
  C   C111      1.0  0.9587237127744003  0.14875169919454825  0.7187294820887542  1.0000
  C   C112      1.0  0.9563817693748079  0.18127810255957394  0.6573515812860008  1.0000
  C   C113      1.0  0.9237328152327676  0.15099475377163427  0.599089799816305  1.0000
  C   C114      1.0  0.8909604913983102  0.08729799096300889  0.6042246595320933  1.0000
  C   C115      1.0  0.844454659416378  0.3820800554588785  0.5136406658298753  1.0000
  C   C116      1.0  0.8998005522783569  0.35867205267794583  0.47862718746235094  1.0000
  C   C117      1.0  0.937400398498596  0.40570512597106034  0.4427559670301733  1.0000
  C   C118      1.0  0.917224744853925  0.4723415605442653  0.4385996711274629  1.0000
  C   C119      1.0  0.860861636281136  0.49542114752419764  0.4722053512750221  1.0000
  C   C120      1.0  0.8253450672538561  0.44935565641670655  0.5109420108557288  1.0000
  Br  Br1       1.0  0.15536804933859824  0.7637566919179403  0.8796440795043949  1.0000
  Br  Br2       1.0  0.18512586784329693  0.9911050200069194  0.6458407411240755  1.0000
  Br  Br3       1.0  0.5194147066597523  0.9100623129292839  0.9643347072196703  1.0000
  Br  Br4       1.0  0.5551289422746563  0.8288666503312426  0.642902354906603  1.0000
  Br  Br5       1.0  0.22757001096684348  0.9394568206789415  0.9766647439179863  1.0000
  Br  Br6       1.0  0.1946362345611163  0.039550121751666695  0.2939394980285853  1.0000
  Br  Br7       1.0  0.6568955902552956  0.12301067040872478  0.1536981837292544  1.0000
  Br  Br8       1.0  0.49465264171725914  0.8323998715592891  0.1934879130186076  1.0000
  Br  Br9       1.0  0.4918841137410012  0.012452442525742  0.5678419061114538  1.0000
  Br  Br10      1.0  0.26101005408221317  0.8498864868104615  0.367213569144944  1.0000
  Br  Br11      1.0  0.5892128638633166  0.08869077082785985  0.9684367281881237  1.0000
  Br  Br12      1.0  0.7451840143979565  0.3392037245973114  0.823704135528537  1.0000
  Br  Br13      1.0  0.8235666473101445  0.5871617390083157  0.8229071504584199  1.0000
  Br  Br14      1.0  0.6279147370053478  0.5654887767276903  0.08179120785582229  1.0000
  Br  Br15      1.0  0.1956525666584668  0.24419666879998655  0.1083436547570358  1.0000
  Br  Br16      1.0  0.8932563257980276  0.26886083138805356  0.9574670553770588  1.0000
  Br  Br17      1.0  0.909434067198454  0.6034170353258543  0.007291726468800195  1.0000
  Br  Br18      1.0  0.2414116534798154  0.6349567611073182  0.051359547668283795  1.0000
  Br  Br19      1.0  0.29689611025927576  0.27403931802115267  0.9412976748520093  1.0000
  Br  Br20      1.0  0.4542864412966948  0.5723199690454734  0.9803908490374198  1.0000
  Br  Br21      1.0  0.6913265681716325  0.7426963998638666  0.35067842527607235  1.0000
  Br  Br22      1.0  0.9619052497746947  0.6816312409268332  0.1793231940115021  1.0000
  Br  Br23      1.0  0.7214526557060665  0.7279614319277669  0.7478396753746424  1.0000
  Br  Br24      1.0  0.9301366166694791  0.7999812184907142  0.5091278953254487  1.0000
  Br  Br25      1.0  0.9145099502358107  0.9353725364400626  0.3221963805823478  1.0000
  Br  Br26      1.0  0.9517317641939442  0.2619709975853652  0.27027925169984707  1.0000
  Br  Br27      1.0  0.8386320512824809  0.0428185513075761  0.5318393559937887  1.0000
  Br  Br28      1.0  0.0029184474223384995  0.1951602650280932  0.7947272336690432  1.0000
  Br  Br29      1.0  0.7470930823903643  0.4742994019227069  0.5571314101275107  1.0000
  Br  Br30      1.0  0.02016258235212119  0.38303776131606776  0.40391912073205566  1.0000
  N   N1        1.0  0.9136831312353947  0.25512135136040104  0.5389631540287354  1.0000
  N   N2        1.0  0.920309541230566  0.253029135073433  0.4189727945703439  1.0000
  N   N3        1.0  0.9356445414755327  0.15230944807475305  0.4788104956444385  1.0000
  N   N4        1.0  0.815110479786398  0.6980894155974227  0.44803491100783077  1.0000
  N   N5        1.0  0.8346274302432163  0.6061134177011522  0.5204587395995259  1.0000
  N   N6        1.0  0.8423721511796386  0.5902491761956979  0.40126283667070334  1.0000
  N   N7        1.0  0.21004162388766187  0.48661081196630823  0.0011654103211426955  1.0000
  N   N8        1.0  0.20034506822627657  0.3673058153561115  0.012378700861773999  1.0000
  N   N9        1.0  0.10601988593239037  0.4361779154946957  0.03206686827685699  1.0000
  N   N10       1.0  0.5448150664795646  0.35537830471182014  0.9299317573175542  1.0000
  N   N11       1.0  0.5643563509939823  0.4722436876263245  0.9584245292202311  1.0000
  N   N12       1.0  0.6562905727190795  0.40379350011584586  0.9286378078173597  1.0000
  N   N13       1.0  0.44729890381537274  0.9633935091741108  0.3017542127857809  1.0000
  N   N14       1.0  0.3269334197088228  0.9637148301656141  0.2880469962388331  1.0000
  N   N15       1.0  0.3941536225483161  0.9887430687492933  0.19522770163052164  1.0000
  N   N16       1.0  0.3544726349213221  0.8747265210885756  0.740165584123865  1.0000
  N   N17       1.0  0.42382255990666806  0.9024942259835665  0.6497140166005195  1.0000
  N   N18       1.0  0.30400674657771287  0.8960322382876243  0.6316210506645774  1.0000
  O   O1        1.0  0.9674259790793371  0.043873615913945195  0.830147010972766  1.0000
  O   O2        1.0  0.6744443100831033  0.8645949522510887  0.9387441717066523  1.0000
  O   O3        1.0  0.8127305053934534  0.8936129394275056  0.7666433473707244  1.0000
  O   O4        1.0  0.749756678193151  0.054585072077536295  0.873335345920374  1.0000
  O   O5        1.0  0.7685560328590383  0.09401974898848658  0.9821575116553732  1.0000
  O   O6        1.0  0.8787931983664592  0.8055927860013551  0.7956843851579052  1.0000
  O   O7        1.0  0.7037593379464013  0.9277423155988912  0.8504345764216836  1.0000
  O   O8        1.0  0.858563875041689  0.021208878263116994  0.7921755618395492  1.0000
  O   O9        1.0  0.79175894444446  0.953589199329677  0.9670326329612848  1.0000
  O   O10       1.0  0.9056303362504464  0.9223491734327849  0.8827441532458735  1.0000
  O   O11       1.0  0.8014954673182259  0.8492197723862558  0.893229434680265  1.0000
  O   O12       1.0  0.875391282260935  0.03848616601974439  0.9258620301762477  1.0000
  O   O13       1.0  0.789550219099098  0.7966490311534569  0.10246936180274699  1.0000
  O   O14       1.0  0.07474461741355039  0.989805627494469  0.9994234382883674  1.0000
  O   O15       1.0  0.8434103914811572  0.7225264432109241  0.9068638079616989  1.0000
  O   O16       1.0  0.740602867773049  0.0163080783900611  0.0874503903203561  1.0000
  O   O17       1.0  0.90926738842505  0.12151346886228247  0.03406047857055228  1.0000
  O   O18       1.0  0.008264139807742776  0.8300657820559532  0.8421117852366746  1.0000
  O   O19       1.0  0.0022676715422277898  0.7871487554308202  0.05845899624659269  1.0000
  O   O20       1.0  0.9459295600603994  0.958805511225286  0.1659997525807313  1.0000
  O   O21       1.0  0.9737359721144401  0.7455757942002702  0.9521923119050371  1.0000
  O   O22       1.0  0.8761948320984841  0.04320923842981019  0.1355855413469484  1.0000
  O   O23       1.0  0.7589896781210397  0.7552075915343507  0.9730191987773226  1.0000
  O   O24       1.0  0.04529793184115498  0.9393473909690894  0.8619083072237997  1.0000
  O   O25       1.0  0.9956931794530277  0.09279222275326757  0.9677224271850875  1.0000
  O   O26       1.0  0.7043096623408686  0.9075644236496953  0.06825445176672669  1.0000
  O   O27       1.0  0.8991566416942831  0.8184060893620496  0.1387570174530026  1.0000
  O   O28       1.0  0.04800286213475858  0.9241336489154929  0.08687210638581178  1.0000
  O   O29       1.0  0.9312905918100823  0.9777965301509535  0.02146874178759358  1.0000
  O   O30       1.0  0.877411703450896  0.8381285444315479  0.9979676649206012  1.0000
  O   O31       1.0  0.991841527505045  0.8815213153026987  0.9669725640859356  1.0000
  O   O32       1.0  0.8375980779912807  0.9232383591893192  0.08240039728293878  1.0000
