data_image0
_chemical_formula_structural       Zn2P2H12C12N2O12
_chemical_formula_sum              "Zn2 P2 H12 C12 N2 O12"
_cell_length_a       6.589250223003047
_cell_length_b       8.036721313984975
_cell_length_c       9.118781252860796
_cell_angle_alpha    115.22008852629966
_cell_angle_beta     90.00010522790069
_cell_angle_gamma    89.99997861853645

_space_group_name_H-M_alt    "P 1"
_space_group_IT_number       1

loop_
  _space_group_symop_operation_xyz
  'x, y, z'

loop_
  _atom_site_type_symbol
  _atom_site_label
  _atom_site_symmetry_multiplicity
  _atom_site_fract_x
  _atom_site_fract_y
  _atom_site_fract_z
  _atom_site_occupancy
  Zn  Zn1       1.0  0.7500008319069026  0.7810516389215038  0.52685061500285  1.0000
  Zn  Zn2       1.0  0.25000015348584276  0.21894891274315137  0.4731494148791172  1.0000
  P   P1        1.0  0.7500009493921028  0.1642650063833102  0.5061452629332736  1.0000
  P   P2        1.0  0.2500000359996123  0.835736930717992  0.49385419865643604  1.0000
  H   H1        1.0  0.7500027990746434  0.4836336808444983  0.8307444230139824  1.0000
  H   H2        1.0  0.24999666869612722  0.516366860740483  0.16925669969003115  1.0000
  H   H3        1.0  0.7499989707803822  0.20761450267090711  0.14591777928665556  1.0000
  H   H4        1.0  0.2500004969886761  0.7923846736361213  0.8540817260632354  1.0000
  H   H5        1.0  0.7500012624307146  0.9047530847025982  0.8937686235863753  1.0000
  H   H6        1.0  0.25000124058264117  0.09524748712107822  0.10622922065036995  1.0000
  H   H7        1.0  0.7499974240604957  0.8120104413052613  0.23493453457889046  1.0000
  H   H8        1.0  0.2500005260869216  0.18799010027939994  0.7650665881239721  1.0000
  H   H9        1.0  0.8653251789196689  0.5141204229316615  0.5959985992734362  1.0000
  H   H10       1.0  0.3653257208874905  0.4858788130398822  0.4039999872210063  1.0000
  H   H11       1.0  0.13467580647137115  0.485878763455041  0.4039998132544157  1.0000
  H   H12       1.0  0.6346752645052549  0.5141217386247731  0.5960000426609613  1.0000
  C   C1        1.0  0.7500027240128875  0.1857137425846105  0.7154420434864478  1.0000
  C   C2        1.0  0.24999826137882764  0.814288194516692  0.2845574181032689  1.0000
  C   C3        1.0  0.7500028508322529  0.3580050316029215  0.8487585779405011  1.0000
  C   C4        1.0  0.2499966169371461  0.6419955200614138  0.1512414519403222  1.0000
  C   C5        1.0  0.7500002746904073  0.36649529282951215  0.004695028127869675  1.0000
  C   C6        1.0  0.24999767545668314  0.6335038733978493  0.9953055700440603  1.0000
  C   C7        1.0  0.7500003377866379  0.20303332335559787  0.02474026774515181  1.0000
  C   C8        1.0  0.24999912998105606  0.7969658630307778  0.9752581447815493  1.0000
  C   C9        1.0  0.7500014555752303  0.03708903953608459  0.8869083167506635  1.0000
  C   C10       1.0  0.24999952981615087  0.962911522207918  0.11309062030811387  1.0000
  C   C11       1.0  0.7499988995177278  0.545804652426625  0.15180282219977675  1.0000
  C   C12       1.0  0.24999905062387032  0.45419455411811777  0.8481934046794141  1.0000
  N   N1        1.0  0.7500027865945142  0.029478168113819002  0.7364184164729368  1.0000
  N   N2        1.0  0.24999971642021282  0.9705223936305102  0.2635805205869915  1.0000
  O   O1        1.0  0.7500006343842004  0.9549130259505533  0.4013449314282271  1.0000
  O   O2        1.0  0.250000351008886  0.04508890107140219  0.5986556229846729  1.0000
  O   O3        1.0  0.9394822494593386  0.2639294784799802  0.4881297827311359  1.0000
  O   O4        1.0  0.4394829451316228  0.7360725703286375  0.511866686220948  1.0000
  O   O5        1.0  0.06051721830595371  0.7360711034223898  0.5118669686801314  1.0000
  O   O6        1.0  0.5605165226364051  0.263927991415038  0.4881322508366851  1.0000
  O   O7        1.0  0.7499942775119522  0.6940046807051986  0.12409790396654337  1.0000
  O   O8        1.0  0.2500006373915085  0.30599584072011515  0.8759054043804047  1.0000
  O   O9        1.0  0.7500005877499092  0.5465089791107048  0.28823144619674684  1.0000
  O   O10       1.0  0.25000039764901777  0.45348877144262195  0.7117729987392851  1.0000
  O   O11       1.0  0.7500010156836439  0.6004380136330882  0.6401206022811865  1.0000
  O   O12       1.0  0.2499999697077371  0.3995625481109145  0.35987833477759795  1.0000
