data_image0
_chemical_formula_structural       Lu2MnH28C16O18
_chemical_formula_sum              "Lu2 Mn1 H28 C16 O18"
_cell_length_a       8.768106215636514
_cell_length_b       8.918621733120194
_cell_length_c       10.485040197143054
_cell_angle_alpha    83.93067365466275
_cell_angle_beta     70.54935338803243
_cell_angle_gamma    80.27443134567356

_space_group_name_H-M_alt    "P 1"
_space_group_IT_number       1

loop_
  _space_group_symop_operation_xyz
  'x, y, z'

loop_
  _atom_site_type_symbol
  _atom_site_label
  _atom_site_symmetry_multiplicity
  _atom_site_fract_x
  _atom_site_fract_y
  _atom_site_fract_z
  _atom_site_occupancy
  Lu  Lu1       1.0  0.9208990536513398  0.0783225663416403  0.6839237381552009  1.0000
  Lu  Lu2       1.0  0.07912564911170251  0.9216751776876251  0.3160668719461838  1.0000
  Mn  Mn1       1.0  8.229251093964161e-07  2.9708278078077033e-06  0.9999938424052318  1.0000
  H   H1        1.0  0.8292546008552011  0.360162676310793  0.07161399617949361  1.0000
  H   H2        1.0  0.1706831486892285  0.6398252757785413  0.9284060054579795  1.0000
  H   H3        1.0  0.6461544389880204  0.43352404471403366  0.02993258266474898  1.0000
  H   H4        1.0  0.3537646244575966  0.5664276152404357  0.9701057771804926  1.0000
  H   H5        1.0  0.8324924017596445  0.5057012091878192  0.9415956915746335  1.0000
  H   H6        1.0  0.16738142828680225  0.4942958591602107  0.0584553625686368  1.0000
  H   H7        1.0  0.7237281532306811  0.7381999845190919  0.06813888744316901  1.0000
  H   H8        1.0  0.27624686321179587  0.26179949175059397  0.9318103732747358  1.0000
  H   H9        1.0  0.5757025103001893  0.7365637326284897  0.9833549043740888  1.0000
  H   H10       1.0  0.42426714980482677  0.26346777947971134  0.01656908382227577  1.0000
  H   H11       1.0  0.5555722007865145  0.8885581048049858  0.08436205506093582  1.0000
  H   H12       1.0  0.4443940657224844  0.11144742663606169  0.9155991869849912  1.0000
  H   H13       1.0  0.4967287750528299  0.8700383294918764  0.5561853726480877  1.0000
  H   H14       1.0  0.5032768026602029  0.12997089508768767  0.44381535026451496  1.0000
  H   H15       1.0  0.45022762700597235  0.7215937125200825  0.6842238090647612  1.0000
  H   H16       1.0  0.549788943494299  0.2784046358738834  0.31578498560499924  1.0000
  H   H17       1.0  0.5321749707305514  0.8780635904935394  0.714496082824077  1.0000
  H   H18       1.0  0.46784337304849566  0.12192842221757869  0.2854977191140405  1.0000
  H   H19       1.0  0.20355225555349676  0.32060575636106853  0.25211711071473525  1.0000
  H   H20       1.0  0.7965136409854522  0.6794080018788335  0.7479053670567524  1.0000
  H   H21       1.0  0.25226158084100797  0.418168938017878  0.371775219937632  1.0000
  H   H22       1.0  0.7477904479466063  0.5818520413284745  0.6282622854727647  1.0000
  H   H23       1.0  0.05926045943896703  0.46610528463357787  0.3520205056167285  1.0000
  H   H24       1.0  0.9407839995780167  0.5338912129624943  0.6480111861659167  1.0000
  H   H25       1.0  0.6221109706082758  0.17563131583790442  0.6327057823169895  1.0000
  H   H26       1.0  0.37792382571122823  0.8243987577478293  0.36728529313869257  1.0000
  H   H27       1.0  0.7484369121522078  0.11932216719774402  0.4890885784869069  1.0000
  H   H28       1.0  0.25159026186902633  0.880683464859352  0.5108976467942979  1.0000
  C   C1        1.0  0.27871774532692234  0.9240518094224015  0.729919759591965  1.0000
  C   C2        1.0  0.7212957847260311  0.07593522141531389  0.27006721416889684  1.0000
  C   C3        1.0  0.7791363887972268  0.40262611595555603  0.9897737641222334  1.0000
  C   C4        1.0  0.22078242890897576  0.5973494504523131  0.010260954751366564  1.0000
  C   C5        1.0  0.6458351437773616  0.8076756528709271  0.015104511818243772  1.0000
  C   C6        1.0  0.3541305284123909  0.19232640983267402  0.9848563212639686  1.0000
  C   C7        1.0  0.8242646602117459  0.2871213227894245  0.8843097572356341  1.0000
  C   C8        1.0  0.17569604293637306  0.7128757600660193  0.1156977681065925  1.0000
  C   C9        1.0  0.7443127078776685  0.8958267393308007  0.8957031560724216  1.0000
  C   C10       1.0  0.2556682801663399  0.10417671529641842  0.10428236692821707  1.0000
  C   C11       1.0  0.45059098441774376  0.8453293938565949  0.6658179514100551  1.0000
  C   C12       1.0  0.549423821226881  0.15466152116888313  0.33417876487012416  1.0000
  C   C13       1.0  0.15645063766956474  0.3698980958132694  0.351075416283784  1.0000
  C   C14       1.0  0.84361732218386  0.6301090462049003  0.6489520848017918  1.0000
  C   C15       1.0  0.0880099536604533  0.25623277478847234  0.46220796314266005  1.0000
  C   C16       1.0  0.9120387899519715  0.7437701638688524  0.5378114197206472  1.0000
  O   O1        1.0  0.18877144975443377  0.967316141958229  0.6536568833848689  1.0000
  O   O2        1.0  0.8112481766443197  0.03267682130584859  0.3463317158056256  1.0000
  O   O3        1.0  0.04914318081461034  0.2886325898457898  0.5848228761775687  1.0000
  O   O4        1.0  0.9509051840302689  0.7113647238844152  0.41519915709011457  1.0000
  O   O5        1.0  0.8992419686256812  0.8948197102694166  0.873625132798146  1.0000
  O   O6        1.0  0.1007401718526211  0.10518473614503421  0.12638291112677538  1.0000
  O   O7        1.0  0.9576654550945917  0.1907865625951715  0.8673410737152024  1.0000
  O   O8        1.0  0.04230105821788042  0.8092156762541407  0.132676832640243  1.0000
  O   O9        1.0  0.6798712402495967  0.9744075482573326  0.8136497512872436  1.0000
  O   O10       1.0  0.32013021222957855  0.025604073349164504  0.1863287991428919  1.0000
  O   O11       1.0  0.7389473766421376  0.2833404507513819  0.808856900266015  1.0000
  O   O12       1.0  0.261049244008845  0.7166632161378744  0.19112567348528836  1.0000
  O   O13       1.0  0.061823343481464094  0.1255852246256595  0.4370874537510757  1.0000
  O   O14       1.0  0.9382218567471767  0.8744285087339351  0.5629181976792451  1.0000
  O   O15       1.0  0.7337113445583088  0.1746268666356912  0.5724442760180819  1.0000
  O   O16       1.0  0.26632676991430776  0.8253778265422795  0.4275412518796954  1.0000
  O   O17       1.0  0.23255503905052424  0.9405483310405885  0.8560047197411574  1.0000
  O   O18       1.0  0.7674507566208603  0.059417272346585996  0.14399427601870937  1.0000
