data_image0
_chemical_formula_structural       Hf6H20C68Br32O32
_chemical_formula_sum              "Hf6 H20 C68 Br32 O32"
_cell_length_a       15.513174261652436
_cell_length_b       17.360757361319656
_cell_length_c       17.598731701727793
_cell_angle_alpha    86.49103796852877
_cell_angle_beta     89.95618928075834
_cell_angle_gamma    89.72396134587856

_space_group_name_H-M_alt    "P 1"
_space_group_IT_number       1

loop_
  _space_group_symop_operation_xyz
  'x, y, z'

loop_
  _atom_site_type_symbol
  _atom_site_label
  _atom_site_symmetry_multiplicity
  _atom_site_fract_x
  _atom_site_fract_y
  _atom_site_fract_z
  _atom_site_occupancy
  Hf  Hf1       1.0  0.0123059822021361  0.14294947912864592  0.9920652889215162  1.0000
  Hf  Hf2       1.0  0.017737833907965198  0.9937852080373375  0.8667247228836531  1.0000
  Hf  Hf3       1.0  0.0074501343990292  0.009613445493144501  0.14828235340051782  1.0000
  Hf  Hf4       1.0  0.00040200778101960155  0.855469387840799  0.023801277112021096  1.0000
  Hf  Hf5       1.0  0.8497460321072979  0.004169789420224401  0.0030096541518816  1.0000
  Hf  Hf6       1.0  0.16950710452188392  0.9961020883915881  0.01148642007795789  1.0000
  H   H1        1.0  0.1440464107057622  0.1105385873108489  0.8900867384581019  1.0000
  H   H2        1.0  0.8841833408104166  0.88653419002965  0.8996498030069874  1.0000
  H   H3        1.0  0.12063297145677153  0.880459415369785  0.13567299614726386  1.0000
  H   H4        1.0  0.8877077300560289  0.12631979619892061  0.10835469159206211  1.0000
  H   H5        1.0  0.06830398034452398  0.8877351677959456  0.7773192277271762  1.0000
  H   H6        1.0  0.010001975760118903  0.825368341538983  0.8701661705604381  1.0000
  H   H7        1.0  0.949599605354095  0.7524225570056232  0.1269576361573925  1.0000
  H   H8        1.0  0.05147763192623961  0.9403977355851227  0.28390792967566364  1.0000
  H   H9        1.0  0.956891138185405  0.11554391096377968  0.24370563393507888  1.0000
  H   H10       1.0  0.9607333649285865  0.2819959102626657  0.049606971384427795  1.0000
  H   H11       1.0  0.964637427807972  0.2349531240759504  0.87487845598924  1.0000
  H   H12       1.0  0.020241014877889502  0.14636548038364344  0.8223707062280641  1.0000
  H   H13       1.0  0.9521634984957716  0.9229219061615126  0.27374986024862125  1.0000
  H   H14       1.0  0.06088225275860281  0.269048746584815  0.0677761770126253  1.0000
  H   H15       1.0  0.08404773249682052  0.10580322330871181  0.7623497306269726  1.0000
  H   H16       1.0  0.0533730142768079  0.7543982349983764  0.9193460772625314  1.0000
  H   H17       1.0  0.6644952634951693  0.503719047398981  0.9620527919856484  1.0000
  H   H18       1.0  0.3511566438685989  0.4985050445529708  0.9765490207855834  1.0000
  H   H19       1.0  0.35592495225884596  0.015001807903935606  0.5097024620846966  1.0000
  H   H20       1.0  0.671940297048522  0.9989968733805484  0.5030775235306066  1.0000
  C   C1        1.0  0.8075757709955128  0.18742460085567816  0.9753292541965877  1.0000
  C   C2        1.0  0.23173206684773362  0.9930757912031823  0.8385800220059849  1.0000
  C   C3        1.0  0.8133668042024028  0.008448033111001502  0.8242211021490392  1.0000
  C   C4        1.0  0.21758802890486353  0.18011955931483936  0.004684485435141998  1.0000
  C   C5        1.0  0.22062648543102636  0.009309205837929803  0.18450187788304365  1.0000
  C   C6        1.0  0.7912713026043081  0.8262974269164121  0.020891549522460195  1.0000
  C   C7        1.0  0.20562266822752662  0.8137766806384477  0.01184191671820401  1.0000
  C   C8        1.0  0.7955196646609936  0.006387790362850902  0.176901398615783  1.0000
  C   C9        1.0  0.5540143116529848  0.4322841146488017  0.9436788832541367  1.0000
  C   C10       1.0  0.4635503011623712  0.4311360520997455  0.9574885394519442  1.0000
  C   C11       1.0  0.4209231000635185  0.500519651549219  0.969312426719732  1.0000
  C   C12       1.0  0.461519878815551  0.5714240536163687  0.9747228324481442  1.0000
  C   C13       1.0  0.5526427363531852  0.5709934563229312  0.9752955590511051  1.0000
  C   C14       1.0  0.5946742493418641  0.5023919759081464  0.9598463459176898  1.0000
  C   C15       1.0  0.4703215921924979  0.0071669864115407  0.5781513995136152  1.0000
  C   C16       1.0  0.5616448341164145  0.0019147703262732006  0.576002303197015  1.0000
  C   C17       1.0  0.6017480991174651  0.0016365858597708997  0.5046368618330918  1.0000
  C   C18       1.0  0.5575613318095024  0.006192935477216101  0.4351270749616276  1.0000
  C   C19       1.0  0.46641696761478363  0.012231417588495204  0.4366538769364966  1.0000
  C   C20       1.0  0.4261075597193766  0.012007973158468103  0.5082898643888215  1.0000
  C   C21       1.0  0.28824059311556743  0.07648309380564201  0.29482933200664974  1.0000
  C   C22       1.0  0.2922430224291902  0.019161753557860102  0.24159206942783132  1.0000
  C   C23       1.0  0.36089137943873345  0.9661904635684878  0.247625048543199  1.0000
  C   C24       1.0  0.4093768501799673  0.9591084952879927  0.31526498157589344  1.0000
  C   C25       1.0  0.41016843018669386  0.01766868330614811  0.36720401325607815  1.0000
  C   C26       1.0  0.3514551910499577  0.07963317037820163  0.3517639909080899  1.0000
  C   C27       1.0  0.6597167331062791  0.9386947517674645  0.3474456364944132  1.0000
  C   C28       1.0  0.6125346324692913  0.0053743096039867  0.3649108010604252  1.0000
  C   C29       1.0  0.6263869699597251  0.07303949605955751  0.3177543516128837  1.0000
  C   C30       1.0  0.6845093990083272  0.0739220765125879  0.2563653649856335  1.0000
  C   C31       1.0  0.7266624991979284  0.0063427248221899005  0.23774489015064407  1.0000
  C   C32       1.0  0.7117166736768468  0.9383693139566703  0.2824304542360707  1.0000
  C   C33       1.0  0.361453654739016  0.06974154088670302  0.6650465814943871  1.0000
  C   C34       1.0  0.41711336121453263  0.007433710430923702  0.6496444060683687  1.0000
  C   C35       1.0  0.4161926243013738  0.9440185045281171  0.703758893381739  1.0000
  C   C36       1.0  0.365797681271296  0.9433422866950848  0.7705011892661986  1.0000
  C   C37       1.0  0.3033882373187993  0.0005630651949460002  0.7793740677824701  1.0000
  C   C38       1.0  0.30539442255170707  0.065129138592674  0.7275857628470775  1.0000
  C   C39       1.0  0.6340620736983739  0.06796890182429392  0.6830008009236437  1.0000
  C   C40       1.0  0.6217230481216376  0.000774376096544  0.6429601146250263  1.0000
  C   C41       1.0  0.6774375219075424  0.9375797715915367  0.6617454865137874  1.0000
  C   C42       1.0  0.7388932999708118  0.9402471253890354  0.7201179477672144  1.0000
  C   C43       1.0  0.7475522766121828  0.006481315340600702  0.7609167194622587  1.0000
  C   C44       1.0  0.6961032451738874  0.0707739745286844  0.7406709383373311  1.0000
  C   C45       1.0  0.3157513170876527  0.7174166586546564  0.0652837250566378  1.0000
  C   C46       1.0  0.2704727434131513  0.7497535899086288  0.0022162331917741007  1.0000
  C   C47       1.0  0.2829546541067245  0.7188969214500319  0.9314408114309956  1.0000
  C   C48       1.0  0.3471175852745104  0.6630966333575616  0.9218107684326357  1.0000
  C   C49       1.0  0.40114000083939066  0.6376320615171807  0.9831306975157119  1.0000
  C   C50       1.0  0.3829047386809847  0.6646183950096403  0.055405187377850496  1.0000
  C   C51       1.0  0.6610426539486413  0.7695129309378431  0.9570539302288169  1.0000
  C   C52       1.0  0.7211121961456968  0.7652152540243906  0.017152355576911298  1.0000
  C   C53       1.0  0.7211322020332744  0.697645776130351  0.0659981335371072  1.0000
  C   C54       1.0  0.6637598759306728  0.6367826155572162  0.0551344690137228  1.0000
  C   C55       1.0  0.6078241961633211  0.6386019818642837  0.9916553616722936  1.0000
  C   C56       1.0  0.6108287305322124  0.7049512658175204  0.941736472571762  1.0000
  C   C57       1.0  0.27426928630708863  0.2984609122957664  0.9314839457149732  1.0000
  C   C58       1.0  0.2825587683979195  0.24468608560674457  0.9942631087107118  1.0000
  C   C59       1.0  0.3513098020071013  0.2522583837135812  0.045111936373288614  1.0000
  C   C60       1.0  0.4094520730024983  0.31375982095097754  0.0341410719985049  1.0000
  C   C61       1.0  0.4049019237707583  0.3640858122271027  0.9685243359907575  1.0000
  C   C62       1.0  0.33666330379221426  0.3551774105196941  0.917210504282238  1.0000
  C   C63       1.0  0.6518089154544455  0.2312830798253458  0.9538211423450563  1.0000
  C   C64       1.0  0.7408222164207245  0.2478262180728167  0.9523547842477457  1.0000
  C   C65       1.0  0.7629787123300389  0.32225725117024234  0.9188471055762548  1.0000
  C   C66       1.0  0.7003879331211849  0.37940977987300073  0.9052351236164853  1.0000
  C   C67       1.0  0.6111696329230086  0.36723202823404233  0.9250160068266594  1.0000
  C   C68       1.0  0.5905161769444335  0.2873787565290656  0.9280159903716978  1.0000
  Br  Br1       1.0  0.3563947345981049  0.16903404373578473  0.4077451078431197  1.0000
  Br  Br2       1.0  0.19946513920853448  0.15145003887561612  0.2855231192454255  1.0000
  Br  Br3       1.0  0.4642242507868559  0.8635382498080592  0.3400007472222697  1.0000
  Br  Br4       1.0  0.39126448793368235  0.905090048996648  0.1665592512238518  1.0000
  Br  Br5       1.0  0.7621895387241295  0.8459466772193454  0.2503121686700069  1.0000
  Br  Br6       1.0  0.6603084484128773  0.8487782911274028  0.41386602160146424  1.0000
  Br  Br7       1.0  0.7121456241033856  0.16753900455260157  0.19997986419402744  1.0000
  Br  Br8       1.0  0.5705121819854995  0.16531547548801484  0.3418798591392971  1.0000
  Br  Br9       1.0  0.23865598062069893  0.15285333021446956  0.7522932062519915  1.0000
  Br  Br10      1.0  0.35822111259107464  0.16048282406610076  0.6000325386098666  1.0000
  Br  Br11      1.0  0.38610443012714063  0.8678701266406181  0.8502006056612857  1.0000
  Br  Br12      1.0  0.47772855546184456  0.8534853609374411  0.6834271464360243  1.0000
  Br  Br13      1.0  0.7171809598659921  0.16319174932858974  0.7890400218882193  1.0000
  Br  Br14      1.0  0.5708843541633329  0.15831505979600993  0.6540074153264899  1.0000
  Br  Br15      1.0  0.8138665872996712  0.8556410796784493  0.7442414733254807  1.0000
  Br  Br16      1.0  0.6748238182873721  0.8476747068337078  0.6062845261532959  1.0000
  Br  Br17      1.0  0.4453295165991377  0.6233203432351218  0.1407763947712297  1.0000
  Br  Br18      1.0  0.27404433879203083  0.7363008671177981  0.16358049996892285  1.0000
  Br  Br19      1.0  0.35706107598882403  0.6193006911260286  0.8263393471135743  1.0000
  Br  Br20      1.0  0.2062398033251753  0.7482036707553804  0.8503456687243018  1.0000
  Br  Br21      1.0  0.5526160527659058  0.7035807313813579  0.8476157087058453  1.0000
  Br  Br22      1.0  0.6476154350442227  0.8606483124699553  0.8937436423771247  1.0000
  Br  Br23      1.0  0.6634704365439675  0.5486542527195511  0.1248840114078078  1.0000
  Br  Br24      1.0  0.7982400756719201  0.687674355055691  0.1501509710296887  1.0000
  Br  Br25      1.0  0.3366854661720637  0.4144140614359273  0.8233568164419938  1.0000
  Br  Br26      1.0  0.1785370519170897  0.29396909124868403  0.8652140666320278  1.0000
  Br  Br27      1.0  0.4964522420822704  0.3288070775179079  0.10719345806814572  1.0000
  Br  Br28      1.0  0.3632636889723456  0.18091422092710732  0.1298751839033301  1.0000
  Br  Br29      1.0  0.49292360791526585  0.25044250789878936  0.8771990065724682  1.0000
  Br  Br30      1.0  0.6041452833870481  0.13669304847642397  0.9932039780363694  1.0000
  Br  Br31      1.0  0.7279336987172088  0.4681065948762679  0.8396276875724666  1.0000
  Br  Br32      1.0  0.876941946151149  0.3477823049563114  0.8848807025717135  1.0000
  O   O1        1.0  0.8847557712998795  0.21039740659570338  0.9841911461618693  1.0000
  O   O2        1.0  0.78462179653026  0.11757318319639148  0.9838141516932881  1.0000
  O   O3        1.0  0.15623914877861722  0.9869215986971656  0.8113070672091355  1.0000
  O   O4        1.0  0.2517785810224495  0.9945568932670383  0.9082520266223925  1.0000
  O   O5        1.0  0.8913704045678514  0.011559190503966501  0.8040465021667416  1.0000
  O   O6        1.0  0.7831748622945228  0.0046926769408344015  0.8916584779809398  1.0000
  O   O7        1.0  0.13941235381032163  0.2021154860727279  0.012149180839344402  1.0000
  O   O8        1.0  0.24424959840490604  0.11174782850940093  0.0017019722279130005  1.0000
  O   O9        1.0  0.0143744300656934  0.2010315125362396  0.8839948391274818  1.0000
  O   O10       1.0  0.0035840559799283  0.24564960900471533  0.0714290551512917  1.0000
  O   O11       1.0  0.027903382185229503  0.09936061280625101  0.7871971638690597  1.0000
  O   O12       1.0  0.017671418360841105  0.8932601184313782  0.8091143599510958  1.0000
  O   O13       1.0  0.9467153028276203  0.05865300683149851  0.9424281421608285  1.0000
  O   O14       1.0  0.1062284538699174  0.078648095333115  0.9228873299987724  1.0000
  O   O15       1.0  0.14525157441821795  0.0022688387327676005  0.21123763615708677  1.0000
  O   O16       1.0  0.2421996300990088  0.0058151411155478  0.1150133328287737  1.0000
  O   O17       1.0  0.8673275751707977  0.7996411104183565  0.022422807392821716  1.0000
  O   O18       1.0  0.7699215876274508  0.8972420285984343  0.018204432533899296  1.0000
  O   O19       1.0  0.12788678027865794  0.7932033557353577  0.013185923359699796  1.0000
  O   O20       1.0  0.23605443528855122  0.8811002410816188  0.017401234649611304  1.0000
  O   O21       1.0  0.8716519603376439  0.00011096858562349997  0.2029191703306807  1.0000
  O   O22       1.0  0.7723867594957171  0.013794836170653505  0.1077737289934149  1.0000
  O   O23       1.0  0.008961853821716706  0.9191861873082914  0.24998390049896813  1.0000
  O   O24       1.0  0.007304161730395701  0.09207623476194021  0.22214519042483968  1.0000
  O   O25       1.0  0.0018394101567196011  0.7809796167108872  0.11418162776936211  1.0000
  O   O26       1.0  0.0017945361246205019  0.7870161336438956  0.9171893902924779  1.0000
  O   O27       1.0  0.09184150722534673  0.9168372814982535  0.099807689477089  1.0000
  O   O28       1.0  0.9356384918410613  0.9455640503875176  0.0717973782170986  1.0000
  O   O29       1.0  0.07919453494488239  0.062013679673633235  0.0633727889112095  1.0000
  O   O30       1.0  0.9194455648015919  0.9181342122853806  0.9311320757402229  1.0000
  O   O31       1.0  0.9232351146876567  0.09187372294939422  0.0800140814249843  1.0000
  O   O32       1.0  0.07803934987033048  0.9379578345256337  0.9570870618946615  1.0000
