data_image0
_chemical_formula_structural       Ag4H12C20O12
_chemical_formula_sum              "Ag4 H12 C20 O12"
_cell_length_a       4.4063561460226035
_cell_length_b       6.086231374669526
_cell_length_c       23.631859779439772
_cell_angle_alpha    90.0019664347998
_cell_angle_beta     89.99703455649997
_cell_angle_gamma    119.15334384327502

_space_group_name_H-M_alt    "P 1"
_space_group_IT_number       1

loop_
  _space_group_symop_operation_xyz
  'x, y, z'

loop_
  _atom_site_type_symbol
  _atom_site_label
  _atom_site_symmetry_multiplicity
  _atom_site_fract_x
  _atom_site_fract_y
  _atom_site_fract_z
  _atom_site_occupancy
  Ag  Ag1       1.0  0.8571134921842684  0.1422577119864812  0.5245151241202706  1.0000
  Ag  Ag2       1.0  0.642886609574944  0.3577440626513421  0.024502927967318996  1.0000
  Ag  Ag3       1.0  0.14283932474864974  0.857705456201735  0.47548863399137536  1.0000
  Ag  Ag4       1.0  0.35721116249686685  0.6423300501603177  0.9754851732878506  1.0000
  H   H1        1.0  0.2063186777893691  0.5470848023230913  0.6796824607499161  1.0000
  H   H2        1.0  0.29359013273040824  0.9528746897543812  0.1796760382054643  1.0000
  H   H3        1.0  0.7936429028157973  0.4529004501187116  0.320324259498932  1.0000
  H   H4        1.0  0.7063675390560532  0.04708900973452047  0.8203095241229689  1.0000
  H   H5        1.0  0.1098875621247544  0.1291144293346136  0.7385915531780755  1.0000
  H   H6        1.0  0.39008929198472225  0.37086578794785646  0.23859494507002674  1.0000
  H   H7        1.0  0.8901506989079521  0.8709003522351251  0.2614155901459227  1.0000
  H   H8        1.0  0.6099476819541039  0.6290731600590929  0.7614092359763517  1.0000
  H   H9        1.0  0.45192598963161146  0.936082992441264  0.6738932433460292  1.0000
  H   H10       1.0  0.04809486859687696  0.5639304662741437  0.17390247531889  1.0000
  H   H11       1.0  0.5480180578126974  0.06388097464466817  0.3261088221545876  1.0000
  H   H12       1.0  0.9519924565046196  0.43610905744388617  0.826117362692699  1.0000
  C   C1        1.0  0.2520462752466273  0.2022009310407782  0.6994497925680676  1.0000
  C   C2        1.0  0.24796008549183313  0.2977998333915081  0.1994508653310731  1.0000
  C   C3        1.0  0.747990492178495  0.7978154472107943  0.30055988970794084  1.0000
  C   C4        1.0  0.7520621346991588  0.7021920663082568  0.8005554316560007  1.0000
  C   C5        1.0  0.5054913585686833  0.44027235521034674  0.6226361733364527  1.0000
  C   C6        1.0  0.994516862839319  0.0597204994422498  0.1226330433410041  1.0000
  C   C7        1.0  0.4943913070691649  0.5596743211648344  0.3773586985665318  1.0000
  C   C8        1.0  0.0055111373305083075  0.9402966774162848  0.8773639442275255  1.0000
  C   C9        1.0  0.3081220847394662  0.42192205048988285  0.6693416890828345  1.0000
  C   C10       1.0  0.19190881210843  0.07809255424119499  0.1693339160741658  1.0000
  C   C11       1.0  0.691878305832823  0.5780674561147093  0.33066164583887314  1.0000
  C   C12       1.0  0.8081162082946277  0.9219049326172523  0.8306588398786731  1.0000
  C   C13       1.0  0.4163653108110024  0.09888953971434936  0.6691447982173457  1.0000
  C   C14       1.0  0.08360931918500104  0.40109951556800616  0.16915377360939488  1.0000
  C   C15       1.0  0.5836117572221795  0.9010991703874466  0.3308547283305643  1.0000
  C   C16       1.0  0.9164714803916708  0.5989269703654683  0.8308567549183863  1.0000
  C   C17       1.0  0.6690453648595633  0.6289853980883674  0.5775471613269048  1.0000
  C   C18       1.0  0.8309511346956454  0.8710470594695108  0.0775359770647128  1.0000
  C   C19       1.0  0.3308447593921855  0.37097617849859427  0.4224540579595057  1.0000
  C   C20       1.0  0.1691147222649576  0.1290640413160276  0.9224500085521754  1.0000
  O   O1        1.0  0.5698954679336623  0.24045107271986405  0.6224053813160353  1.0000
  O   O2        1.0  0.9300936287774701  0.25953086218478916  0.12241444205007208  1.0000
  O   O3        1.0  0.42999261006986694  0.7594926762383164  0.3775865284665372  1.0000
  O   O4        1.0  0.06997428981892279  0.7405294170440155  0.8775872002734886  1.0000
  O   O5        1.0  0.6339106699072871  0.823898714558936  0.5822684320426177  1.0000
  O   O6        1.0  0.8660604151912139  0.6760733278289307  0.0822688923558204  1.0000
  O   O7        1.0  0.3659930761097242  0.17606259476647065  0.417728978798273  1.0000
  O   O8        1.0  0.1339528437224686  0.32395103430800276  0.9177234405255136  1.0000
  O   O9        1.0  0.8330275487968137  0.5808551336400782  0.5394134587071874  1.0000
  O   O10       1.0  0.6670096254727368  0.9191569468249979  0.0394052628588568  1.0000
  O   O11       1.0  0.16689336379865682  0.4190992563312504  0.4605898762893971  1.0000
  O   O12       1.0  0.33311818501607593  0.08092221931555338  0.9605879162394686  1.0000
