data_image0
_chemical_formula_structural       Co4H34C56N6O16
_chemical_formula_sum              "Co4 H34 C56 N6 O16"
_cell_length_a       9.543223014956281
_cell_length_b       13.614412480165331
_cell_length_c       15.320523086455355
_cell_angle_alpha    90.21020883953967
_cell_angle_beta     104.65563123601748
_cell_angle_gamma    104.80425499547812

_space_group_name_H-M_alt    "P 1"
_space_group_IT_number       1

loop_
  _space_group_symop_operation_xyz
  'x, y, z'

loop_
  _atom_site_type_symbol
  _atom_site_label
  _atom_site_symmetry_multiplicity
  _atom_site_fract_x
  _atom_site_fract_y
  _atom_site_fract_z
  _atom_site_occupancy
  Co  Co1       1.0  0.8126356238996877  0.5059303559397107  0.9171894056842619  1.0000
  Co  Co2       1.0  0.18734570193602454  0.4940595642449709  0.0828016275129286  1.0000
  Co  Co3       1.0  0.6854575617192395  0.5622648697291835  0.6172258659615579  1.0000
  Co  Co4       1.0  0.3145733618921227  0.43773040310812666  0.38278211309603455  1.0000
  H   H1        1.0  0.6879455243595772  0.814341930196676  0.044904946103827115  1.0000
  H   H2        1.0  0.3120387882846671  0.18565635018165952  0.9550780874581264  1.0000
  H   H3        1.0  0.7085121061936945  0.3154072375602511  0.006814009586783201  1.0000
  H   H4        1.0  0.2914918485625648  0.6845913872434297  0.9931877779291939  1.0000
  H   H5        1.0  0.6556809324819214  0.05375376156905529  0.5623274097000248  1.0000
  H   H6        1.0  0.34431213581312653  0.9462265409765679  0.43768503258295505  1.0000
  H   H7        1.0  0.8441107164839395  0.7744114430171153  0.6666050335129654  1.0000
  H   H8        1.0  0.1558951725683855  0.2255834589350556  0.3334133689107119  1.0000
  H   H9        1.0  0.9224664930535837  0.6949704518290859  0.8292820986107613  1.0000
  H   H10       1.0  0.0775140022041114  0.3050292769040156  0.1706977267263241  1.0000
  H   H11       1.0  0.808973335485959  0.9475680747318904  0.6337534578357592  1.0000
  H   H12       1.0  0.1910164826957725  0.052421275509502215  0.3662650181821405  1.0000
  H   H13       1.0  0.41360374045110854  0.6349262320753654  0.5112227251114305  1.0000
  H   H14       1.0  0.5864040317143591  0.3650527854268902  0.4887894154489132  1.0000
  H   H15       1.0  0.897666086474061  0.3645460881870407  0.7901142405418468  1.0000
  H   H16       1.0  0.1023370407390018  0.6354532689771872  0.20988154380629706  1.0000
  H   H17       1.0  0.9197177322555419  0.18736005459805233  0.7840109799707734  1.0000
  H   H18       1.0  0.08027559587610979  0.8126361277368164  0.2159884794565912  1.0000
  H   H19       1.0  0.7082466569592967  0.6363010890542072  0.0347070677979389  1.0000
  H   H20       1.0  0.29174529267152854  0.36369732351506917  0.9652823884176768  1.0000
  H   H21       1.0  0.9171264238033314  0.8756513167477633  0.8324053494821655  1.0000
  H   H22       1.0  0.0828292788188847  0.12434271595788  0.1675705671118521  1.0000
  H   H23       1.0  0.3590529875476278  0.7975227372829111  0.4737765499707791  1.0000
  H   H24       1.0  0.6409515060948864  0.20245621755836402  0.5262298532785223  1.0000
  H   H25       1.0  0.7145578334511099  0.13558625479121392  0.0075121168955049975  1.0000
  H   H26       1.0  0.2854349352570864  0.8644114162181964  0.9924787720968806  1.0000
  H   H27       1.0  0.8844020045678606  0.022751331096664305  0.8389663348739304  1.0000
  H   H28       1.0  0.11558721628825448  0.9772455196235939  0.1610207311615568  1.0000
  H   H29       1.0  0.7381149159067918  0.9836433659647383  0.9978173635413157  1.0000
  H   H30       1.0  0.26184569492730253  0.016349237082820895  0.0021625855262356903  1.0000
  H   H31       1.0  0.09692821547464806  0.49974298374125686  0.571884982734332  1.0000
  H   H32       1.0  0.9030880092865986  0.5002687120707564  0.4281200645005185  1.0000
  H   H33       1.0  0.3926737456326564  0.5175783418799257  0.8887093324707466  1.0000
  H   H34       1.0  0.6073267009538127  0.4824406912215622  0.111301733776024  1.0000
  C   C1        1.0  0.7423040073941749  0.7916865962581313  0.9963953485826309  1.0000
  C   C2        1.0  0.2576797655877456  0.2083071412775936  0.0035921603966499803  1.0000
  C   C3        1.0  0.7560012956529576  0.28412048642111637  0.9590556317990105  1.0000
  C   C4        1.0  0.2440032018004601  0.7158736050373165  0.04094688499190371  1.0000
  C   C5        1.0  0.5609566671558496  0.9900337249081871  0.5285929406083056  1.0000
  C   C6        1.0  0.4390470279691386  0.009945993834158203  0.47142312938537145  1.0000
  C   C7        1.0  0.3592527622140409  0.4693242320295283  0.5789408877756017  1.0000
  C   C8        1.0  0.6407656373520964  0.5306814407465481  0.42106448972268845  1.0000
  C   C9        1.0  0.9380170743972869  0.5303488156190498  0.6839479637817406  1.0000
  C   C10       1.0  0.062017651243778  0.4696752571282303  0.3160430452367748  1.0000
  C   C11       1.0  0.5802665574296739  0.8897795555479037  0.5500831038594853  1.0000
  C   C12       1.0  0.4197341436077124  0.11020995406232711  0.44992990347187595  1.0000
  C   C13       1.0  0.738134873360039  0.7842167418106886  0.625082138329752  1.0000
  C   C14       1.0  0.2618696563365575  0.215783437674979  0.3749354078682359  1.0000
  C   C15       1.0  0.8739853258144165  0.7255108381763337  0.8770027167129584  1.0000
  C   C16       1.0  0.1259984441326694  0.2744919755472566  0.1229795875740578  1.0000
  C   C17       1.0  0.7173701471168529  0.8798712005830539  0.6060833864295319  1.0000
  C   C18       1.0  0.2826188566197771  0.12012192274704601  0.3939349688415419  1.0000
  C   C19       1.0  0.49812138676303874  0.705466282385771  0.5389488054276015  1.0000
  C   C20       1.0  0.5018844952382152  0.2945255854091969  0.4610669791401136  1.0000
  C   C21       1.0  0.8639838049476937  0.31260031928555077  0.8395463654324757  1.0000
  C   C22       1.0  0.13601932146666235  0.6873929840203348  0.1604513652468285  1.0000
  C   C23       1.0  0.8727834028396587  0.21256615153709651  0.8353259780938629  1.0000
  C   C24       1.0  0.12721591686741368  0.7874316382233176  0.1646731209555696  1.0000
  C   C25       1.0  0.7526445436651131  0.6921293539905095  0.9910350248430221  1.0000
  C   C26       1.0  0.24735040286015672  0.3078713767417652  0.0089542542855909  1.0000
  C   C27       1.0  0.8011163761806513  0.8626266950415911  0.9394935290038404  1.0000
  C   C28       1.0  0.19886085810176016  0.13736391061291905  0.06049359867057551  1.0000
  C   C29       1.0  0.8687759303564349  0.8260796682480915  0.8789074575570835  1.0000
  C   C30       1.0  0.13119722163720837  0.1739176859339224  0.1210783886544604  1.0000
  C   C31       1.0  0.46899487627378267  0.7980927654148644  0.5172321419185479  1.0000
  C   C32       1.0  0.5310090887737218  0.20189679108608521  0.4827787677677549  1.0000
  C   C33       1.0  0.7595223985215327  0.18317617346131246  0.9586771130968045  1.0000
  C   C34       1.0  0.2404717424351333  0.8168222870148227  0.041319214920214585  1.0000
  C   C35       1.0  0.8217893753331255  0.14422730431164152  0.8963502610828584  1.0000
  C   C36       1.0  0.1781971393162394  0.8557740620733298  0.10364422087548059  1.0000
  C   C37       1.0  0.8339750201069549  0.040506813830909  0.8916655541479273  1.0000
  C   C38       1.0  0.16600903872505063  0.9594937522757834  0.1083265820151809  1.0000
  C   C39       1.0  0.7890608621538322  0.9663444095938446  0.9451882128747684  1.0000
  C   C40       1.0  0.21090709961140422  0.03364452334577091  0.054792232040533406  1.0000
  C   C41       1.0  0.11464962951836101  0.5249862505535532  0.8795310857959747  1.0000
  C   C42       1.0  0.8853548727500212  0.47502600510829757  0.12046689782747678  1.0000
  C   C43       1.0  0.5594896390617238  0.5073160857044101  0.7832131667177649  1.0000
  C   C44       1.0  0.4405159703702211  0.4926871269223271  0.21679802788971608  1.0000
  C   C45       1.0  0.3961198201164606  0.5041010425321559  0.7498764332159809  1.0000
  C   C46       1.0  0.6038909585733663  0.4959166215399407  0.25012646392243454  1.0000
  C   C47       1.0  0.3087120028461214  0.4957405440666633  0.6591661392477164  1.0000
  C   C48       1.0  0.6913009363411008  0.5042680549271668  0.3408305528201296  1.0000
  C   C49       1.0  0.16202796383190324  0.5061586954660056  0.6421541328666223  1.0000
  C   C50       1.0  0.8379890725449571  0.4938552771730826  0.3578471300448598  1.0000
  C   C51       1.0  0.09687890192193287  0.5217030339695583  0.7112624234960805  1.0000
  C   C52       1.0  0.9031397578914947  0.4783124660516196  0.2887325703907706  1.0000
  C   C53       1.0  0.18056967409538774  0.522896458017769  0.801481538369849  1.0000
  C   C54       1.0  0.8194364598700333  0.47712036049755824  0.1985134469979428  1.0000
  C   C55       1.0  0.3282156035843968  0.5152251611584546  0.8187662615426632  1.0000
  C   C56       1.0  0.6717995416241962  0.4847986341870723  0.18123929208527303  1.0000
  N   N1        1.0  0.8101869915463381  0.34994515340497406  0.9021410675848995  1.0000
  N   N2        1.0  0.1898139548374758  0.6500420612775812  0.09785826675424399  1.0000
  N   N3        1.0  0.8173853357783403  0.6583642644411825  0.9324353324356238  1.0000
  N   N4        1.0  0.18261097674304244  0.34164027545896397  0.0675548215304858  1.0000
  N   N5        1.0  0.6309023530706169  0.6970400325566787  0.5921255826209801  1.0000
  N   N6        1.0  0.3691065367097082  0.3029541652289822  0.407895901076806  1.0000
  O   O1        1.0  0.9853496183491615  0.5410463315601037  0.8651686705368818  1.0000
  O   O2        1.0  0.014643991205645092  0.4589506215448225  0.1348354036664432  1.0000
  O   O3        1.0  0.8318104381486221  0.4500238822447003  0.6618627183934008  1.0000
  O   O4        1.0  0.1682270221088302  0.5500047851946235  0.3381326457482032  1.0000
  O   O5        1.0  0.9154589745935412  0.6194106195757743  0.6777644117564917  1.0000
  O   O6        1.0  0.08457631409918781  0.38061196843953843  0.322237126436022  1.0000
  O   O7        1.0  0.1921600106390855  0.5086426986481811  0.9563051119853299  1.0000
  O   O8        1.0  0.8078226908679582  0.4913510412178753  0.04369201935342914  1.0000
  O   O9        1.0  0.4904171812037035  0.45661815064514133  0.5894865182863284  1.0000
  O   O10       1.0  0.5096194773413457  0.5433870652618538  0.41052629792429224  1.0000
  O   O11       1.0  0.2644847625832369  0.4589133334130864  0.5020507486198724  1.0000
  O   O12       1.0  0.7355273805052677  0.5410960321101828  0.4979569160183602  1.0000
  O   O13       1.0  0.5938836124743504  0.4618518144128458  0.8561177303621577  1.0000
  O   O14       1.0  0.4061018174193692  0.5381313808997277  0.14388633673205928  1.0000
  O   O15       1.0  0.6594581727040776  0.5599958610166951  0.7494879613751805  1.0000
  O   O16       1.0  0.34055780449728  0.44001510082253514  0.25053075264795416  1.0000
