data_image0
_chemical_formula_structural       Cd4H28C48Br8N8O18
_chemical_formula_sum              "Cd4 H28 C48 Br8 N8 O18"
_cell_length_a       11.706745208530466
_cell_length_b       11.706745025667576
_cell_length_c       14.770823899565562
_cell_angle_alpha    109.1227519206393
_cell_angle_beta     109.12272799348509
_cell_angle_gamma    98.49008500394899

_space_group_name_H-M_alt    "P 1"
_space_group_IT_number       1

loop_
  _space_group_symop_operation_xyz
  'x, y, z'

loop_
  _atom_site_type_symbol
  _atom_site_label
  _atom_site_symmetry_multiplicity
  _atom_site_fract_x
  _atom_site_fract_y
  _atom_site_fract_z
  _atom_site_occupancy
  Cd  Cd1       1.0  0.023256480657359108  0.7804145392655356  0.7861497843480763  1.0000
  Cd  Cd2       1.0  0.219585042147365  0.9767431719019654  0.7138504298913091  1.0000
  Cd  Cd3       1.0  0.9767436654586064  0.21958454580119013  0.21385063441421434  1.0000
  Cd  Cd4       1.0  0.7804153740827714  0.023256857612111  0.28614962796336846  1.0000
  H   H1        1.0  0.26536844497665857  0.7989268964372298  0.818004492777149  1.0000
  H   H2        1.0  0.2010737582146973  0.7346320354921829  0.6819955047623125  1.0000
  H   H3        1.0  0.7346319712534779  0.20107313307684646  0.1819955650775214  1.0000
  H   H4        1.0  0.7989266580154465  0.26536799402189354  0.318004553092365  1.0000
  H   H5        1.0  0.0319312931533275  0.11802490577763082  0.017364120346869107  1.0000
  H   H6        1.0  0.8819746855031455  0.9680679578072002  0.4826358554760262  1.0000
  H   H7        1.0  0.9680691230768089  0.8819751237364457  0.9826359375078083  1.0000
  H   H8        1.0  0.11802546061282021  0.031931127259532795  0.5173645632862645  1.0000
  H   H9        1.0  0.4306557863032551  0.1965769419321433  0.08822273892864267  1.0000
  H   H10       1.0  0.8034231221680272  0.5693435562131484  0.41177801141221687  1.0000
  H   H11       1.0  0.5693437246613088  0.8034230861310975  0.9117777599539211  1.0000
  H   H12       1.0  0.19657611973809  0.430655528458324  0.5882221719164917  1.0000
  H   H13       1.0  0.2834284684427146  0.3017299748511988  0.328529500807953  1.0000
  H   H14       1.0  0.698270006638289  0.7165711110398547  0.1714706516175896  1.0000
  H   H15       1.0  0.7165710435775738  0.698270054267624  0.6714703216131355  1.0000
  H   H16       1.0  0.3017295053820063  0.28342891807896825  0.8285291708034991  1.0000
  H   H17       1.0  0.5297025980115961  0.9063557588098162  0.08870099643254997  1.0000
  H   H18       1.0  0.09364465306655487  0.47029700299319893  0.41129932887349696  1.0000
  H   H19       1.0  0.4702971830671459  0.09364521370077479  0.9112991415424005  1.0000
  H   H20       1.0  0.9063557631635817  0.5297030265208774  0.5887007289811805  1.0000
  H   H21       1.0  0.1957595945870452  0.901304873608325  0.1529213470969993  1.0000
  H   H22       1.0  0.09869529708250718  0.8042398404509896  0.3470789229658493  1.0000
  H   H23       1.0  0.8042399174332501  0.098695155510498  0.8470784753240962  1.0000
  H   H24       1.0  0.9013051191476363  0.19576018906309398  0.6529211348888283  1.0000
  H   H25       1.0  0.5738083451207601  0.0533949669591536  0.39862932742369844  1.0000
  H   H26       1.0  0.9466054318116548  0.4261915424154381  0.10137093069614174  1.0000
  H   H27       1.0  0.4261911668995353  0.9466050621596764  0.6013704949973899  1.0000
  H   H28       1.0  0.053394983362757366  0.5738084860430561  0.8986298036200112  1.0000
  C   C1        1.0  0.13017391515936083  0.1576784060627716  0.0728492151740596  1.0000
  C   C2        1.0  0.8423207929335775  0.8698250123497219  0.4271505653347348  1.0000
  C   C3        1.0  0.8698255968609345  0.8423216230560513  0.9271506072470288  1.0000
  C   C4        1.0  0.1576784489725398  0.13017407232175057  0.572849617993974  1.0000
  C   C5        1.0  0.22766461039658734  0.15005733450629316  0.03847418098717268  1.0000
  C   C6        1.0  0.8499413230678668  0.7723348839184255  0.46152626692840937  1.0000
  C   C7        1.0  0.7723355357193783  0.8499417505604399  0.961526237775118  1.0000
  C   C8        1.0  0.150057014628409  0.2276642003577933  0.5384736809667103  1.0000
  C   C9        1.0  0.3524940803015397  0.20168656290199038  0.11271484308625192  1.0000
  C   C10       1.0  0.7983125977521013  0.6475056234869996  0.3872844249682715  1.0000
  C   C11       1.0  0.6475063359285967  0.7983134666120861  0.8872852147684255  1.0000
  C   C12       1.0  0.20168691532391847  0.3524944066874127  0.6127147209913488  1.0000
  C   C13       1.0  0.3731814456493793  0.255640184732151  0.21829538652654892  1.0000
  C   C14       1.0  0.7443580678019828  0.626818057303609  0.2817042750512684  1.0000
  C   C15       1.0  0.6268187015223106  0.7443589013901645  0.7817043557742666  1.0000
  C   C16       1.0  0.25564054000846426  0.3731819714199601  0.7182953119362381  1.0000
  C   C17       1.0  0.27100908388736406  0.2607061191131166  0.24692935283263748  1.0000
  C   C18       1.0  0.7392939469491536  0.7289913636671628  0.2530703661070461  1.0000
  C   C19       1.0  0.7289916024569507  0.7392948548483105  0.7530703441144198  1.0000
  C   C20       1.0  0.2607055661268661  0.2710086665072495  0.7469287798525741  1.0000
  C   C21       1.0  0.19378027669219478  0.080125607564284  0.9232688193478396  1.0000
  C   C22       1.0  0.9198736887165353  0.8062198436055895  0.5767313081175234  1.0000
  C   C23       1.0  0.8062210426920586  0.9198744212894708  0.07673215040189513  1.0000
  C   C24       1.0  0.08012555424531342  0.19377924212147243  0.4232681987497102  1.0000
  C   C25       1.0  0.48403178925646273  0.9258518949824791  0.14317381206015517  1.0000
  C   C26       1.0  0.07414868794459306  0.5159686613749345  0.3568261119279796  1.0000
  C   C27       1.0  0.5159688960321204  0.07414907792336581  0.8568265613483774  1.0000
  C   C28       1.0  0.9258517282855437  0.4840313681391422  0.643173945926698  1.0000
  C   C29       1.0  0.35273899385759927  0.894966371014725  0.10644210661069316  1.0000
  C   C30       1.0  0.10503320124826837  0.6472605009786108  0.3935579980803822  1.0000
  C   C31       1.0  0.647260518162696  0.10503365810410507  0.8935577158103953  1.0000
  C   C32       1.0  0.894967214981868  0.35273952853547286  0.6064420597742951  1.0000
  C   C33       1.0  0.2979561759592215  0.9230664102035392  0.1792183688531352  1.0000
  C   C34       1.0  0.07693296258288028  0.7020436890904663  0.3207817930566321  1.0000
  C   C35       1.0  0.7020433360610739  0.07693361891528379  0.8207814535679532  1.0000
  C   C36       1.0  0.9230662803789611  0.29795539663659554  0.6792177138106011  1.0000
  C   C37       1.0  0.3782053386491455  0.9802223972800165  0.28518902502726473  1.0000
  C   C38       1.0  0.01977715326986381  0.6217941839599064  0.21481041345091254  1.0000
  C   C39       1.0  0.6217950786367226  0.019777633289649498  0.7148103563659376  1.0000
  C   C40       1.0  0.9802214555963074  0.37820584581924527  0.7851884970751256  1.0000
  C   C41       1.0  0.5087901401090776  0.007769011248406302  0.31635449136143023  1.0000
  C   C42       1.0  0.9922303738939035  0.4912102835930127  0.18364564548424767  1.0000
  C   C43       1.0  0.4912102761210591  0.9922310182656772  0.6836455664932471  1.0000
  C   C44       1.0  0.007769138126391787  0.5087897455258172  0.8163541769368408  1.0000
  C   C45       1.0  0.27586997550989883  0.8369779031322652  0.989565777807819  1.0000
  C   C46       1.0  0.16302137198901076  0.7241305130603735  0.5104338670506364  1.0000
  C   C47       1.0  0.7241304417759694  0.16302212743740088  0.010433603585383424  1.0000
  C   C48       1.0  0.8369781400312845  0.2758695160584494  0.4895659553704591  1.0000
  Br  Br1       1.0  0.5389799332155006  0.31841083988854985  0.3245855140741511  1.0000
  Br  Br2       1.0  0.6815889646832929  0.4610199290645338  0.17541462906847724  1.0000
  Br  Br3       1.0  0.46102048195891127  0.6815891885699444  0.6754152202419945  1.0000
  Br  Br4       1.0  0.3184111824883971  0.5389791570577813  0.8245851132323381  1.0000
  Br  Br5       1.0  0.31275104890536914  0.024624041075348695  0.3898662681190075  1.0000
  Br  Br6       1.0  0.9753762390921423  0.6872497231139434  0.11013422515366504  1.0000
  Br  Br7       1.0  0.6872493673247676  0.975375988438735  0.61013378973567  1.0000
  Br  Br8       1.0  0.024623541986592584  0.3127512493966477  0.8898659128212856  1.0000
  N   N1        1.0  0.15187811818415042  0.2130737183015654  0.17427705761627982  1.0000
  N   N2        1.0  0.7869258022424288  0.8481219315530453  0.32572310384740893  1.0000
  N   N3        1.0  0.8481213927804135  0.7869263097616754  0.8257234412662913  1.0000
  N   N4        1.0  0.21307280451228644  0.15187809611494166  0.6742771596015729  1.0000
  N   N5        1.0  0.5598272460648132  0.9803912520892196  0.2454418767748123  1.0000
  N   N6        1.0  0.019608913191312614  0.44017247991392594  0.254557746638902  1.0000
  N   N7        1.0  0.44017253501392867  0.0196097204213714  0.7545582612001382  1.0000
  N   N8        1.0  0.980390598828976  0.5598275492048971  0.7454420757821936  1.0000
  O   O1        1.0  0.08480012048981682  0.0028878027689031994  0.8700617179527583  1.0000
  O   O2        1.0  0.9971122088149896  0.9152000398656596  0.629939288010064  1.0000
  O   O3        1.0  0.9152002946845954  0.9971122256895981  0.12993901636339442  1.0000
  O   O4        1.0  0.0028882063594223985  0.0847999885928346  0.3700614463060887  1.0000
  O   O5        1.0  0.2775953466144259  0.1037849380080331  0.8893269065967786  1.0000
  O   O6        1.0  0.8962147526314012  0.7224040315014547  0.6106731210661707  1.0000
  O   O7        1.0  0.7224050696157179  0.8962150915060434  0.11067315125789177  1.0000
  O   O8        1.0  0.1037844892747231  0.2775950531700246  0.389327062262538  1.0000
  O   O9        1.0  0.3384591613816994  0.8204507088696288  0.932615250628551  1.0000
  O   O10       1.0  0.17954962575055328  0.6615402698827779  0.5673850596099115  1.0000
  O   O11       1.0  0.6615403506385958  0.179549320249194  0.0673845717925374  1.0000
  O   O12       1.0  0.8204505203654122  0.33845881518395526  0.4326153591523721  1.0000
  O   O13       1.0  0.1565243689860623  0.8117281812194364  0.9585076778196253  1.0000
  O   O14       1.0  0.18827109518800708  0.843475033801795  0.5414916992981559  1.0000
  O   O15       1.0  0.8434757781856347  0.188270904902879  0.04149206448119005  1.0000
  O   O16       1.0  0.81172905198369  0.15652405232052044  0.4585080430026593  1.0000
  O   O17       1.0  0.20216805425251033  0.797831210640382  0.750000003030344  1.0000
  O   O18       1.0  0.7978311887093312  0.20216787508667264  0.24999950383688943  1.0000
