data_image0
_chemical_formula_structural       Zn16H32C108S16O76
_chemical_formula_sum              "Zn16 H32 C108 S16 O76"
_cell_length_a       19.66352931440869
_cell_length_b       19.564079730473328
_cell_length_c       33.213966958366285
_cell_angle_alpha    79.49938127456265
_cell_angle_beta     79.14114664576167
_cell_angle_gamma    63.95171049064226

_space_group_name_H-M_alt    "P 1"
_space_group_IT_number       1

loop_
  _space_group_symop_operation_xyz
  'x, y, z'

loop_
  _atom_site_type_symbol
  _atom_site_label
  _atom_site_symmetry_multiplicity
  _atom_site_fract_x
  _atom_site_fract_y
  _atom_site_fract_z
  _atom_site_occupancy
  Zn  Zn1       1.0  0.05702529663989962  0.4013279766327216  0.4780611592342368  1.0000
  Zn  Zn2       1.0  0.9817482816728358  0.4843139427347724  0.5605125627718479  1.0000
  Zn  Zn3       1.0  0.0533674172478058  0.5674117008088757  0.48531806922026993  1.0000
  Zn  Zn4       1.0  0.9004229091381079  0.5565763611281868  0.4782907917242269  1.0000
  Zn  Zn5       1.0  0.6914752544974619  0.3540878826768861  0.2706878440156117  1.0000
  Zn  Zn6       1.0  0.6832223129554083  0.19459490137250404  0.2695059468444043  1.0000
  Zn  Zn7       1.0  0.7689693448511223  0.25890865545049707  0.1913714334486514  1.0000
  Zn  Zn8       1.0  0.8448835490807909  0.19682736094441824  0.27370550783930275  1.0000
  Zn  Zn9       1.0  0.2690532184387208  0.7662723763674962  0.6894241997873181  1.0000
  Zn  Zn10      1.0  0.3506953731409156  0.693953451956503  0.7718234739597492  1.0000
  Zn  Zn11      1.0  0.19649795187982017  0.8501453421823583  0.7717039962425716  1.0000
  Zn  Zn12      1.0  0.19106100659048056  0.6901749804260503  0.7666581918393192  1.0000
  Zn  Zn13      1.0  0.5604222183490464  0.06132215690514193  0.9841964163619537  1.0000
  Zn  Zn14      1.0  0.401086256643957  0.05650151560377735  0.9792745693747449  1.0000
  Zn  Zn15      1.0  0.5561557191196513  0.9020299862508594  0.9781735210660898  1.0000
  Zn  Zn16      1.0  0.4834909329551777  0.9819654565848951  0.061126744012987906  1.0000
  H   H1        1.0  0.9637275594803045  0.27134935939006494  0.3321005772071501  1.0000
  H   H2        1.0  0.7406100981318886  0.4501052421652146  0.3592155613317729  1.0000
  H   H3        1.0  0.013903628657637097  0.3164990510521547  0.38105003692948  1.0000
  H   H4        1.0  0.08549106709293143  0.6145183347026234  0.700981853724997  1.0000
  H   H5        1.0  0.22758488565631294  0.6695817724062323  0.5976285929746368  1.0000
  H   H6        1.0  0.0327617714925452  0.5682164258691317  0.653787999716883  1.0000
  H   H7        1.0  0.4781046902438462  0.23593630997999052  0.3604882832895626  1.0000
  H   H8        1.0  0.4801678676280333  0.7101484387436727  0.6042645219003334  1.0000
  H   H9        1.0  0.18608204452528554  0.9781729100814329  0.6014269765769242  1.0000
  H   H10       1.0  0.9375920464452323  0.9775346723313729  0.35116133456390497  1.0000
  H   H11       1.0  0.5612088735894645  0.03532392137811514  0.1536697455709373  1.0000
  H   H12       1.0  0.6243472105565573  0.17632859941706153  0.053035705424157704  1.0000
  H   H13       1.0  0.6052237114473158  0.08658707985767936  0.2029135913197067  1.0000
  H   H14       1.0  0.5321861396769237  0.7654586935633674  0.1471623792404984  1.0000
  H   H15       1.0  0.16361858462867218  0.14368348600728353  0.04226020410630579  1.0000
  H   H16       1.0  0.4965891488436966  0.7906149047926402  0.9052153464007588  1.0000
  H   H17       1.0  0.3024769661503727  0.00744951793308961  0.8945892347139123  1.0000
  H   H18       1.0  0.4500916640413593  0.7433425262354943  0.8553355338163939  1.0000
  H   H19       1.0  0.3016391229653125  0.27986327557763246  0.9037017150328737  1.0000
  H   H20       1.0  0.7876993017948523  0.011428957217475522  0.9113985651700957  1.0000
  H   H21       1.0  0.7866287608993333  0.5893048717008185  0.38126423662057357  1.0000
  H   H22       1.0  0.148445349470407  0.7275872574581258  0.5329903202477055  1.0000
  H   H23       1.0  0.7508830660015137  0.1805680935569071  0.06297807196904869  1.0000
  H   H24       1.0  0.17841811757408274  0.9641734094282055  0.8881440686245982  1.0000
  H   H25       1.0  0.2421215233216074  0.5584511575788298  0.46080784798320457  1.0000
  H   H26       1.0  0.7702393654022686  0.5715311476694042  0.6822266431529087  1.0000
  H   H27       1.0  0.9558436057730829  0.3440543242451356  0.6460882487523991  1.0000
  H   H28       1.0  0.73083759683108  0.8141539918150115  0.4245255519030948  1.0000
  H   H29       1.0  0.7533374096131453  0.3813750989314287  0.1171984340470971  1.0000
  H   H30       1.0  0.06637105758223781  0.029879634833235993  0.22996687022989454  1.0000
  H   H31       1.0  0.44201662079567683  0.5070952307041381  0.8969663219250137  1.0000
  H   H32       1.0  0.004971676704208505  0.6774567497883552  0.8756743465140103  1.0000
  C   C1        1.0  0.0546342910956525  0.3165343738317503  0.5615814760773716  1.0000
  C   C2        1.0  0.062596729290604  0.5722264119566987  0.5717731594529525  1.0000
  C   C3        1.0  0.18753216451491994  0.4446676433382777  0.44705069312285417  1.0000
  C   C4        1.0  0.938367251525584  0.6828451082258981  0.43452809368938716  1.0000
  C   C5        1.0  0.9363242030472777  0.4320421206575704  0.42764924557920375  1.0000
  C   C6        1.0  0.8144686010145821  0.5597067295039436  0.5599561168877543  1.0000
  C   C7        1.0  0.5670468874871163  0.31543106337294785  0.3170666294623388  1.0000
  C   C8        1.0  0.6720200874961011  0.18350865658817378  0.18476302745269627  1.0000
  C   C9        1.0  0.6896612229026858  0.42875889193398115  0.1830385732751978  1.0000
  C   C10       1.0  0.9351577446598965  0.18545722257029226  0.19123698549499585  1.0000
  C   C11       1.0  0.8184205947824597  0.32942150327463793  0.31514228011175754  1.0000
  C   C12       1.0  0.8080590913177589  0.06514019708132672  0.3081881852445676  1.0000
  C   C13       1.0  0.4357928957880689  0.6780969459522839  0.6894093781962738  1.0000
  C   C14       1.0  0.3225427031388861  0.8178359911087086  0.8190401741730469  1.0000
  C   C15       1.0  0.1921102778451882  0.9337078623404338  0.6881571650534255  1.0000
  C   C16       1.0  0.06464631739380171  0.8152642964458466  0.8088580388664824  1.0000
  C   C17       1.0  0.1872448422209416  0.6762707762248964  0.6798371022638534  1.0000
  C   C18       1.0  0.3087922637791323  0.5693401486806025  0.8143510902188638  1.0000
  C   C19       1.0  0.4406282454947004  0.18360128858871141  0.9379003888452216  1.0000
  C   C20       1.0  0.4290116890686805  0.9302192800873353  0.9325623882112737  1.0000
  C   C21       1.0  0.6830044989069536  0.9419202010212614  0.9373145222526206  1.0000
  C   C22       1.0  0.5603860633279751  0.815819430295349  0.061439127770995576  1.0000
  C   C23       1.0  0.5675890274160552  0.07025854545656066  0.0709161803928779  1.0000
  C   C24       1.0  0.3163837350898362  0.0683579876868521  0.06293681021355718  1.0000
  C   C25       1.0  0.905621070807058  0.40771436116296655  0.3977233981358879  1.0000
  C   C26       1.0  0.8493225006768341  0.3587788053734966  0.3425762493229882  1.0000
  C   C27       1.0  0.8278849551699068  0.4464726091055269  0.3917019604696462  1.0000
  C   C28       1.0  0.9265100180049118  0.3204948583767334  0.34864499996027115  1.0000
  C   C29       1.0  0.8007106347104911  0.4218904549661672  0.3637165710737663  1.0000
  C   C30       1.0  0.9541930802733062  0.34539623118941193  0.37584848559821893  1.0000
  C   C31       1.0  0.09955688180971832  0.5941503443722951  0.5994318246067465  1.0000
  C   C32       1.0  0.1581630730993382  0.6461966563300549  0.6517342244342573  1.0000
  C   C33       1.0  0.15562585544842736  0.6216025697232509  0.5830896057208506  1.0000
  C   C34       1.0  0.10447113509606251  0.6163496200243301  0.6679818401797492  1.0000
  C   C35       1.0  0.18404147280738672  0.6482323043879674  0.6093888540848482  1.0000
  C   C36       1.0  0.075348863491044  0.590669711756668  0.6418255220043535  1.0000
  C   C37       1.0  0.3043427615823191  0.4652438139404182  0.4055145187991442  1.0000
  C   C38       1.0  0.45604894307972904  0.2966921027647302  0.3632314310152154  1.0000
  C   C39       1.0  0.2644076335100394  0.4212449287163124  0.4240718689374035  1.0000
  C   C40       1.0  0.4940498734739193  0.34128274621649274  0.3438121527605063  1.0000
  C   C41       1.0  0.38671125093016917  0.3415633390583537  0.3856629503496479  1.0000
  C   C42       1.0  0.37365833693687733  0.4190479047841151  0.3829479607832695  1.0000
  C   C43       1.0  0.7265150191473992  0.5496911400699603  0.6258630470257812  1.0000
  C   C44       1.0  0.52480675755789  0.66956175495865  0.6225078813510478  1.0000
  C   C45       1.0  0.740100833036756  0.575210632272146  0.5845256782801513  1.0000
  C   C46       1.0  0.510301490016154  0.6482555438450535  0.6640939360604748  1.0000
  C   C47       1.0  0.6032079796419438  0.6333639761823803  0.60864322733417  1.0000
  C   C48       1.0  0.6474071267727695  0.584205485328013  0.6400001854897823  1.0000
  C   C49       1.0  0.0784033897081997  0.22768007657827372  0.6300277599634968  1.0000
  C   C50       1.0  0.1649180246397179  0.023552770042080316  0.6212662288008914  1.0000
  C   C51       1.0  0.0785696587329312  0.24238093798358296  0.5872755491488704  1.0000
  C   C52       1.0  0.16543834531486823  0.009173873088585086  0.6636543642596919  1.0000
  C   C53       1.0  0.1337872918354179  0.10303770577849038  0.608797941720539  1.0000
  C   C54       1.0  0.11116848566307878  0.147490296967014  0.6419788501880035  1.0000
  C   C55       1.0  0.8519943893495566  0.7887305962057524  0.385386216927337  1.0000
  C   C56       1.0  0.8990415261404224  0.9514152508470487  0.3508088728701111  1.0000
  C   C57       1.0  0.9154056758629  0.7545819964261468  0.40673023787751106  1.0000
  C   C58       1.0  0.8347410350486301  0.9878199447904306  0.3306305550396331  1.0000
  C   C59       1.0  0.9053916286365152  0.8790599389965124  0.3704850736944821  1.0000
  C   C60       1.0  0.84577912563973  0.861071817989504  0.36475265700963183  1.0000
  C   C61       1.0  0.6402060313446613  0.15905574942305378  0.1554772222745697  1.0000
  C   C62       1.0  0.5920640666733591  0.10172296267408144  0.10051873946547117  1.0000
  C   C63       1.0  0.6452244759093801  0.18573802480186424  0.11312336338463781  1.0000
  C   C64       1.0  0.585041480521248  0.07714366087146361  0.14275815494432456  1.0000
  C   C65       1.0  0.6216112142945037  0.15630137616859935  0.08590052018694648  1.0000
  C   C66       1.0  0.6091728241288692  0.10577200100989605  0.16999191674906197  1.0000
  C   C67       1.0  0.6821776456929599  0.5207801427906702  0.11415405232142459  1.0000
  C   C68       1.0  0.5678070206686029  0.722172784428743  0.126653978046626  1.0000
  C   C69       1.0  0.665797458602583  0.5021419681405207  0.1566632002630186  1.0000
  C   C70       1.0  0.5853045562170678  0.7393681916192066  0.0847577043580472  1.0000
  C   C71       1.0  0.6028600868790761  0.6423042521546518  0.1376688063749043  1.0000
  C   C72       1.0  0.6457814962252685  0.6011244944250859  0.1039622932636064  1.0000
  C   C73       1.0  0.0818453464001223  0.12976171222341998  0.18088107027845274  1.0000
  C   C74       1.0  0.1709283985078329  0.1299280817633175  0.07481155171077351  1.0000
  C   C75       1.0  0.010564947298107101  0.1634382844782536  0.166858739613069  1.0000
  C   C76       1.0  0.24190913761319877  0.09455724619929379  0.08858331490922208  1.0000
  C   C77       1.0  0.11247771188725862  0.1437084747798707  0.10835090584554051  1.0000
  C   C78       1.0  0.1402899795082533  0.11871651545457952  0.147145642322144  1.0000
  C   C79       1.0  0.3502370677158453  0.8484892288495868  0.8473965967747362  1.0000
  C   C80       1.0  0.40148318029199  0.9013827463841434  0.9031194166488348  1.0000
  C   C81       1.0  0.3079712507101462  0.9236333218702414  0.8581388068116382  1.0000
  C   C82       1.0  0.443872366393741  0.8270734528387462  0.8919591683985217  1.0000
  C   C83       1.0  0.33382004085042644  0.9493210699192856  0.8861636854384402  1.0000
  C   C84       1.0  0.41814363947615624  0.8010375080410769  0.8642832499925532  1.0000
  C   C85       1.0  0.4063093796760812  0.4507455714483016  0.8519170433716496  1.0000
  C   C86       1.0  0.3463560424422171  0.300088128492753  0.8979843186229814  1.0000
  C   C87       1.0  0.3355765432725875  0.49296696606034374  0.8377982575073446  1.0000
  C   C88       1.0  0.4161868922331707  0.2583237100466746  0.912671542834559  1.0000
  C   C89       1.0  0.34271065439327936  0.3700112831382325  0.8757274305157382  1.0000
  C   C90       1.0  0.4102160050079463  0.380154386280033  0.8738853034135304  1.0000
  C   C91       1.0  0.9415172876291464  0.8029453093109991  0.8424025391446079  1.0000
  C   C92       1.0  0.803057511787344  0.9565895916697825  0.9007410137102668  1.0000
  C   C93       1.0  0.9885399295493118  0.8413323743109089  0.832780011359361  1.0000
  C   C94       1.0  0.7567415076682309  0.9178598852771528  0.9109874074801925  1.0000
  C   C95       1.0  0.8701276690575028  0.9151699348517893  0.8755245185306536  1.0000
  C   C96       1.0  0.8735137892516392  0.8453751451460861  0.8670464523091183  1.0000
  C   C97       1.0  0.7686310653581715  0.5067692698263639  0.41786866129136513  1.0000
  C   C98       1.0  0.18911017943484862  0.6179588684654859  0.5384856249059454  1.0000
  C   C99       1.0  0.6684974066281413  0.2504262402345461  0.097003998663304  1.0000
  C   C100      1.0  0.23900262837006642  0.9804769737940477  0.837900533528156  1.0000
  C   C101      1.0  0.2835121136068183  0.5496919229767343  0.402162619079057  1.0000
  C   C102      1.0  0.7879159618550631  0.49095240733400647  0.650458089928172  1.0000
  C   C103      1.0  0.05818459873101031  0.2816764495169651  0.661830365541789  1.0000
  C   C104      1.0  0.8003666095894887  0.7514364115188098  0.3832306775108094  1.0000
  C   C105      1.0  0.730545474680156  0.47388052372036776  0.0797930128653803  1.0000
  C   C106      1.0  0.09791305323705761  0.11128765101503288  0.22499924052593911  1.0000
  C   C107      1.0  0.4719077659683677  0.47349907930438206  0.8428301972316988  1.0000
  C   C108      1.0  0.9572264438648476  0.7293389097336271  0.8267330635069712  1.0000
  S   S1        1.0  0.31142788413785644  0.32581492515690513  0.4145064974475545  1.0000
  S   S2        1.0  0.4458037675174681  0.43727131621582055  0.3521000403740402  1.0000
  S   S3        1.0  0.6585606186324641  0.6370879164086459  0.5623421034434628  1.0000
  S   S4        1.0  0.5911575756346467  0.582916639133245  0.6865843446125409  1.0000
  S   S5        1.0  0.11764435470693974  0.1599873057283858  0.562388099006256  1.0000
  S   S6        1.0  0.1294442285534672  0.0913376891983262  0.6884461377545605  1.0000
  S   S7        1.0  0.9683911203686009  0.8075912957411688  0.40101808354383184  1.0000
  S   S8        1.0  0.782052318752527  0.9342666644011214  0.3348790225585248  1.0000
  S   S9        1.0  0.6074402070541325  0.5817090421594313  0.18262940665147911  1.0000
  S   S10       1.0  0.6437442095723683  0.6597950321606589  0.05861397401370282  1.0000
  S   S11       1.0  0.0144325880399663  0.1825388409328141  0.1134645216044987  1.0000
  S   S12       1.0  0.2384931892005469  0.07869262041159429  0.14205577820926862  1.0000
  S   S13       1.0  0.274982414741153  0.4470835247532533  0.8502197070688879  1.0000
  S   S14       1.0  0.4781272270855936  0.30288968890369716  0.8993792031726855  1.0000
  S   S15       1.0  0.950198854266965  0.9286850115557782  0.8527024153600138  1.0000
  S   S16       1.0  0.7935528528166104  0.8315856217627411  0.8899427509850071  1.0000
  O   O1        1.0  0.9990097196289229  0.5012927593267591  0.5000540305348339  1.0000
  O   O2        1.0  0.07023137680869242  0.3156023697479569  0.5224053404839849  1.0000
  O   O3        1.0  0.033885694167672405  0.5250714068659762  0.5877552243748454  1.0000
  O   O4        1.0  0.1553653416626162  0.5125630433889938  0.4574706365881341  1.0000
  O   O5        1.0  0.020001833382330907  0.3757792787784169  0.5808781933955061  1.0000
  O   O6        1.0  0.15957665628631906  0.39496652011973776  0.45430903283038054  1.0000
  O   O7        1.0  0.06117268330448412  0.6044509844461956  0.5346851577213557  1.0000
  O   O8        1.0  0.002556455433499101  0.6593433752394446  0.44795527685354136  1.0000
  O   O9        1.0  0.8904361422418888  0.4942795177705078  0.44238994352856753  1.0000
  O   O10       1.0  0.8914435642145266  0.6519613870135924  0.4432401133761843  1.0000
  O   O11       1.0  0.004325365955104103  0.39021618917812617  0.4360378300689192  1.0000
  O   O12       1.0  0.8724850366196507  0.5279390721078059  0.5796434886738524  1.0000
  O   O13       1.0  0.8136801624641308  0.5816106922813518  0.5212941151838208  1.0000
  O   O14       1.0  0.7467353759000659  0.2519836836969773  0.2513044578554613  1.0000
  O   O15       1.0  0.5932617586767606  0.36565451120593195  0.3025166619810378  1.0000
  O   O16       1.0  0.6428259418376783  0.18292521012343602  0.2223565820385147  1.0000
  O   O17       1.0  0.7297797295097511  0.366673048910151  0.1658432259307006  1.0000
  O   O18       1.0  0.5982567935399956  0.24496215416551326  0.31051977406124115  1.0000
  O   O19       1.0  0.6689041417700354  0.43161032922435544  0.22162108861419938  1.0000
  O   O20       1.0  0.7279759393170623  0.20055749426357752  0.16937616716110426  1.0000
  O   O21       1.0  0.8779338404472767  0.22040128494003144  0.17082123977759522  1.0000
  O   O22       1.0  0.8607564446172375  0.2618540251148574  0.3055105670249674  1.0000
  O   O23       1.0  0.9331879116873625  0.1674091030669658  0.23024618046250106  1.0000
  O   O24       1.0  0.752633245503013  0.3731692421430352  0.3040947906276941  1.0000
  O   O25       1.0  0.7452815513452508  0.08976534631689485  0.29293785199707406  1.0000
  O   O26       1.0  0.8500182621052659  0.10063311972547957  0.3061837869587691  1.0000
  O   O27       1.0  0.25184987660964714  0.7499872679895958  0.750023378990818  1.0000
  O   O28       1.0  0.3791175565219334  0.7250245495123477  0.6705594107994557  1.0000
  O   O29       1.0  0.3711465982588749  0.7584726019814596  0.8025080291252709  1.0000
  O   O30       1.0  0.183547629209194  0.9336532652264253  0.7273428271137661  1.0000
  O   O31       1.0  0.4348042737006779  0.654937338910287  0.7280160431235742  1.0000
  O   O32       1.0  0.22101178156567866  0.8749476349228689  0.6683351245440292  1.0000
  O   O33       1.0  0.2519166219860481  0.8531404075205841  0.8144485031427352  1.0000
  O   O34       1.0  0.09493757806667703  0.862887595159819  0.8004969455858273  1.0000
  O   O35       1.0  0.1673747670978116  0.6643439015819013  0.7183097981392308  1.0000
  O   O36       1.0  0.0934794383717517  0.7469596613266773  0.7991880121522996  1.0000
  O   O37       1.0  0.22849892052034457  0.7116058057339316  0.663057954851702  1.0000
  O   O38       1.0  0.3513100545289306  0.604649379937996  0.8105833280187795  1.0000
  O   O39       1.0  0.24496136428275153  0.5934376817299876  0.8002956452118539  1.0000
  O   O40       1.0  0.4999507601387522  0.0011124096801538267  0.0007074055501873878  1.0000
  O   O41       1.0  0.5077573643074872  0.15552951102774398  0.9485782069675822  1.0000
  O   O42       1.0  0.38570827987523865  0.9970264810784853  0.9429904944791901  1.0000
  O   O43       1.0  0.6491756007782784  0.8975741146296058  0.942113480844789  1.0000
  O   O44       1.0  0.39262346790026476  0.15391881847275354  0.9469634460328109  1.0000
  O   O45       1.0  0.659658888566  0.004465805645054322  0.9531004362804935  1.0000
  O   O46       1.0  0.4935320826789253  0.8855751638867916  0.9446653305266891  1.0000
  O   O47       1.0  0.5845123861374689  0.8181509853829068  0.022813702487887555  1.0000
  O   O48       1.0  0.5377540448853966  0.02373945139785149  0.08648569688639181  1.0000
  O   O49       1.0  0.5172340143502012  0.873128219463382  0.08134581541263942  1.0000
  O   O50       1.0  0.5789179093706238  0.09252709435053673  0.03267447244991931  1.0000
  O   O51       1.0  0.31551517927056955  0.08083581129002226  0.023896590189515617  1.0000
  O   O52       1.0  0.3750987513189017  0.03484440666416334  0.08226329084571661  1.0000
  O   O53       1.0  0.7500577904793744  0.5815830626431618  0.40401349497355454  1.0000
  O   O54       1.0  0.7331029159638476  0.48864321151701506  0.4487253462348376  1.0000
  O   O55       1.0  0.18132287913022083  0.6859734609314501  0.5162938314878787  1.0000
  O   O56       1.0  0.22447916528343373  0.5583818885957895  0.5227427353073894  1.0000
  O   O57       1.0  0.7287759663873745  0.23490508281197722  0.06662853963403141  1.0000
  O   O58       1.0  0.6342856458656954  0.31397504806663784  0.10813043479370783  1.0000
  O   O59       1.0  0.17061737800992927  0.9983723045882724  0.8623711951769906  1.0000
  O   O60       1.0  0.24292400109857237  0.013173722044115266  0.8034523894495464  1.0000
  O   O61       1.0  0.25263251680410553  0.5884360334631678  0.4350504016581311  1.0000
  O   O62       1.0  0.2996604058587735  0.5813743580495441  0.3688429642405424  1.0000
  O   O63       1.0  0.800832256113722  0.5163214420040917  0.6825199838085966  1.0000
  O   O64       1.0  0.8229730990969629  0.4245155664741914  0.6437365062273129  1.0000
  O   O65       1.0  0.9874750652903262  0.33768297045865103  0.6672637705835385  1.0000
  O   O66       1.0  0.10527280668177501  0.2705610075521959  0.6843290850056363  1.0000
  O   O67       1.0  0.7317695892854631  0.7786102866609849  0.40697603026020357  1.0000
  O   O68       1.0  0.8160993933095709  0.7026454377666409  0.3607887565843556  1.0000
  O   O69       1.0  0.7668870968536511  0.3981300198172447  0.08756152706574483  1.0000
  O   O70       1.0  0.736227571541221  0.5072274681808082  0.045076407584048184  1.0000
  O   O71       1.0  0.08951392108421892  0.048721711073014304  0.2464070648771752  1.0000
  O   O72       1.0  0.12172509983897584  0.14704554967610048  0.24025492137106846  1.0000
  O   O73       1.0  0.48293570049151674  0.5023424812609393  0.8742736687396969  1.0000
  O   O74       1.0  0.5150929016743363  0.46373660860095356  0.8110646545058415  1.0000
  O   O75       1.0  0.9915956352155961  0.6643389845114382  0.8521475239572566  1.0000
  O   O76       1.0  0.9373639458080449  0.7269917332481339  0.7948234120790261  1.0000
