data_image0
_chemical_formula_structural       Co8H144C212N32O32
_chemical_formula_sum              "Co8 H144 C212 N32 O32"
_cell_length_a       14.218873259668896
_cell_length_b       20.29506155158384
_cell_length_c       21.324727905896427
_cell_angle_alpha    107.90282624735724
_cell_angle_beta     109.45699101186196
_cell_angle_gamma    90.02472388992594

_space_group_name_H-M_alt    "P 1"
_space_group_IT_number       1

loop_
  _space_group_symop_operation_xyz
  'x, y, z'

loop_
  _atom_site_type_symbol
  _atom_site_label
  _atom_site_symmetry_multiplicity
  _atom_site_fract_x
  _atom_site_fract_y
  _atom_site_fract_z
  _atom_site_occupancy
  Co  Co1       1.0  0.8788815724975411  0.881503492476661  0.8296719237953384  1.0000
  Co  Co2       1.0  0.4368120864907042  0.6667833917438203  0.5586505650523392  1.0000
  Co  Co3       1.0  0.04895026692831554  0.6185129143154526  0.17035424967966153  1.0000
  Co  Co4       1.0  0.8784506995481182  0.8332111752581286  0.44139343007608295  1.0000
  Co  Co5       1.0  0.12111569874971205  0.11849349933927299  0.1703262187859309  1.0000
  Co  Co6       1.0  0.5631945240828885  0.3332172907841552  0.44135227799765886  1.0000
  Co  Co7       1.0  0.9510523642889058  0.3814877387501312  0.8296461035387709  1.0000
  Co  Co8       1.0  0.12154594015166276  0.1667920692073963  0.558606567784942  1.0000
  H   H1        1.0  0.916192724856977  0.6345965849268822  0.8502133539414274  1.0000
  H   H2        1.0  0.9104115680326078  0.4751021844419584  0.6611243305899636  1.0000
  H   H3        1.0  0.8825250254229221  0.5631008613977856  0.5982648650340465  1.0000
  H   H4        1.0  0.8675544336898755  0.6858579526473322  0.6616484720016587  1.0000
  H   H5        1.0  0.035029311634062664  0.8247214204631776  0.9429171493117325  1.0000
  H   H6        1.0  0.25761420624063214  0.9742803455136412  0.9576715497557586  1.0000
  H   H7        1.0  0.07244296923897069  0.9860736109154757  0.8646306335178482  1.0000
  H   H8        1.0  0.135478245738355  0.8508552444605968  0.0638055091299563  1.0000
  H   H9        1.0  0.2622398997341835  0.8231032681009225  0.1599088681869532  1.0000
  H   H10       1.0  0.493119764845396  0.8663565496154534  0.08424525887755148  1.0000
  H   H11       1.0  0.3645408256692448  0.8904377638994987  0.9848639731346651  1.0000
  H   H12       1.0  0.8859807355483867  0.7216395053333002  0.16429905490906543  1.0000
  H   H13       1.0  0.6690051660314325  0.5509237589251159  0.10954447833443479  1.0000
  H   H14       1.0  0.8529956178034512  0.502694770656447  0.10756659867084295  1.0000
  H   H15       1.0  0.7868113410513686  0.7565395806634995  0.25606389575517596  1.0000
  H   H16       1.0  0.6657470540739753  0.8383832166967765  0.2811027434812631  1.0000
  H   H17       1.0  0.4516324389822445  0.7341580807751101  0.07358954976187698  1.0000
  H   H18       1.0  0.5717963160087436  0.6500021717424362  0.04990223634125356  1.0000
  H   H19       1.0  0.5035148369148461  0.7370215144363429  0.4623992492327745  1.0000
  H   H20       1.0  0.23118892519291034  0.6221050720803374  0.4245101042668935  1.0000
  H   H21       1.0  0.209665371580627  0.6667656322463742  0.31021388833679  1.0000
  H   H22       1.0  0.4795472535728393  0.8317034923076961  0.4156116838681712  1.0000
  H   H23       1.0  0.5251737762731709  0.8863623729335471  0.3415583922834244  1.0000
  H   H24       1.0  0.3482060778291327  0.7184137353564779  0.1564617485760635  1.0000
  H   H25       1.0  0.3036352315041171  0.6622506475277561  0.23162874645785078  1.0000
  H   H26       1.0  0.46687723524623  0.17496301556662536  0.35097185357533084  1.0000
  H   H27       1.0  0.7468715723423855  0.2831793660437328  0.3972160857786164  1.0000
  H   H28       1.0  0.7507013483187136  0.1431623645616753  0.32689233611528573  1.0000
  H   H29       1.0  0.4256231241872542  0.0666643674211969  0.3120008985939294  1.0000
  H   H30       1.0  0.3773603646265828  0.941499865518857  0.2592801854857925  1.0000
  H   H31       1.0  0.6509867259998643  0.9154187709603646  0.21363505755219586  1.0000
  H   H32       1.0  0.7002048403554966  0.04081523520476081  0.26597467734175945  1.0000
  H   H33       1.0  0.393916449059276  0.45576940285698003  0.4924266337658453  1.0000
  H   H34       1.0  0.20220044015418656  0.28217038808072203  0.4738611383148382  1.0000
  H   H35       1.0  0.09475383175626478  0.3647050501761626  0.5244260371446573  1.0000
  H   H36       1.0  0.1392195209715014  0.4933774166339404  0.5588810572016244  1.0000
  H   H37       1.0  0.06542250882253604  0.8654243449240582  0.1497248392061508  1.0000
  H   H38       1.0  0.24845876248705423  0.0250305063257343  0.33883080568892143  1.0000
  H   H39       1.0  0.28407663904202723  0.9369682078697823  0.40161328675755215  1.0000
  H   H40       1.0  0.20611432658449763  0.8140930494906513  0.3381520871192194  1.0000
  H   H41       1.0  0.09193861899714058  0.6751732280889513  0.056939927705563824  1.0000
  H   H42       1.0  0.2998386663123114  0.5257702939842589  0.042449804091106096  1.0000
  H   H43       1.0  0.2077370757896945  0.5141512797913992  0.13562908718500213  1.0000
  H   H44       1.0  0.07154243109069833  0.648974702496723  0.9360531921907694  1.0000
  H   H45       1.0  0.1023245348353541  0.6767359996139602  0.8399444314790755  1.0000
  H   H46       1.0  0.4087696606417239  0.6335620122212121  0.9156544001175462  1.0000
  H   H47       1.0  0.3794184482424329  0.6094409591226649  0.015010998170595216  1.0000
  H   H48       1.0  0.7221210694637892  0.778438623682618  0.835943364229962  1.0000
  H   H49       1.0  0.559285951566338  0.9489516310260269  0.8897225252780956  1.0000
  H   H50       1.0  0.7454737813574968  0.9973335176373228  0.8920264776860948  1.0000
  H   H51       1.0  0.5309661140526744  0.7433083539815613  0.7438002892190383  1.0000
  H   H52       1.0  0.38474360744675123  0.661540096165254  0.7188573761504173  1.0000
  H   H53       1.0  0.3782305746260307  0.7658433511667226  0.9263954968943865  1.0000
  H   H54       1.0  0.522135411309684  0.8500187277886158  0.9499633175807178  1.0000
  H   H55       1.0  0.04131857272129485  0.7630458332011685  0.5377840433005261  1.0000
  H   H56       1.0  0.8067754454874532  0.877806173365677  0.5754476284645591  1.0000
  H   H57       1.0  0.8993940246810723  0.8332561440413925  0.6898232693256858  1.0000
  H   H58       1.0  0.06362212021539201  0.668292422476249  0.5844758931645089  1.0000
  H   H59       1.0  0.18328331637862055  0.6135817473321056  0.6583600079092662  1.0000
  H   H60       1.0  0.19188557116176963  0.78152369072955  0.8435876352916978  1.0000
  H   H61       1.0  0.07219002400538026  0.8377369458804582  0.7685722360915651  1.0000
  H   H62       1.0  0.11592384645161526  0.32511220654794226  0.6490658692386547  1.0000
  H   H63       1.0  0.34937187614646353  0.21681373130537918  0.6026094679463939  1.0000
  H   H64       1.0  0.4236551052002896  0.3568568749266348  0.672731121225347  1.0000
  H   H65       1.0  0.11376392709180298  0.43332176693989777  0.6878794136294673  1.0000
  H   H66       1.0  0.11827398254550306  0.5584617438724564  0.7407191505783076  1.0000
  H   H67       1.0  0.43749343128712354  0.5846581373478584  0.7862862738979574  1.0000
  H   H68       1.0  0.43433471657996875  0.45929233354619464  0.7338378619834955  1.0000
  H   H69       1.0  0.9014936472182316  0.044432005633652204  0.5077790732710598  1.0000
  H   H70       1.0  0.7279465199377669  0.21771422056340134  0.5261573614325387  1.0000
  H   H71       1.0  0.5700735676696951  0.13495447015205292  0.4752800568212905  1.0000
  H   H72       1.0  0.5803494913181099  0.006329258867310702  0.44082003865975855  1.0000
  H   H73       1.0  0.08381393852630481  0.36540304040672567  0.14978788242711968  1.0000
  H   H74       1.0  0.08959180511116942  0.5248974021753768  0.3388736118770197  1.0000
  H   H75       1.0  0.11747263355981385  0.4369008083379884  0.40173366391954357  1.0000
  H   H76       1.0  0.13244049523022033  0.314143225506804  0.33835246989120543  1.0000
  H   H77       1.0  0.9649714331444984  0.17527345318745094  0.05707741668242498  1.0000
  H   H78       1.0  0.7423802037575129  0.0257239913003033  0.04233310431039426  1.0000
  H   H79       1.0  0.9275505589644908  0.0139302213399617  0.1353752959049501  1.0000
  H   H80       1.0  0.8645207354508319  0.1491386200730034  0.9361916075774843  1.0000
  H   H81       1.0  0.7377604636107054  0.1768926849212491  0.8400892164296965  1.0000
  H   H82       1.0  0.5068800477086485  0.13364252696605664  0.9157535181002957  1.0000
  H   H83       1.0  0.6354580507383217  0.10956340861655889  0.015136438777659625  1.0000
  H   H84       1.0  0.11402270133319099  0.27836015148496057  0.835704927182114  1.0000
  H   H85       1.0  0.3309980423814807  0.44907324198393883  0.8904543791820814  1.0000
  H   H86       1.0  0.1470082005118059  0.4973038067902707  0.8924338647978446  1.0000
  H   H87       1.0  0.2131911557617841  0.2434600650929681  0.743939145221276  1.0000
  H   H88       1.0  0.33425632453386117  0.16161693361820545  0.718899022138544  1.0000
  H   H89       1.0  0.5483700539089542  0.2658394579850167  0.9264109151653629  1.0000
  H   H90       1.0  0.4282090802242282  0.3499959214078673  0.9501012179572186  1.0000
  H   H91       1.0  0.49648580854614727  0.2629812308943897  0.5376024351190906  1.0000
  H   H92       1.0  0.7688147835810144  0.3778935127587744  0.5754909965154696  1.0000
  H   H93       1.0  0.7903358262133157  0.3332324462263188  0.6897883507574889  1.0000
  H   H94       1.0  0.5204499936494217  0.1682976784004637  0.5843885909994242  1.0000
  H   H95       1.0  0.47482435428587905  0.1136377590344253  0.6584418543311373  1.0000
  H   H96       1.0  0.6517973271835446  0.28158588636132015  0.8435392137030178  1.0000
  H   H97       1.0  0.6963651078157727  0.3377494843866344  0.768371470445132  1.0000
  H   H98       1.0  0.5331273040547945  0.8250355877266742  0.6490308256354497  1.0000
  H   H99       1.0  0.253130971816397  0.7168186588207206  0.6027815253635609  1.0000
  H   H100      1.0  0.24930155633295226  0.8568356732260723  0.6731063828979416  1.0000
  H   H101      1.0  0.5743777115716997  0.933335241426896  0.6879989855256881  1.0000
  H   H102      1.0  0.6226387269416805  0.0584991852160783  0.7407163757499619  1.0000
  H   H103      1.0  0.3490134983146407  0.0845808046487662  0.7863619735116388  1.0000
  H   H104      1.0  0.29979698828157114  0.9591833275107647  0.7340245412111415  1.0000
  H   H105      1.0  0.6060806582948645  0.5442301968444098  0.5075725057069462  1.0000
  H   H106      1.0  0.7978012828635032  0.7178302890235315  0.5261412936009576  1.0000
  H   H107      1.0  0.9052467849200312  0.6352945734567187  0.47557512160232557  1.0000
  H   H108      1.0  0.8607788286702062  0.5066227005492507  0.44111791478557905  1.0000
  H   H109      1.0  0.9345811999513887  0.13457423991505382  0.8502762615762195  1.0000
  H   H110      1.0  0.7515356963988257  0.9749706662975091  0.6611696656465754  1.0000
  H   H111      1.0  0.7159241159602917  0.0630345300685633  0.5983877602806303  1.0000
  H   H112      1.0  0.7938943249348615  0.185908133872843  0.6618491470614954  1.0000
  H   H113      1.0  0.9080562477272526  0.3248263365655647  0.9430562216667157  1.0000
  H   H114      1.0  0.7001580541440973  0.4742298213910274  0.9575490308513609  1.0000
  H   H115      1.0  0.7922610004175681  0.4858514526696354  0.864371519007392  1.0000
  H   H116      1.0  0.9284532886436808  0.35102224501845575  0.06394115621998243  1.0000
  H   H117      1.0  0.897673091440737  0.3232604414276139  0.16005099582041984  1.0000
  H   H118      1.0  0.5912283867808413  0.3664375985419711  0.08434568046997976  1.0000
  H   H119      1.0  0.6205772490090599  0.39055862398603136  0.9849867296300943  1.0000
  H   H120      1.0  0.2778765622763473  0.22155838105660314  0.16405588622235706  1.0000
  H   H121      1.0  0.4407154653102552  0.0510464326618774  0.1102784391888179  1.0000
  H   H122      1.0  0.25452865872402  0.002665078317171802  0.10797559392258903  1.0000
  H   H123      1.0  0.4690347217062794  0.2566912548665385  0.2561995949005862  1.0000
  H   H124      1.0  0.6152575320734501  0.3384584758041527  0.2811426464724889  1.0000
  H   H125      1.0  0.6217669180837291  0.23415727615946486  0.07360270000512506  1.0000
  H   H126      1.0  0.47786503755153825  0.14998139673338073  0.05003626200857517  1.0000
  H   H127      1.0  0.9586745264917768  0.23695061533997835  0.46221208073582426  1.0000
  H   H128      1.0  0.19322205114426091  0.12219656095685143  0.4245531444841575  1.0000
  H   H129      1.0  0.100604742185162  0.16674503586706632  0.31017777990032164  1.0000
  H   H130      1.0  0.9363784381871626  0.33170769465335337  0.4155230491111014  1.0000
  H   H131      1.0  0.8167189224768165  0.38641885770972806  0.3416362176260249  1.0000
  H   H132      1.0  0.8081098766802698  0.21847432876477774  0.15640959442787045  1.0000
  H   H133      1.0  0.9278048442611182  0.1622610754753637  0.23142516038431885  1.0000
  H   H134      1.0  0.8840793946679426  0.674890023055312  0.3509360899319489  1.0000
  H   H135      1.0  0.6506296192403128  0.7831894834834047  0.39738792123673516  1.0000
  H   H136      1.0  0.5763467825482709  0.6431463878858991  0.32727039564092303  1.0000
  H   H137      1.0  0.8862393971642462  0.566680983868146  0.31212271156817906  1.0000
  H   H138      1.0  0.881728647129613  0.4415404524918289  0.2592799555365204  1.0000
  H   H139      1.0  0.5625098362372827  0.4153435636582117  0.21371488193192079  1.0000
  H   H140      1.0  0.5656688018959954  0.54070938777555  0.2661650390311152  1.0000
  H   H141      1.0  0.09850373595020319  0.9555686290849298  0.4922197609421276  1.0000
  H   H142      1.0  0.2720479653529608  0.7822864234626578  0.47384230656223986  1.0000
  H   H143      1.0  0.42992111184094745  0.8650451443877145  0.5247203869904524  1.0000
  H   H144      1.0  0.4196486711098474  0.9936709082011248  0.5591832277669013  1.0000
  C   C1        1.0  0.8847359410685627  0.7416343781252763  0.7997511666115641  1.0000
  C   C2        1.0  0.8912529702877805  0.6679039389544741  0.7599030394270655  1.0000
  C   C3        1.0  0.9088196405624064  0.6186573654843528  0.7949939821808912  1.0000
  C   C4        1.0  0.9161872116381746  0.5494513747670026  0.7597466957266902  1.0000
  C   C5        1.0  0.936261521724262  0.4982825925992246  0.7988395424496985  1.0000
  C   C6        1.0  0.9057071117602505  0.5293926149675342  0.688370000968753  1.0000
  C   C7        1.0  0.8897427227068209  0.5785311643816372  0.6534380966890653  1.0000
  C   C8        1.0  0.8818755343975939  0.6474844214095087  0.6888378333930448  1.0000
  C   C9        1.0  0.06990977932975564  0.8674406774037848  0.9348725609411944  1.0000
  C   C10       1.0  0.1850235882711645  0.9443748512214896  0.9391032064718915  1.0000
  C   C11       1.0  0.09325746649101778  0.9499794384818048  0.8939173199565857  1.0000
  C   C12       1.0  0.24169460379400926  0.8716289298748595  0.017874356487254835  1.0000
  C   C13       1.0  0.2130725918278885  0.851036086781214  0.06615254371584467  1.0000
  C   C14       1.0  0.2857652438384478  0.8361680935444158  0.12113965249189823  1.0000
  C   C15       1.0  0.38730166388670995  0.8422142683798982  0.12922254709331332  1.0000
  C   C16       1.0  0.4142043710747033  0.8612962217456468  0.07887852606695837  1.0000
  C   C17       1.0  0.3426232532520856  0.875603775459524  0.023463471583418955  1.0000
  C   C18       1.0  0.4715688342631026  0.8401763982914827  0.1960197618812528  1.0000
  C   C19       1.0  0.8534342986383409  0.668522732354191  0.1501760188573087  1.0000
  C   C20       1.0  0.740368811798291  0.5779575465524688  0.11855027727678191  1.0000
  C   C21       1.0  0.8310816025256358  0.554954776092586  0.11846768632060632  1.0000
  C   C22       1.0  0.6860913899397474  0.6982322901743956  0.15166304515395984  1.0000
  C   C23       1.0  0.7134438139561255  0.7522215207577219  0.21598347927383096  1.0000
  C   C24       1.0  0.6451875626627485  0.7987040390180198  0.22940859768355173  1.0000
  C   C25       1.0  0.5502821188014766  0.7934950915229494  0.17832834034997086  1.0000
  C   C26       1.0  0.5248904157913118  0.7393220100302501  0.11398292551746178  1.0000
  C   C27       1.0  0.5917207742281151  0.6915046291330286  0.1004542334448502  1.0000
  C   C28       1.0  0.4267394372893494  0.7118353827613008  0.4368886729851553  1.0000
  C   C29       1.0  0.28507341883263143  0.6511678710886599  0.4142554739928883  1.0000
  C   C30       1.0  0.2736780725028893  0.6722419797390556  0.3572201361593628  1.0000
  C   C31       1.0  0.3879537449619974  0.7434407067529277  0.32851666713285244  1.0000
  C   C32       1.0  0.4499627526085419  0.8065453233251888  0.35877402835469496  1.0000
  C   C33       1.0  0.4744106551503223  0.8381883801817838  0.31597277219351844  1.0000
  C   C34       1.0  0.4367102728209176  0.8084127304196187  0.24268020397786216  1.0000
  C   C35       1.0  0.37581791479296117  0.7442914113426796  0.2132605151187192  1.0000
  C   C36       1.0  0.3509672067143656  0.7119516500022058  0.25536422393557257  1.0000
  C   C37       1.0  0.5428079019107842  0.18503479040530382  0.35284521751620457  1.0000
  C   C38       1.0  0.6899471682283719  0.23874633814675408  0.37587160761542293  1.0000
  C   C39       1.0  0.6913604188379879  0.1701394788308406  0.3408621397301488  1.0000
  C   C40       1.0  0.5674441560879232  0.06331097344228451  0.2935910173496126  1.0000
  C   C41       1.0  0.4760976170619031  0.034230816512000196  0.29084842365116964  1.0000
  C   C42       1.0  0.4489835196756146  0.9627909255281539  0.2610737875655005  1.0000
  C   C43       1.0  0.5113211467830325  0.9179838960136523  0.23362668320317678  1.0000
  C   C44       1.0  0.6009481206839241  0.9479242316026911  0.23529567265710224  1.0000
  C   C45       1.0  0.6291613641687592  0.019711534869706795  0.26497056745080266  1.0000
  C   C46       1.0  0.29736683587631074  0.5596181347813173  0.5490635417953557  1.0000
  C   C47       1.0  0.2709234129253916  0.48252442352495717  0.5296512502671077  1.0000
  C   C48       1.0  0.32879511288170704  0.43581554295940367  0.4998606111499555  1.0000
  C   C49       1.0  0.30308191598224016  0.36377450083292473  0.4786724645154195  1.0000
  C   C50       1.0  0.3673450375082299  0.3147252902682354  0.4474682897187919  1.0000
  C   C51       1.0  0.21962329297538474  0.33833583129481326  0.4889216007019712  1.0000
  C   C52       1.0  0.16059227783936353  0.38474283930594316  0.5175482590950581  1.0000
  C   C53       1.0  0.18550303611533536  0.45663043400542586  0.5374717444778908  1.0000
  C   C54       1.0  0.08507024150370063  0.7582963743328577  0.2002022094061431  1.0000
  C   C55       1.0  0.1312198785738802  0.8320870385661295  0.23998715574359863  1.0000
  C   C56       1.0  0.11335079962167074  0.8813558444447767  0.20493607277315112  1.0000
  C   C57       1.0  0.1557518928432345  0.9506150551026021  0.24022055618623728  1.0000
  C   C58       1.0  0.13672402491000218  0.001794463048831601  0.20114697447812802  1.0000
  C   C59       1.0  0.2166895272618916  0.9707005088622793  0.3115781968696183  1.0000
  C   C60       1.0  0.2360421371138842  0.9215259379894083  0.34645505727399245  1.0000
  C   C61       1.0  0.1930231780200558  0.8525188394539075  0.3110220202689861  1.0000
  C   C62       1.0  0.1348353414150552  0.6324929303774809  0.06504015688005177  1.0000
  C   C63       1.0  0.24576793980776304  0.5556567524277797  0.06095366156678495  1.0000
  C   C64       1.0  0.1992078091669215  0.5501234317012236  0.10620335590046187  1.0000
  C   C65       1.0  0.22362667841778738  0.6282253558928305  0.9819921039703132  1.0000
  C   C66       1.0  0.14679087928682602  0.6488140022438885  0.9337023365154522  1.0000
  C   C67       1.0  0.1645754687828004  0.6637031132939911  0.8787445410186195  1.0000
  C   C68       1.0  0.25805865525533284  0.6577095574107688  0.8706943053244275  1.0000
  C   C69       1.0  0.3352348207159681  0.6386136698281178  0.9210246222891953  1.0000
  C   C70       1.0  0.3189617554809774  0.6242666293782335  0.9764084837585116  1.0000
  C   C71       1.0  0.27563063386710956  0.6598106622138787  0.8039361855967329  1.0000
  C   C72       1.0  0.7035824207526674  0.8315240208289865  0.8498684579042433  1.0000
  C   C73       1.0  0.621815387372756  0.9220078174614699  0.8809944922881954  1.0000
  C   C74       1.0  0.7127101797800537  0.9450720752662534  0.8812209974076026  1.0000
  C   C75       1.0  0.5346400661895034  0.8017009683413505  0.8482011509290005  1.0000
  C   C76       1.0  0.49767149841682123  0.7476823089254836  0.7839151978204981  1.0000
  C   C77       1.0  0.41591523919161966  0.7012401800927323  0.7705319577877178  1.0000
  C   C78       1.0  0.37205939368428176  0.706508361727451  0.8216286021946004  1.0000
  C   C79       1.0  0.41108984211194194  0.7606635012067998  0.8859730457377355  1.0000
  C   C80       1.0  0.4914999837594539  0.8084596859346577  0.8994450019114028  1.0000
  C   C81       1.0  0.989982371467498  0.7881848049907347  0.5632238897452878  1.0000
  C   C82       1.0  0.8709095933427803  0.8487761719654611  0.5857533706041876  1.0000
  C   C83       1.0  0.916438431161325  0.8277509414840197  0.6428087204704767  1.0000
  C   C84       1.0  0.059411498393735926  0.7565853995662692  0.6715937157877007  1.0000
  C   C85       1.0  0.09100925901444161  0.6934537870224204  0.6413007218980908  1.0000
  C   C86       1.0  0.1582917250202628  0.6617856726444699  0.6840310633060795  1.0000
  C   C87       1.0  0.1940834511612837  0.6915610528036498  0.7573221240227073  1.0000
  C   C88       1.0  0.16264511862273423  0.7556778739670449  0.7867785381168133  1.0000
  C   C89       1.0  0.09569007053614366  0.7880417723275032  0.7447567562566207  1.0000
  C   C90       1.0  0.1899137031298752  0.3150136570863892  0.6471167961792262  1.0000
  C   C91       1.0  0.3138725343475173  0.2612606150139527  0.6239624922410129  1.0000
  C   C92       1.0  0.3503565409516939  0.32988356417132547  0.6588534157886415  1.0000
  C   C93       1.0  0.27395018049985975  0.43672834854906034  0.7062720528453497  1.0000
  C   C94       1.0  0.18538637443971637  0.4657862937785283  0.709058627978614  1.0000
  C   C95       1.0  0.18807097725860455  0.5371996356639458  0.7388712896207821  1.0000
  C   C96       1.0  0.27785401250318414  0.5820293753777575  0.7663203537205092  1.0000
  C   C97       1.0  0.36580831197183267  0.5521314022868041  0.7646252025069628  1.0000
  C   C98       1.0  0.3643023242289587  0.4803395070370371  0.7348876686417539  1.0000
  C   C99       1.0  0.7486042253413459  0.9403630726451339  0.45110402451133774  1.0000
  C   C100      1.0  0.7413334293381411  0.0174322890818104  0.4704107454233295  1.0000
  C   C101      1.0  0.8289098912922199  0.06428593230989321  0.5002813537318006  1.0000
  C   C102      1.0  0.824220932193363  0.1362950002661023  0.5214318263514812  1.0000
  C   C103      1.0  0.9196284679250442  0.1854791053748954  0.5526882023820932  1.0000
  C   C104      1.0  0.7304166994938655  0.16156935242801038  0.511077409157707  1.0000
  C   C105      1.0  0.6428485836992905  0.11503009139234882  0.48229857197737397  1.0000
  C   C106      1.0  0.6480125133674265  0.04315178980043301  0.46238613435398424  1.0000
  C   C107      1.0  0.1152616627246275  0.25836469850982985  0.200247640077869  1.0000
  C   C108      1.0  0.1087488622712415  0.3320967307573924  0.24009875517505466  1.0000
  C   C109      1.0  0.09118458951331837  0.3813417109899859  0.2050047353737909  1.0000
  C   C110      1.0  0.08381735098348746  0.45054978652650135  0.2402526859361487  1.0000
  C   C111      1.0  0.06374240459021516  0.5017175207537934  0.20115903660169476  1.0000
  C   C112      1.0  0.09429772667571266  0.47060958134315456  0.3116290754344817  1.0000
  C   C113      1.0  0.11025844559807756  0.42147052928562806  0.3465624515387162  1.0000
  C   C114      1.0  0.11812193190733208  0.35251673451386273  0.3111611668471781  1.0000
  C   C115      1.0  0.9300872976975896  0.13255734389844062  0.06512480582311038  1.0000
  C   C116      1.0  0.8149748235662458  0.055626879461321686  0.06090055803588967  1.0000
  C   C117      1.0  0.9067367205025151  0.0500228061205803  0.10608603268772748  1.0000
  C   C118      1.0  0.7583038305262874  0.12837016521443453  0.9821260286305884  1.0000
  C   C119      1.0  0.7869268617753635  0.1489614335783216  0.933846372494557  1.0000
  C   C120      1.0  0.7142352593745684  0.1638294304845189  0.8788595675195551  1.0000
  C   C121      1.0  0.6126990887357592  0.1577848192634121  0.8707771709992683  1.0000
  C   C122      1.0  0.5857948619037929  0.1387028566973569  0.9211204176672042  1.0000
  C   C123      1.0  0.6573777223749959  0.12439740439533861  0.9765375479310096  1.0000
  C   C124      1.0  0.5284319183593669  0.15982268935182736  0.8039799562113218  1.0000
  C   C125      1.0  0.14656676475153324  0.331474338809386  0.8498289079949829  1.0000
  C   C126      1.0  0.2596347874343083  0.42204104567903034  0.8814514608192638  1.0000
  C   C127      1.0  0.16892312945320512  0.4450443410131086  0.881534521603534  1.0000
  C   C128      1.0  0.3139086487031051  0.3017657920212926  0.8483395274529498  1.0000
  C   C129      1.0  0.28656067253520945  0.24777813972994514  0.7840208066183935  1.0000
  C   C130      1.0  0.35481247443799907  0.2012955864763555  0.7705927278197535  1.0000
  C   C131      1.0  0.44972029333308694  0.2065055763274231  0.8216732874958269  1.0000
  C   C132      1.0  0.4751122418307575  0.2606781144381571  0.8860166243602522  1.0000
  C   C133      1.0  0.40828384820939345  0.3084944953650606  0.899548611792973  1.0000
  C   C134      1.0  0.5732673923669012  0.2881652849818863  0.5631128954374701  1.0000
  C   C135      1.0  0.7149291059274603  0.3488297027719299  0.5857480107464424  1.0000
  C   C136      1.0  0.7263222100853639  0.32775710237335437  0.6427791113758518  1.0000
  C   C137      1.0  0.6120454088019686  0.2565599574816347  0.6714846866234864  1.0000
  C   C138      1.0  0.5500353779505147  0.193454808642791  0.6412262182598667  1.0000
  C   C139      1.0  0.5255896010330902  0.1618112305278103  0.6840272786824145  1.0000
  C   C140      1.0  0.5632894605185897  0.19158793195344256  0.7573209830221543  1.0000
  C   C141      1.0  0.6241828114246601  0.25570820489780743  0.786740006314588  1.0000
  C   C142      1.0  0.6490345691130132  0.28804796990768716  0.7446366012987795  1.0000
  C   C143      1.0  0.45719644317032504  0.8149648423742873  0.6471566858776113  1.0000
  C   C144      1.0  0.31005642554016793  0.7612516903870983  0.6241263073278063  1.0000
  C   C145      1.0  0.3086436752915633  0.8298601336330692  0.6591380184789273  1.0000
  C   C146      1.0  0.4325586126175765  0.9366876003350346  0.7064091423180231  1.0000
  C   C147      1.0  0.5239041020338393  0.9657677535959197  0.7091514322154213  1.0000
  C   C148      1.0  0.5510181147415383  0.0372086666736635  0.738924655170436  1.0000
  C   C149      1.0  0.4886813181612197  0.08201571464234551  0.766373337961177  1.0000
  C   C150      1.0  0.3990540101722857  0.0520748375328424  0.764702437295476  1.0000
  C   C151      1.0  0.37083800867786476  0.9802891145800672  0.7350295116781638  1.0000
  C   C152      1.0  0.7026309287258031  0.44038142056572144  0.4509317737953396  1.0000
  C   C153      1.0  0.7290723938674333  0.5174751521913521  0.4703458402199061  1.0000
  C   C154      1.0  0.6712019944724261  0.5641840567419862  0.5001385283228359  1.0000
  C   C155      1.0  0.6969192274599082  0.6362261781328228  0.5213301341566989  1.0000
  C   C156      1.0  0.6326568533245337  0.6852748859469102  0.552535721354701  1.0000
  C   C157      1.0  0.780377187754745  0.6616643283276461  0.5110809986994198  1.0000
  C   C158      1.0  0.8394068191929593  0.6152567751266389  0.4824521252935129  1.0000
  C   C159      1.0  0.8144940712387978  0.5433691656959638  0.4625273949949005  1.0000
  C   C160      1.0  0.9149336335432  0.2417032529158405  0.7997992234303056  1.0000
  C   C161      1.0  0.868783196272709  0.16791414862753842  0.7600144713729264  1.0000
  C   C162      1.0  0.8866523559815536  0.11864221365865292  0.7950643914248092  1.0000
  C   C163      1.0  0.8442499397157877  0.049385614609263905  0.7597812384158757  1.0000
  C   C164      1.0  0.8632772544783195  0.9982056799273522  0.798854183539582  1.0000
  C   C165      1.0  0.7833074426039702  0.029301170127375507  0.6884211361539699  1.0000
  C   C166      1.0  0.7639582589376491  0.0784752437269489  0.6535461289967442  1.0000
  C   C167      1.0  0.8069814692801957  0.1474812997456851  0.6889787745245001  1.0000
  C   C168      1.0  0.865159801123639  0.36750766929421996  0.9349556872326305  1.0000
  C   C169      1.0  0.7542285032922468  0.4443438712290088  0.9390442315316747  1.0000
  C   C170      1.0  0.800789740274489  0.44987824542694455  0.8937958103668109  1.0000
  C   C171      1.0  0.7763693210528472  0.3717747336358741  0.018004515230053572  1.0000
  C   C172      1.0  0.8532045366863132  0.3511839821499762  0.06629187339201782  1.0000
  C   C173      1.0  0.835422212682822  0.3362959208482579  0.12125060854503283  1.0000
  C   C174      1.0  0.7419409366739487  0.34229107725422386  0.12930449917717365  1.0000
  C   C175      1.0  0.6647636120622238  0.361386968559863  0.0789745157250437  1.0000
  C   C176      1.0  0.6810330584337265  0.37573399247065004  0.02358927229521155  1.0000
  C   C177      1.0  0.7243705872474636  0.3401899742590189  0.19606275594960468  1.0000
  C   C178      1.0  0.2964178090258969  0.1684761184777912  0.15013239631241504  1.0000
  C   C179      1.0  0.3781856162012645  0.07799129049751487  0.11900697098911908  1.0000
  C   C180      1.0  0.2872926471991875  0.05492600501434449  0.11878137873140558  1.0000
  C   C181      1.0  0.46535828345220415  0.19829914884184063  0.1517978210581958  1.0000
  C   C182      1.0  0.5023286746300998  0.2523167805793208  0.21608468702839184  1.0000
  C   C183      1.0  0.5840839673820355  0.2987594269474556  0.22946778928717043  1.0000
  C   C184      1.0  0.6279413573960895  0.2934922692145464  0.1783698687943627  1.0000
  C   C185      1.0  0.5889082037685256  0.23933765285507747  0.11402578774617918  1.0000
  C   C186      1.0  0.5084981732044441  0.19153991743613125  0.10055444136243348  1.0000
  C   C187      1.0  0.010010924345337607  0.21181426435915543  0.4367743390536348  1.0000
  C   C188      1.0  0.12909138382640611  0.15122346459070712  0.41424889601384507  1.0000
  C   C189      1.0  0.0835606324599994  0.17225018114679364  0.35718739700238444  1.0000
  C   C190      1.0  0.9405874572283608  0.24341418715824398  0.32840428610245453  1.0000
  C   C191      1.0  0.9089913521978022  0.306545272912814  0.3586966136960755  1.0000
  C   C192      1.0  0.8417096887721345  0.3382154776408228  0.31596740695361086  1.0000
  C   C193      1.0  0.8059184870171167  0.3084375025194817  0.24267645721651115  1.0000
  C   C194      1.0  0.8373533669651465  0.24432170722656815  0.2132189932159746  1.0000
  C   C195      1.0  0.9043065931886219  0.21195729324580986  0.255241109318078  1.0000
  C   C196      1.0  0.8100893437697679  0.6849896020031565  0.352884387174413  1.0000
  C   C197      1.0  0.6861278322149715  0.7387441818969763  0.37603700316323335  1.0000
  C   C198      1.0  0.649640649538931  0.670116556734854  0.3411458897111856  1.0000
  C   C199      1.0  0.7260513482979153  0.5632733580414921  0.2937296032534817  1.0000
  C   C200      1.0  0.8146149865429919  0.5342159137011393  0.29094144896252055  1.0000
  C   C201      1.0  0.81193223199206  0.4628025588388383  0.2611276497377233  1.0000
  C   C202      1.0  0.722149087206155  0.4179728265174205  0.2336792229516789  1.0000
  C   C203      1.0  0.6341947892796045  0.44786925630968  0.23537562126883665  1.0000
  C   C204      1.0  0.6357014700612992  0.5196632493018997  0.26511492711325246  1.0000
  C   C205      1.0  0.25139655606581374  0.05963913669602052  0.5488962191861192  1.0000
  C   C206      1.0  0.2586643710548275  0.9825694083620319  0.529590166028676  1.0000
  C   C207      1.0  0.17108696903231663  0.9357157540721557  0.49971861660547023  1.0000
  C   C208      1.0  0.17577631502890512  0.8637061704420573  0.478568448516114  1.0000
  C   C209      1.0  0.08036894557019289  0.8145231077428434  0.4473124045395807  1.0000
  C   C210      1.0  0.26957695526975567  0.8384312731438612  0.488920680408647  1.0000
  C   C211      1.0  0.3571473948305623  0.8849710904311862  0.5177026737165348  1.0000
  C   C212      1.0  0.3519853981089653  0.9568483569523281  0.5376153868879426  1.0000
  N   N1        1.0  0.02239011725318119  0.9015322996637282  0.8914795853850492  1.0000
  N   N2        1.0  0.16929081940914176  0.8920076015743206  0.9651539796798333  1.0000
  N   N3        1.0  0.9005934038624304  0.611909554467303  0.1380342634682988  1.0000
  N   N4        1.0  0.7558519996148547  0.6502443146583943  0.13914961614560184  1.0000
  N   N5        1.0  0.38062343801254894  0.6758895791778843  0.4633048219703397  1.0000
  N   N6        1.0  0.363840384407503  0.7106872710723805  0.37214652152952976  1.0000
  N   N7        1.0  0.596841856449345  0.2473056739627282  0.38280876332289177  1.0000
  N   N8        1.0  0.5978081428178967  0.1360066856802433  0.3261537382754867  1.0000
  N   N9        1.0  0.13075742017910846  0.5985101405775809  0.10855436780497038  1.0000
  N   N10       1.0  0.20393876908305236  0.6079062778340757  0.03476559621907435  1.0000
  N   N11       1.0  0.7628443251300824  0.8881713990969117  0.8619563861038272  1.0000
  N   N12       1.0  0.6168915003412396  0.8497379225586172  0.8606546834387601  1.0000
  N   N13       1.0  0.9175002536000535  0.82408301508503  0.5367411454312004  1.0000
  N   N14       1.0  0.9917271015528473  0.7893492018055567  0.6279623042630574  1.0000
  N   N15       1.0  0.2138773452636402  0.2527141351776053  0.617153685293424  1.0000
  N   N16       1.0  0.2716356239402204  0.3640344103183253  0.6736772560888085  1.0000
  N   N17       1.0  0.9776084002036004  0.09846731663034798  0.10852096575983697  1.0000
  N   N18       1.0  0.8307072280134236  0.1079920091888624  0.03484610090768568  1.0000
  N   N19       1.0  0.09940986520408049  0.3880906032400659  0.8619681394651906  1.0000
  N   N20       1.0  0.24415096723251403  0.3497553366289736  0.8608538953882174  1.0000
  N   N21       1.0  0.619379387424587  0.324110044401408  0.5366963070650569  1.0000
  N   N22       1.0  0.6361586030834944  0.28931235075259554  0.6278545001727237  1.0000
  N   N23       1.0  0.40316143902200724  0.7526939551474642  0.6171928362698722  1.0000
  N   N24       1.0  0.40219354987299744  0.8639924130248532  0.6738469209318225  1.0000
  N   N25       1.0  0.8692393818716867  0.4014920393011892  0.8914433860609278  1.0000
  N   N26       1.0  0.7960575341488296  0.39209277481594285  0.9652311614845815  1.0000
  N   N27       1.0  0.23715518674691796  0.1118256277659029  0.138044746577954  1.0000
  N   N28       1.0  0.3831084800278717  0.15026065313378467  0.139345672696777  1.0000
  N   N29       1.0  0.08249492080754103  0.17591761968714084  0.4632577184935728  1.0000
  N   N30       1.0  0.008269671713250796  0.21064985637536185  0.3720349239979584  1.0000
  N   N31       1.0  0.7861246216994504  0.7472875418433774  0.38284542155067675  1.0000
  N   N32       1.0  0.7283686403842611  0.6359683515515117  0.3263258102235653  1.0000
  O   O1        1.0  0.8672711355413796  0.7855193764520294  0.7650017181804997  1.0000
  O   O2        1.0  0.8961343625965484  0.759106949065391  0.8640809939300669  1.0000
  O   O3        1.0  0.9140295451085338  0.43262813271440603  0.7614062219941218  1.0000
  O   O4        1.0  0.9729264153699193  0.5182773949330653  0.8650410449969641  1.0000
  O   O5        1.0  0.38944334465566055  0.5775464680768253  0.5565248494120568  1.0000
  O   O6        1.0  0.23324699516506797  0.6009260964278766  0.5557768122987881  1.0000
  O   O7        1.0  0.42435463156823516  0.3436578982297078  0.4239207710825141  1.0000
  O   O8        1.0  0.36624491269633813  0.2531053020415471  0.44739669890689276  1.0000
  O   O9        1.0  0.10221428480944894  0.7144950315931241  0.2350493119648576  1.0000
  O   O10       1.0  0.032368779322432366  0.7406921224475198  0.13582385666194344  1.0000
  O   O11       1.0  0.15206261545548475  0.06744107094038301  0.23860852927513326  1.0000
  O   O12       1.0  0.10717544449694576  0.9818309153926279  0.13495199952020445  1.0000
  O   O13       1.0  0.8333962331568686  0.922575306238265  0.44389819082971366  1.0000
  O   O14       1.0  0.6777536597406029  0.8989576973706194  0.44424465326336104  1.0000
  O   O15       1.0  0.00023523393947764526  0.15665615579199244  0.5763038682847608  1.0000
  O   O16       1.0  0.9185273137708735  0.24707512184605926  0.5527327639411511  1.0000
  O   O17       1.0  0.1327259150811174  0.21447917344738  0.23499645192453045  1.0000
  O   O18       1.0  0.10386169514782755  0.2408926469665928  0.1359178417416729  1.0000
  O   O19       1.0  0.08597645009866282  0.5673704095782597  0.23859119195088144  1.0000
  O   O20       1.0  0.02707284555552294  0.4817196116140607  0.1349583425000915  1.0000
  O   O21       1.0  0.6105526299522382  0.42245260675037616  0.44347382023264004  1.0000
  O   O22       1.0  0.7667469275689458  0.3990713501684979  0.4442158199095445  1.0000
  O   O23       1.0  0.5756521258796425  0.6563433757039904  0.576088277618716  1.0000
  O   O24       1.0  0.6337507596924183  0.746893266365639  0.5526030793381339  1.0000
  O   O25       1.0  0.8977936791351483  0.28550461772556457  0.7649539733894742  1.0000
  O   O26       1.0  0.9676330547786949  0.2593070039656524  0.8641791850437813  1.0000
  O   O27       1.0  0.8479347995818575  0.9325595988786618  0.7613933247501593  1.0000
  O   O28       1.0  0.8928277398909757  0.018170264408645706  0.8650489902826379  1.0000
  O   O29       1.0  0.16659973836682712  0.0774268551863173  0.5560979846077673  1.0000
  O   O30       1.0  0.32224704553623723  0.10104301116470542  0.5557604946634883  1.0000
  O   O31       1.0  0.9997616870386498  0.8433486873883708  0.42369964746949046  1.0000
  O   O32       1.0  0.08146769282164722  0.7529260138152196  0.4472645208259324  1.0000
