data_image0
_chemical_formula_structural       Ag8H24C42N8O24
_chemical_formula_sum              "Ag8 H24 C42 N8 O24"
_cell_length_a       8.052862857643673
_cell_length_b       11.709002980959012
_cell_length_c       14.4523
_cell_angle_alpha    65.99727659939829
_cell_angle_beta     76.05852163054112
_cell_angle_gamma    87.30349950626467

_space_group_name_H-M_alt    "P 1"
_space_group_IT_number       1

loop_
  _space_group_symop_operation_xyz
  'x, y, z'

loop_
  _atom_site_type_symbol
  _atom_site_label
  _atom_site_symmetry_multiplicity
  _atom_site_fract_x
  _atom_site_fract_y
  _atom_site_fract_z
  _atom_site_occupancy
  Ag  Ag1       1.0  0.5989551874419091  0.9490647893136597  0.572776151528153  1.0000
  Ag  Ag2       1.0  0.4010437758377208  0.05093551381038  0.42722381855617914  1.0000
  Ag  Ag3       1.0  0.0014485474522700984  0.1376391022903078  0.3952779851046771  1.0000
  Ag  Ag4       1.0  0.9985529011342251  0.8623602643986389  0.6047219599512702  1.0000
  Ag  Ag5       1.0  0.6239600157312778  0.2158070849315976  0.5140882238195419  1.0000
  Ag  Ag6       1.0  0.376040227033414  0.784193218192442  0.48591226642877683  1.0000
  Ag  Ag7       1.0  0.0503463214764039  0.37626336460693477  0.38832785830486943  1.0000
  Ag  Ag8       1.0  0.9496512149916398  0.6237350656469262  0.6116722286282795  1.0000
  H   H1        1.0  0.4257636042953123  0.4398735273505068  0.387709800276042  1.0000
  H   H2        1.0  0.5742363438163451  0.560123030033175  0.6122898882037477  1.0000
  H   H3        1.0  0.36442554552829176  0.24832292053613972  0.7077647694321527  1.0000
  H   H4        1.0  0.6355747708996589  0.751678319022993  0.2922367861725377  1.0000
  H   H5        1.0  0.1999661444533274  0.5881112019811212  0.419527832947658  1.0000
  H   H6        1.0  0.8000353041331749  0.4118881647078325  0.5804707282455157  1.0000
  H   H7        1.0  0.693822253310806  0.9601044225810043  0.9777199303448046  1.0000
  H   H8        1.0  0.30617919527568915  0.0398949441079495  0.022279322779752406  1.0000
  H   H9        1.0  0.9684461741736428  0.8644691162196594  0.01330938836762395  1.0000
  H   H10       1.0  0.031553921264531895  0.1355293140341942  0.9866903550307384  1.0000
  H   H11       1.0  0.6391010575451403  0.38300944298999445  0.8938887144684602  1.0000
  H   H12       1.0  0.3608978320712311  0.6169899236989522  0.10611019025950708  1.0000
  H   H13       1.0  0.224293290487168  0.9021653107380133  0.8637916970896886  1.0000
  H   H14       1.0  0.7757081580993342  0.09783405595093342  0.13620893989764946  1.0000
  H   H15       1.0  0.05252136585716019  0.4635419242316773  0.7741102734647215  1.0000
  H   H16       1.0  0.9474750384523318  0.5364583788923625  0.2258900401543898  1.0000
  H   H17       1.0  0.16496879343699786  0.32618000672778896  0.82794494525767  1.0000
  H   H18       1.0  0.8350289640208217  0.6738212328313438  0.1720555700190333  1.0000
  H   H19       1.0  0.9740241517189503  0.3158333354264968  0.7885544287621971  1.0000
  H   H20       1.0  0.025974958887196895  0.6841688405677147  0.21144352044654377  1.0000
  H   H21       1.0  0.9182759726486438  0.4076217664411388  0.9346089893729616  1.0000
  H   H22       1.0  0.08172171114591717  0.592378536682901  0.06539046054736992  1.0000
  H   H23       1.0  0.9203048914306962  0.3655065347365465  0.11766759690539891  1.0000
  H   H24       1.0  0.0796939981856752  0.6344928319524001  0.8823319997539516  1.0000
  C   C1        1.0  0.3606518229435594  0.4300484503939401  0.4661717364131875  1.0000
  C   C2        1.0  0.6393444340394225  0.5699499798599206  0.5338299061501318  1.0000
  C   C3        1.0  0.19134568341180366  0.3978650492460929  0.6620107315944923  1.0000
  C   C4        1.0  0.8086545593528881  0.6021352538779468  0.33798975865382636  1.0000
  C   C5        1.0  0.3239843341811337  0.3223883810513541  0.6433930318263775  1.0000
  C   C6        1.0  0.6760147027617549  0.6776128585077714  0.3566086955457097  1.0000
  C   C7        1.0  0.2339195425118348  0.5091556774297601  0.48366838657409533  1.0000
  C   C8        1.0  0.7660829645699535  0.4908408799539217  0.5163323422336817  1.0000
  C   C9        1.0  0.9346941413569567  0.1515386083202657  0.614688079193556  1.0000
  C   C10       1.0  0.0653075282193143  0.8484635676739458  0.38531229420594587  1.0000
  C   C11       1.0  0.9401597840393378  0.0692484384160394  0.7260124242812724  1.0000
  C   C12       1.0  0.0598443708438055  0.9307528011430861  0.2739872321584684  1.0000
  C   C13       1.0  0.8003539148555348  0.048375300276326506  0.8117916676016892  1.0000
  C   C14       1.0  0.1996476073942191  0.9516250028477132  0.18820795894784942  1.0000
  C   C15       1.0  0.09247274645226608  0.0118477767493772  0.7472551228185864  1.0000
  C   C16       1.0  0.9075300552825495  0.9881525263746626  0.25274571582634303  1.0000
  C   C17       1.0  0.6498972202357435  0.3286166108300534  0.17640886286942253  1.0000
  C   C18       1.0  0.35010046355882446  0.6713836922939862  0.8235912789822991  1.0000
  C   C19       1.0  0.2433141113159749  0.0168614502172986  0.6606647688582258  1.0000
  C   C20       1.0  0.7566885430923235  0.9831369800365621  0.3393360148681311  1.0000
  C   C21       1.0  0.6700169357478387  0.2984746381767991  0.28473556341563727  1.0000
  C   C22       1.0  0.3299847338284323  0.7015275378174195  0.7152634261210907  1.0000
  C   C23       1.0  0.3240821296789774  0.2964360189874711  0.23797389950624395  1.0000
  C   C24       1.0  0.6759168336006525  0.7035642841365686  0.7620267625094713  1.0000
  C   C25       1.0  0.8071066922778201  0.9738662726528347  0.914526530686921  1.0000
  C   C26       1.0  0.1928934768236132  0.026133094036112  0.08547289420504  1.0000
  C   C27       1.0  0.9603986565346148  0.9213219633591054  0.9335590485133524  1.0000
  C   C28       1.0  0.0396015125668185  0.0786774033298485  0.06644106830999161  1.0000
  C   C29       1.0  0.6460959374212932  0.36671079026134384  0.9724463809736863  1.0000
  C   C30       1.0  0.35390302585832956  0.633289512862696  0.027552897179255416  1.0000
  C   C31       1.0  0.4902406248364812  0.32027391061979676  0.15442475251374796  1.0000
  C   C32       1.0  0.5097583384431488  0.679726392504243  0.8455752175705769  1.0000
  C   C33       1.0  0.1027610202965477  0.9417989894560534  0.8504858528489337  1.0000
  C   C34       1.0  0.8972417814382679  0.05820131366797911  0.14951498579598882  1.0000
  C   C35       1.0  0.0910926489584654  0.37419571592983664  0.769742089725341  1.0000
  C   C36       1.0  0.9089049611728369  0.62580365075911  0.23025698677001571  1.0000
  C   C37       1.0  0.7996260893063578  0.3807591894704956  0.9952255366758611  1.0000
  C   C38       1.0  0.20037166815146173  0.6192420500886371  0.004773594738061657  1.0000
  C   C39       1.0  0.4949259384675671  0.33674861314522536  0.051640476787511665  1.0000
  C   C40       1.0  0.5050729511488043  0.6632507535437214  0.948359119871839  1.0000
  C   C41       1.0  0.8007564416275057  0.3599956142362259  0.09691617354434372  1.0000
  C   C42       1.0  0.1992413158303137  0.6400056253228996  0.9030829578695857  1.0000
  N   N1        1.0  0.4082533334551073  0.3385016196323321  0.5465410170145546  1.0000
  N   N2        1.0  0.5917466883198088  0.6614958741864428  0.453459736821607  1.0000
  N   N3        1.0  0.1505510704263386  0.4933973477476102  0.5808824466089819  1.0000
  N   N4        1.0  0.8494493196648703  0.5066048282466014  0.4191153308323622  1.0000
  N   N5        1.0  0.6402031610796257  0.1083595863542683  0.7956729262941026  1.0000
  N   N6        1.0  0.3597982875068766  0.8916397803346783  0.2043270187618448  1.0000
  N   N7        1.0  0.33723510013670926  0.3250937420242366  0.02183698177565673  1.0000
  N   N8        1.0  0.6627625099946002  0.67490562466471  0.9781627866510906  1.0000
  O   O1        1.0  0.649227880430729  0.207665718265531  0.7160874200448576  1.0000
  O   O2        1.0  0.3507737154822834  0.7923355212936019  0.28391257992966257  1.0000
  O   O3        1.0  0.504920451370431  0.059463628168309406  0.8615755154510653  1.0000
  O   O4        1.0  0.4950809972160641  0.9405357385206372  0.13842442960488208  1.0000
  O   O5        1.0  0.261020991213762  0.1837444839102602  0.28462105101261415  1.0000
  O   O6        1.0  0.7389778984026092  0.8162548827786865  0.71537992950951  1.0000
  O   O7        1.0  0.8533243822392009  0.1057890720342414  0.569467365540369  1.0000
  O   O8        1.0  0.14667864048539056  0.8942140403950702  0.4305318256539439  1.0000
  O   O9        1.0  0.2656907208297099  0.39084553181696446  0.25357615584618304  1.0000
  O   O10       1.0  0.7343094482717234  0.6091538348719894  0.7464246529085443  1.0000
  O   O11       1.0  0.20810803034530778  0.0219228818747794  0.576958276554649  1.0000
  O   O12       1.0  0.7918922124193841  0.9780774212492604  0.42304221369367684  1.0000
  O   O13       1.0  0.014024227208949497  0.2562245598193513  0.5743920128184358  1.0000
  O   O14       1.0  0.9859775896938389  0.7437794890450462  0.42560772356825555  1.0000
  O   O15       1.0  0.5346869342909457  0.26236382826456867  0.35956519076074045  1.0000
  O   O16       1.0  0.4653133821370048  0.737637411294557  0.6404335971183955  1.0000
  O   O17       1.0  0.39086962762539196  0.010943180453146802  0.6776090681767712  1.0000
  O   O18       1.0  0.6091331004461722  0.9890561862357999  0.32239139704317676  1.0000
  O   O19       1.0  0.1982438479091968  0.32480719288692234  0.0819563507424093  1.0000
  O   O20       1.0  0.8017537622221127  0.6751921738020245  0.9180441096157214  1.0000
  O   O21       1.0  0.8193794313409554  0.3083381089720234  0.2953947644892168  1.0000
  O   O22       1.0  0.1806208114237364  0.6916621941520164  0.7046036499649446  1.0000
  O   O23       1.0  0.3506013428071171  0.3158970130125667  0.9374449456071405  1.0000
  O   O24       1.0  0.6493976204725128  0.6841032901114659  0.06255433254580109  1.0000
