data_image0
_chemical_formula_structural       Ni2H18C26N2O10
_chemical_formula_sum              "Ni2 H18 C26 N2 O10"
_cell_length_a       7.132364728554329
_cell_length_b       10.09036032816325
_cell_length_c       9.892849623268077
_cell_angle_alpha    112.8517182656237
_cell_angle_beta     96.73598402327029
_cell_angle_gamma    107.18729488682432

_space_group_name_H-M_alt    "P 1"
_space_group_IT_number       1

loop_
  _space_group_symop_operation_xyz
  'x, y, z'

loop_
  _atom_site_type_symbol
  _atom_site_label
  _atom_site_symmetry_multiplicity
  _atom_site_fract_x
  _atom_site_fract_y
  _atom_site_fract_z
  _atom_site_occupancy
  Ni  Ni1       1.0  0.08459597456276657  0.8798230237549515  0.8769582440664508  1.0000
  Ni  Ni2       1.0  0.9154052864664524  0.120179501019301  0.12304175914645302  1.0000
  H   H1        1.0  0.43986567496570944  0.9939708598130038  0.8277441674267864  1.0000
  H   H2        1.0  0.5601325948048129  0.006028179963479402  0.1722531291104374  1.0000
  H   H3        1.0  0.24846050229813685  0.9967930145562102  0.7327390458973753  1.0000
  H   H4        1.0  0.7515379963466274  0.0032094917244548968  0.2672586456981279  1.0000
  H   H5        1.0  0.11975256724753786  0.4226709880280308  0.832487531090429  1.0000
  H   H6        1.0  0.8802423398059177  0.5773302354045029  0.1675143384151028  1.0000
  H   H7        1.0  0.4543579984844683  0.8113751638626139  0.266099333931372  1.0000
  H   H8        1.0  0.5456493040696843  0.1886251655289257  0.7339004097829261  1.0000
  H   H9        1.0  0.39157968846418373  0.34910909382284666  0.19456887266953524  1.0000
  H   H10       1.0  0.6084285421699533  0.650890116452089  0.8054295080454922  1.0000
  H   H11       1.0  0.4922656238979215  0.8489834389866359  0.5098828415587066  1.0000
  H   H12       1.0  0.50773462739744  0.15101340788700668  0.49010872620151963  1.0000
  H   H13       1.0  0.7539650880334534  0.960574825620213  0.7532723036269716  1.0000
  H   H14       1.0  0.246022725972928  0.039422900184291586  0.24672239085063552  1.0000
  H   H15       1.0  0.9575088493164756  0.5986556592073169  0.5954605670537063  1.0000
  H   H16       1.0  0.04249181138011685  0.40134906771656614  0.40454632074489183  1.0000
  H   H17       1.0  0.7143574683758375  0.47545700466931606  0.3397878089946716  1.0000
  H   H18       1.0  0.2856501002045989  0.524541001691574  0.6602130575431602  1.0000
  C   C1        1.0  0.1663887053168622  0.19826894903363976  0.9050140013531945  1.0000
  C   C2        1.0  0.8336176273690088  0.8017324843643789  0.09498810628652887  1.0000
  C   C3        1.0  0.2445482787450075  0.3687208160485865  0.00505772578104308  1.0000
  C   C4        1.0  0.7554543634764315  0.6312817179724631  0.9949434332405576  1.0000
  C   C5        1.0  0.2079653715063685  0.46844152044312165  0.94915607182611  1.0000
  C   C6        1.0  0.7920309585276045  0.5315597273463268  0.050845952561964135  1.0000
  C   C7        1.0  0.281743478105497  0.628123419795706  0.04452501303291707  1.0000
  C   C8        1.0  0.7182512000737094  0.3718743371326382  0.9554764614143354  1.0000
  C   C9        1.0  0.39482385140860293  0.6869474201953094  0.19425379557520014  1.0000
  C   C10       1.0  0.6051829761778011  0.31305515667624206  0.8057498299463361  1.0000
  C   C11       1.0  0.4414348164517391  0.5883853497898242  0.24933187344531393  1.0000
  C   C12       1.0  0.558564834511003  0.41161369923345587  0.7506665789006135  1.0000
  C   C13       1.0  0.3621687405203248  0.4289083368325563  0.1539623145100819  1.0000
  C   C14       1.0  0.637835757861083  0.5710919589552715  0.846036118512977  1.0000
  C   C15       1.0  0.5816308553712874  0.6529380074214257  0.4005396246879513  1.0000
  C   C16       1.0  0.41837337234758826  0.3470588067520879  0.5994594142029755  1.0000
  C   C17       1.0  0.5950953970740686  0.790478947969106  0.5210537157345315  1.0000
  C   C18       1.0  0.40489983964946674  0.20951659169948295  0.47894187505317387  1.0000
  C   C19       1.0  0.7390425819614421  0.8530454341373993  0.6585188785701562  1.0000
  C   C20       1.0  0.2609517466149001  0.14695461560133785  0.3414834749058713  1.0000
  C   C21       1.0  0.8525483435618855  0.6501650914375786  0.56934126471333  1.0000
  C   C22       1.0  0.14744887276378194  0.3498350221251271  0.4306603976016278  1.0000
  C   C23       1.0  0.7139298524351647  0.581643629063251  0.4283735009389957  1.0000
  C   C24       1.0  0.28607777786634614  0.4183577833613085  0.5716317643617331  1.0000
  C   C25       1.0  0.2381897545130085  0.7327241816355251  0.9840000871465479  1.0000
  C   C26       1.0  0.7618033182359768  0.2672759041868033  0.015998107742319696  1.0000
  N   N1        1.0  0.8669414997395822  0.7847038172166875  0.682682048225047  1.0000
  N   N2        1.0  0.1330542936055679  0.2152962719891035  0.31731945920736854  1.0000
  O   O1        1.0  0.1139036814503029  0.6729976252299535  0.8531451259824794  1.0000
  O   O2        1.0  0.8860970011018029  0.3270037258505098  0.1468553612009202  1.0000
  O   O3        1.0  0.31559203768888716  0.8807746888668501  0.0625452721710573  1.0000
  O   O4        1.0  0.6844039228094232  0.11922546077944665  0.9374522315567405  1.0000
  O   O5        1.0  0.3017926435036172  0.9254036638461256  0.7573765419003636  1.0000
  O   O6        1.0  0.698202551431628  0.07459186071233148  0.2426200498134961  1.0000
  O   O7        1.0  0.16232243555922576  0.14774786429567394  0.7671127684521013  1.0000
  O   O8        1.0  0.8376848252066366  0.8522524499857338  0.2328879761883513  1.0000
  O   O9        1.0  0.11355899223536882  0.10941509249529702  0.9724543155913851  1.0000
  O   O10       1.0  0.8864483302515682  0.8905886278497873  0.027550827811964593  1.0000
