data_image0
_chemical_formula_structural       Zn4H20C28N4O20
_chemical_formula_sum              "Zn4 H20 C28 N4 O20"
_cell_length_a       7.537245142979115
_cell_length_b       8.577521715353857
_cell_length_c       13.167245945022422
_cell_angle_alpha    89.99978838376283
_cell_angle_beta     90.00007795679004
_cell_angle_gamma    110.47652877880034

_space_group_name_H-M_alt    "P 1"
_space_group_IT_number       1

loop_
  _space_group_symop_operation_xyz
  'x, y, z'

loop_
  _atom_site_type_symbol
  _atom_site_label
  _atom_site_symmetry_multiplicity
  _atom_site_fract_x
  _atom_site_fract_y
  _atom_site_fract_z
  _atom_site_occupancy
  Zn  Zn1       1.0  0.913169388446157  0.007392668482722801  0.2040058032520022  1.0000
  Zn  Zn2       1.0  0.5868310344269859  0.4926090350590967  0.7040056251374907  1.0000
  Zn  Zn3       1.0  0.08683178540653802  0.9926077497887107  0.7959936918587758  1.0000
  Zn  Zn4       1.0  0.41316881704414493  0.5073913940457968  0.29599386997275456  1.0000
  H   H1        1.0  0.8024285047247517  0.9739820871703981  0.0102518546803623  1.0000
  H   H2        1.0  0.6975719265807286  0.5260181845604422  0.5102521272552352  1.0000
  H   H3        1.0  0.19757134674637916  0.026018341934488397  0.989747640429883  1.0000
  H   H4        1.0  0.30242792489040227  0.4739822445444445  0.48974736785500983  1.0000
  H   H5        1.0  0.6258405868023404  0.9491660204994048  0.08670819856475731  1.0000
  H   H6        1.0  0.8741585318117588  0.550833831910083  0.5867093089790175  1.0000
  H   H7        1.0  0.37415926466874794  0.050834408607620694  0.9132905370852242  1.0000
  H   H8        1.0  0.12583949031681388  0.44916536360430825  0.4132909455922587  1.0000
  H   H9        1.0  0.41218270736081314  0.8213855882509263  0.4877845472123283  1.0000
  H   H10       1.0  0.08781476767342869  0.6786112537894553  0.9877851259519306  1.0000
  H   H11       1.0  0.5878184664918821  0.17861483002050696  0.5122149478984497  1.0000
  H   H12       1.0  0.9121822405330992  0.32138545287916986  0.012215888082202801  1.0000
  H   H13       1.0  0.09751591397186832  0.8142493713366931  0.5495118435650711  1.0000
  H   H14       1.0  0.4024841502785604  0.6857499148090509  0.04951310276447882  1.0000
  H   H15       1.0  0.9024855683402891  0.18574854725765988  0.4504876515488334  1.0000
  H   H16       1.0  0.597515194231626  0.31424926986974805  0.9504879112675795  1.0000
  H   H17       1.0  0.8732793969076129  0.8715467245056912  0.4256106936991415  1.0000
  H   H18       1.0  0.6267202716201441  0.6284524656253366  0.9256099047333849  1.0000
  H   H19       1.0  0.12672126998413094  0.1284524493396546  0.5743903203334498  1.0000
  H   H20       1.0  0.3732777505083789  0.3715467298911932  0.0743895903776348  1.0000
  C   C1        1.0  0.5534871859822701  0.8882446293299892  0.2970810134067818  1.0000
  C   C2        1.0  0.9465106369130537  0.6117540503308089  0.7970820337246209  1.0000
  C   C3        1.0  0.44651266548891055  0.11175579977276578  0.7029192411637271  1.0000
  C   C4        1.0  0.05348738521556839  0.38824514518145037  0.2029189803069116  1.0000
  C   C5        1.0  0.36300964994914153  0.8857720933618863  0.33380084534866233  1.0000
  C   C6        1.0  0.1369893264523014  0.6142293482718202  0.8338023770480376  1.0000
  C   C7        1.0  0.6369910169424527  0.11422708048986858  0.6661978903031598  1.0000
  C   C8        1.0  0.863010018057878  0.385769836406986  0.16619863698402074  1.0000
  C   C9        1.0  0.3141194795641836  0.8487013478009968  0.4359057457594133  1.0000
  C   C10       1.0  0.18588144907864293  0.6512945091888227  0.9359079859062831  1.0000
  C   C11       1.0  0.6858793579848524  0.15129659246026247  0.5640937493534324  1.0000
  C   C12       1.0  0.8141173884704928  0.34870343106816637  0.0640930281270826  1.0000
  C   C13       1.0  0.13813690818122382  0.8440786372650066  0.47074364344049974  1.0000
  C   C14       1.0  0.361866162678929  0.6559157576400025  0.9707437317392832  1.0000
  C   C15       1.0  0.8618650810920343  0.15592052574902476  0.5292566111323681  1.0000
  C   C16       1.0  0.6381339972517212  0.3440821717856721  0.029256522834352  1.0000
  C   C17       1.0  0.22973948145200748  0.9160407742833527  0.269990905920146  1.0000
  C   C18       1.0  0.2702579659788996  0.5839572930909682  0.7699910958375824  1.0000
  C   C19       1.0  0.7702616924007374  0.08395964398594197  0.7300093486508886  1.0000
  C   C20       1.0  0.7297400561496732  0.4160419024234301  0.23000915873368652  1.0000
  C   C21       1.0  0.2636945578823386  0.9490811417654399  0.15775556414152453  1.0000
  C   C22       1.0  0.23630175144366197  0.5509213119968305  0.657753528670682  1.0000
  C   C23       1.0  0.7363018334052073  0.05092056425948498  0.8422446904260925  1.0000
  C   C24       1.0  0.7636972846069129  0.44908037236546505  0.3422452069774807  1.0000
  C   C25       1.0  0.013681264264285085  0.87578839136345  0.4026009849537431  1.0000
  C   C26       1.0  0.4863211810403456  0.6242113862803149  0.9025989685750488  1.0000
  C   C27       1.0  0.9863212319700665  0.12421201607025269  0.5974000290780808  1.0000
  C   C28       1.0  0.5136786704307355  0.37578904282671033  0.09739976707493982  1.0000
  N   N1        1.0  0.059878655838794224  0.9119584877443927  0.3049412054630807  1.0000
  N   N2        1.0  0.4401184875622235  0.5880418826742753  0.804940758960072  1.0000
  N   N3        1.0  0.9401211956323865  0.08804194135836238  0.695059049107421  1.0000
  N   N4        1.0  0.559880548488394  0.41195980168588153  0.19505873614834  1.0000
  O   O1        1.0  0.6875548444079344  0.027807055717694602  0.2907428870147228  1.0000
  O   O2        1.0  0.8124411153526552  0.472192947906791  0.7907436940031263  1.0000
  O   O3        1.0  0.31244500706324624  0.9721933733850603  0.7092573675557788  1.0000
  O   O4        1.0  0.18755395355336904  0.5278087689494555  0.20925732002421427  1.0000
  O   O5        1.0  0.7513853151530157  0.9368341783481282  0.0803265179689134  1.0000
  O   O6        1.0  0.7486143096132098  0.5631669543918959  0.5803259815602999  1.0000
  O   O7        1.0  0.24861453631811511  0.0631662507567654  0.9196729771413318  1.0000
  O   O8        1.0  0.25138472643741494  0.43683472996826106  0.41967351354811916  1.0000
  O   O9        1.0  0.5773698821514728  0.7508231318000895  0.2806457087603036  1.0000
  O   O10       1.0  0.9226324127663478  0.7491768522586567  0.7806433416518319  1.0000
  O   O11       1.0  0.42262996931985003  0.24917729729625648  0.7193568241909746  1.0000
  O   O12       1.0  0.0773700834678621  0.25082355518145494  0.2193553939992228  1.0000
  O   O13       1.0  0.13119610050352282  0.9773782037797999  0.10804424761455071  1.0000
  O   O14       1.0  0.3688099661538756  0.5226256982577906  0.6080401055489021  1.0000
  O   O15       1.0  0.8688058887698277  0.022620959229954  0.8919575258788298  1.0000
  O   O16       1.0  0.63119405096338  0.47737844245204286  0.3919571111777316  1.0000
  O   O17       1.0  0.41343490876533917  0.9447942613476883  0.11968084730465021  1.0000
  O   O18       1.0  0.08656780914155589  0.5552046083488235  0.619683241146106  1.0000
  O   O19       1.0  0.5865689098503353  0.055206135263247795  0.8803163694264101  1.0000
  O   O20       1.0  0.9134323507891866  0.4447933210725735  0.38031853234804214  1.0000
