data_image0
_chemical_formula_structural       Zn4H64C40N8Cl8O16
_chemical_formula_sum              "Zn4 H64 C40 N8 Cl8 O16"
_cell_length_a       7.063066704
_cell_length_b       10.116020159
_cell_length_c       18.145
_cell_angle_alpha    90.0
_cell_angle_beta     90.0
_cell_angle_gamma    90.0

_space_group_name_H-M_alt    "P 1"
_space_group_IT_number       1

loop_
  _space_group_symop_operation_xyz
  'x, y, z'

loop_
  _atom_site_type_symbol
  _atom_site_label
  _atom_site_symmetry_multiplicity
  _atom_site_fract_x
  _atom_site_fract_y
  _atom_site_fract_z
  _atom_site_occupancy
  Zn  Zn1       1.0  0.4374742770374951  0.4484263503532233  0.1311314411683639  1.0000
  Zn  Zn2       1.0  0.0625252483811138  0.5515736339291308  0.631131441168364  1.0000
  Zn  Zn3       1.0  0.5625290212465188  0.9484253539633514  0.3688691099476458  1.0000
  Zn  Zn4       1.0  0.9374695550093151  0.0515756188500518  0.8688680077156263  1.0000
  H   H1        1.0  0.9456232370306665  0.3920711838905717  0.8379222926426024  1.0000
  H   H2        1.0  0.5543767550407637  0.6079258347986425  0.3379233948746219  1.0000
  H   H3        1.0  0.0543786454377511  0.8920731530938397  0.6620777073573976  1.0000
  H   H4        1.0  0.4456237116120576  0.1079268311885144  0.1620771562413879  1.0000
  H   H5        1.0  0.0570672792558682  0.5461011260525339  0.860400661339213  1.0000
  H   H6        1.0  0.4429322461627407  0.45389786969877827  0.3604017635712324  1.0000
  H   H7        1.0  0.9429331873969531  0.0461011339113497  0.6395982364287676  1.0000
  H   H8        1.0  0.5570668046744842  0.9538988503710043  0.1395976853127578  1.0000
  H   H9        1.0  0.832785565605498  0.6708547327243437  0.7970427114907679  1.0000
  H   H10       1.0  0.667213010650336  0.3291422859648705  0.2970438137227873  1.0000
  H   H11       1.0  0.1672134852317271  0.1708596832383975  0.7029550840451932  1.0000
  H   H12       1.0  0.3327888718180816  0.8291422781060547  0.2029561862772127  1.0000
  H   H13       1.0  0.7572418928127931  0.5180970300199661  0.7560677872692168  1.0000
  H   H14       1.0  0.7427552676274446  0.4818990001381991  0.2560677872692168  1.0000
  H   H15       1.0  0.2427557422088285  0.0181039575961179  0.7439322127307832  1.0000
  H   H16       1.0  0.2572451990253768  0.9818989922793833  0.2439322127307832  1.0000
  H   H17       1.0  0.7121000283278676  0.2972819303176735  0.9253094516395707  1.0000
  H   H18       1.0  0.7878999637435697  0.7027160769025897  0.42531055387159  1.0000
  H   H19       1.0  0.2879004383249537  0.7972819224588505  0.5746905483604294  1.0000
  H   H20       1.0  0.2120990870936552  0.2027180618235036  0.0746910994764391  1.0000
  H   H21       1.0  0.6035027246147919  0.4094554908844188  0.9877734913199205  1.0000
  H   H22       1.0  0.8964986832722417  0.5905425163358444  0.4877740424359303  1.0000
  H   H23       1.0  0.3964977420380293  0.9094554830255958  0.5122265086800795  1.0000
  H   H24       1.0  0.1035003675649833  0.0905445012567583  0.0122270597960892  1.0000
  H   H25       1.0  0.0126545598032308  0.3215128033435519  0.9635982364287656  1.0000
  H   H26       1.0  0.4873421339841856  0.6784842153456623  0.4635965830807365  1.0000
  H   H27       1.0  0.9873459068495833  0.821512795484736  0.5364034169192635  1.0000
  H   H28       1.0  0.5126555010374432  0.1784862002665761  0.0364023146872441  1.0000
  H   H29       1.0  0.9051592272772027  0.4052809242726241  0.0394521906861414  1.0000
  H   H30       1.0  0.5948393489786312  0.5947200485407791  0.5394521906861414  1.0000
  H   H31       1.0  0.0948426551912149  0.9052779508206612  0.46054836042986846  1.0000
  H   H32       1.0  0.4051597018585937  0.094720056399602  0.9605478093138586  1.0000
  H   H33       1.0  0.3910723366715061  0.4510548544073956  0.8910923119316648  1.0000
  H   H34       1.0  0.1089271887471028  0.5489431528128677  0.3910928630476747  1.0000
  H   H35       1.0  0.6089267141657189  0.9510558350796215  0.6089076880683351  1.0000
  H   H36       1.0  0.8910732779057184  0.0489431606716906  0.1089082391843448  1.0000
  H   H37       1.0  0.5437680487747514  0.3828877304632528  0.8230179112703198  1.0000
  H   H38       1.0  0.9562305274810825  0.6171112652880595  0.3230179112703198  1.0000
  H   H39       1.0  0.4562295862468773  0.8828896996665208  0.67698263984569  1.0000
  H   H40       1.0  0.0437685233561425  0.11711028461583338  0.1769831909616997  1.0000
  H   H41       1.0  0.4875615854016715  0.663667123481062  0.9450934141636793  1.0000
  H   H42       1.0  0.0124379400169374  0.3363318722702431  0.445093965279689  1.0000
  H   H43       1.0  0.5124402970667461  0.163667131339885  0.5549054836043013  1.0000
  H   H44       1.0  0.9875611108202804  0.8363328529424691  0.0549071369523304  1.0000
  H   H45       1.0  0.6452338893272866  0.7699826490628466  0.8943229539818134  1.0000
  H   H46       1.0  0.8547661027441436  0.2300183237505564  0.3943240562138328  1.0000
  H   H47       1.0  0.3547651615099312  0.26998463398376765  0.6056759437861672  1.0000
  H   H48       1.0  0.1452343639086777  0.7300183158917335  0.1056759437861672  1.0000
  H   H49       1.0  0.5100135891340187  0.7415435993695708  0.7804568751722272  1.0000
  H   H50       1.0  0.9899878187530149  0.2584563849127832  0.2804563240562103  1.0000
  H   H51       1.0  0.4899854617032062  0.2415475613525828  0.719540920363734  1.0000
  H   H52       1.0  0.010015479530999  0.7584543999918694  0.2195431248277728  1.0000
  H   H53       1.0  0.330615594877159  0.6744806646050066  0.8364331771837996  1.0000
  H   H54       1.0  0.1693853463570534  0.3255203082083966  0.3364326260677899  1.0000
  H   H55       1.0  0.6693848717756623  0.1744806724638295  0.6635673739322101  1.0000
  H   H56       1.0  0.8306165361113642  0.8255203003495736  0.1635684761642295  1.0000
  H   H57       1.0  0.9139670161042304  0.6847099838801327  0.9523813722788645  1.0000
  H   H58       1.0  0.5860329759672069  0.3152890118711724  0.4523824745108839  1.0000
  H   H59       1.0  0.08603345054859092  0.18470999173895558  0.547617525489116  1.0000
  H   H60       1.0  0.413966074870018  0.8152899925433986  0.047617525489116  1.0000
  H   H61       1.0  0.7523332601390678  0.6158073928369703  0.0186051253788904  1.0000
  H   H62       1.0  0.7476667319323695  0.384191602914342  0.5186062276109098  1.0000
  H   H63       1.0  0.2476672065137535  0.1158074006957932  0.48139377238909015  1.0000
  H   H64       1.0  0.2523309030892591  0.884192583586568  0.9813937723890902  1.0000
  C   C1        1.0  0.9220555706081299  0.4935695976799579  0.8570498759988965  1.0000
  C   C2        1.0  0.5779472530945  0.5064303866023963  0.3570493248828868  1.0000
  C   C3        1.0  0.077947727675884  0.993569589821135  0.642951226233123  1.0000
  C   C4        1.0  0.42205321355832137  0.0064313829922682  0.1429501240011035  1.0000
  C   C5        1.0  0.782981420360656  0.5701491208347065  0.8080181868283276  1.0000
  C   C6        1.0  0.717017155895178  0.42984987491660576  0.3080176357123179  1.0000
  C   C7        1.0  0.2170162146609655  0.0701520942866694  0.6919812620556627  1.0000
  C   C8        1.0  0.282986142388836  0.9298498670577827  0.1919823642876821  1.0000
  C   C9        1.0  0.6689473847562866  0.40037682174808953  0.9333066960595174  1.0000
  C   C10       1.0  0.8310526073151436  0.5996211854721736  0.4333072471755273  1.0000
  C   C11       1.0  0.3310530818965347  0.9003778024203157  0.5666933039404825  1.0000
  C   C12       1.0  0.1689464435220742  0.0996231703930874  0.0666944061725019  1.0000
  C   C13       1.0  0.9818327209160671  0.4191124506832864  0.9871430146045768  1.0000
  C   C14       1.0  0.5181686869709594  0.5808865450680258  0.4871430146045768  1.0000
  C   C15       1.0  0.0181705773679468  0.9191114542934145  0.5128569853954232  1.0000
  C   C16       1.0  0.4818331954974582  0.0808875414578907  0.0128569853954232  1.0000
  C   C17       1.0  0.537285029157502  0.4461665683796099  0.8716946817305029  1.0000
  C   C18       1.0  0.9627149629139353  0.5538324273716952  0.3716946817305029  1.0000
  C   C19       1.0  0.4627154374953193  0.9461675490518359  0.6283053182694971  1.0000
  C   C20       1.0  0.0372840879232896  0.0538324352305182  0.1283058693855068  1.0000
  C   C21       1.0  0.6211225497156221  0.669235518869236  0.9143405896941273  1.0000
  C   C22       1.0  0.8788774423558081  0.3307614998199782  0.4143405896941275  1.0000
  C   C23       1.0  0.3788779169371992  0.16923750379014987  0.5856588591898628  1.0000
  C   C24       1.0  0.1211216084814168  0.8307634690232532  0.0856599614218823  1.0000
  C   C25       1.0  0.448217485785193  0.6480424017510131  0.799693028382471  1.0000
  C   C26       1.0  0.0517806238178196  0.3519575825313481  0.2996924772664613  1.0000
  C   C27       1.0  0.5517787334208393  0.148045375202976  0.7003064205015122  1.0000
  C   C28       1.0  0.948221258650598  0.8519565861414761  0.2003080738495484  1.0000
  C   C29       1.0  0.3697954598844149  0.5692347296161628  0.7343620832185209  1.0000
  C   C30       1.0  0.1302054813497904  0.4307662431972402  0.2343615321025041  1.0000
  C   C31       1.0  0.6302007593216103  0.0692406686612657  0.7656384678974959  1.0000
  C   C32       1.0  0.8697978169342234  0.9307632697452775  0.2656390190135056  1.0000
  C   C33       1.0  0.1701286495453118  0.4874673955263731  0.0027544778175823  1.0000
  C   C34       1.0  0.329879370766875  0.5125306116938901  0.5027533755855629  1.0000
  C   C35       1.0  0.829870401291906  0.987471341791739  0.4972471755304468  1.0000
  C   C36       1.0  0.6701281749639278  0.0125316080837621  0.9972455221824178  1.0000
  C   C37       1.0  0.7899203326000475  0.6216367604215662  0.9599779553596051  1.0000
  C   C38       1.0  0.7100782436557865  0.37836322386079496  0.45997905759162455  1.0000
  C   C39       1.0  0.2100801340527738  0.1216357797493401  0.5400209424083755  1.0000
  C   C40       1.0  0.2899193913658422  0.878364204533014  0.0400209424083755  1.0000
  N   N1        1.0  0.8452419112251945  0.48487151299675446  0.93470212179664  1.0000
  N   N2        1.0  0.6547580808462357  0.5151264942235088  0.4347032240286595  1.0000
  N   N3        1.0  0.1547585554276267  0.9848724936689806  0.5652973270873503  1.0000
  N   N4        1.0  0.3452409699909893  0.015127490613373599  0.0652967759713405  1.0000
  N   N5        1.0  0.5958431622366831  0.5823466054245543  0.8470895563516123  1.0000
  N   N6        1.0  0.9041539982035545  0.4176523903267579  0.347090107467622  1.0000
  N   N7        1.0  0.4041544727849455  0.0823476018144191  0.652909892532378  1.0000
  N   N8        1.0  0.0958450526336705  0.917653370998984  0.1529104436483877  1.0000
  Cl  Cl1       1.0  0.6880311631840996  0.3052247772809125  0.1291650592449685  1.0000
  Cl  Cl2       1.0  0.8119688288873306  0.6947742184703998  0.6291667125929976  1.0000
  Cl  Cl3       1.0  0.3119678876531253  0.8052267464841875  0.3708343896390218  1.0000
  Cl  Cl4       1.0  0.1880316377654836  0.1947752148602646  0.8708338385230121  1.0000
  Cl  Cl5       1.0  0.5514177004436789  0.65096548805721  0.1468305318269501  1.0000
  Cl  Cl6       1.0  0.9485822916277513  0.3490335076941022  0.64683053182695  1.0000
  Cl  Cl7       1.0  0.4485884294715277  0.1509645073849839  0.3531661614769916  1.0000
  Cl  Cl8       1.0  0.0514082643158886  0.8490344883663282  0.8531689170570402  1.0000
  O   O1        1.0  0.2279887855353309  0.6326994113693729  0.70646073298429  1.0000
  O   O2        1.0  0.2720093240676817  0.3673035385061283  0.20646073298429  1.0000
  O   O3        1.0  0.7719989387771165  0.1327063389455247  0.7935425737117683  1.0000
  O   O4        1.0  0.7279982216631211  0.8672995765231164  0.2935420225957586  1.0000
  O   O5        1.0  0.4360046604481269  0.46147100605041663  0.7139526040231488  1.0000
  O   O6        1.0  0.0639934491548857  0.5385319438250846  0.2139526040231488  1.0000
  O   O7        1.0  0.5639929745735017  0.9614729752536846  0.7860473959768512  1.0000
  O   O8        1.0  0.9360070174979356  0.03853195168390759  0.2860473959768512  1.0000
  O   O9        1.0  0.2768089389404693  0.4115996147255174  0.0420804629374487  1.0000
  O   O10       1.0  0.2231976655561283  0.5883993810257877  0.542079911821439  1.0000
  O   O11       1.0  0.7231943593435446  0.9115976298046035  0.45792008817856095  1.0000
  O   O12       1.0  0.7768084643590782  0.0884013659467016  0.957920088178561  1.0000
  O   O13       1.0  0.2090777366103183  0.5996567725898672  0.978713695232848  1.0000
  O   O14       1.0  0.2909203729927015  0.400339257568298  0.47871424634885773  1.0000
  O   O15       1.0  0.790926977489292  0.09965084926241019  0.5212857536511422  1.0000
  O   O16       1.0  0.7090758462133309  0.9003432038336642  0.0212852025351324  1.0000
