data_image0
_chemical_formula_structural       Cd4H24C48N8O16F8
_chemical_formula_sum              "Cd4 H24 C48 N8 O16 F8"
_cell_length_a       9.681201859102297
_cell_length_b       10.983552796154424
_cell_length_c       12.975150276755805
_cell_angle_alpha    107.36142461877856
_cell_angle_beta     89.99950074093334
_cell_angle_gamma    90.00003613257206

_space_group_name_H-M_alt    "P 1"
_space_group_IT_number       1

loop_
  _space_group_symop_operation_xyz
  'x, y, z'

loop_
  _atom_site_type_symbol
  _atom_site_label
  _atom_site_symmetry_multiplicity
  _atom_site_fract_x
  _atom_site_fract_y
  _atom_site_fract_z
  _atom_site_occupancy
  Cd  Cd1       1.0  0.6294804689386949  0.0927357020527424  0.4147568078696723  1.0000
  Cd  Cd2       1.0  0.12948565887105448  0.40726473299947935  0.08524377021665687  1.0000
  Cd  Cd3       1.0  0.3705160930603384  0.9072646888812342  0.5852428799605676  1.0000
  Cd  Cd4       1.0  0.8705150348414248  0.5927318651317605  0.9147565373363096  1.0000
  H   H1        1.0  0.4144273519190876  0.20211512602661227  0.2884305265457954  1.0000
  H   H2        1.0  0.9144308285949094  0.29789331035768635  0.2115693205744122  1.0000
  H   H3        1.0  0.5855743747178224  0.7978909992566442  0.7115713256660429  1.0000
  H   H4        1.0  0.0855843261519098  0.7020965769820577  0.7884270437069392  1.0000
  H   H5        1.0  0.5117450648452859  0.3312754210709343  0.6160235779723635  1.0000
  H   H6        1.0  0.011755969036379097  0.1687105658139458  0.8839772345998044  1.0000
  H   H7        1.0  0.48825872765274164  0.6687287965218118  0.3839778105992266  1.0000
  H   H8        1.0  0.9882395600504522  0.8312812179447847  0.11601881988316624  1.0000
  H   H9        1.0  0.19985998485203274  0.5320059755722752  0.4918046050869763  1.0000
  H   H10       1.0  0.6998566096176899  0.9680066948115639  0.008206160073022809  1.0000
  H   H11       1.0  0.8001407088439904  0.4679982758910199  0.5081991040005391  1.0000
  H   H12       1.0  0.30014511698537655  0.0319938090086964  0.9918012627547412  1.0000
  H   H13       1.0  0.5097460516572525  0.10592565574926739  0.8341690286053309  1.0000
  H   H14       1.0  0.009749281267282597  0.39407543861543815  0.665824678372772  1.0000
  H   H15       1.0  0.4902525762619945  0.8940707730468416  0.16581967643096351  1.0000
  H   H16       1.0  0.9902483136110618  0.6059269841865528  0.3341839816042622  1.0000
  H   H17       1.0  0.6743613800331615  0.45292416139142927  0.054818003688495806  1.0000
  H   H18       1.0  0.17436013277928447  0.04706758768995199  0.44517939265739415  1.0000
  H   H19       1.0  0.3256289844071886  0.5470704726160065  0.9451779727606465  1.0000
  H   H20       1.0  0.8256364292306414  0.9529394349969779  0.5548188238813623  1.0000
  H   H21       1.0  0.7902108743030495  0.35385365340614067  0.7316373604967836  1.0000
  H   H22       1.0  0.2902044847700296  0.1461421765004403  0.7683578167730899  1.0000
  H   H23       1.0  0.2097877535752701  0.6461485887684686  0.2683589234508688  1.0000
  H   H24       1.0  0.7097910443080123  0.8538496298365887  0.23163978471308874  1.0000
  C   C1        1.0  0.2246059982790527  0.3800470054260785  0.2792939170165952  1.0000
  C   C2        1.0  0.7246051039279138  0.1199732807030145  0.22071162043777554  1.0000
  C   C3        1.0  0.775396761285549  0.6199610275445833  0.7207083988243781  1.0000
  C   C4        1.0  0.27539868856667477  0.8800299943346628  0.779290309819004  1.0000
  C   C5        1.0  0.2982543460594016  0.36831694180465746  0.3779308814111602  1.0000
  C   C6        1.0  0.7982535505618458  0.13169371449234998  0.12207567713437578  1.0000
  C   C7        1.0  0.7017473805799952  0.6316910798778961  0.622070660931911  1.0000
  C   C8        1.0  0.20175127484992567  0.8683000785478113  0.8779278024625369  1.0000
  C   C9        1.0  0.3950625986867066  0.27083897789115946  0.3671510810490091  1.0000
  C   C10       1.0  0.8950669192665401  0.22916663583081484  0.1328482095151173  1.0000
  C   C11       1.0  0.6049380950137148  0.7291652622829828  0.6328518545369021  1.0000
  C   C12       1.0  0.10494823548142308  0.7708308596843947  0.8671484622943739  1.0000
  C   C13       1.0  0.44888341736562853  0.3417402973360879  0.5495495855392037  1.0000
  C   C14       1.0  0.9488902660596422  0.15825436180934818  0.9504511832818496  1.0000
  C   C15       1.0  0.5511183092756795  0.6582658166580229  0.4504514931710304  1.0000
  C   C16       1.0  0.05110836178081969  0.8417375122594491  0.049551059202848045  1.0000
  C   C17       1.0  0.35270832324749785  0.43960048203564367  0.565157813276315  1.0000
  C   C18       1.0  0.852709077638302  0.06040200092348869  0.9348454999262616  1.0000
  C   C19       1.0  0.6472923704557941  0.5604008966058415  0.4348444268603445  1.0000
  C   C20       1.0  0.1472864514257708  0.9395993551448855  0.06515519322571352  1.0000
  C   C21       1.0  0.27501907968519385  0.45507692260537874  0.47997775682164706  1.0000
  C   C22       1.0  0.775016281124195  0.044933802912460394  0.0200305153922429  1.0000
  C   C23       1.0  0.7249816140054718  0.5449282939912833  0.5200269575839016  1.0000
  C   C24       1.0  0.22498647844060574  0.95506091010656  0.9799708755236836  1.0000
  C   C25       1.0  0.6428648714434928  0.13920533371249627  0.6519149101102997  1.0000
  C   C26       1.0  0.1428525729135401  0.3607897703909231  0.8480764512130037  1.0000
  C   C27       1.0  0.35714201989269156  0.8607978058523071  0.3480777381161034  1.0000
  C   C28       1.0  0.8571460549190772  0.6392011724119512  0.15192710645848  1.0000
  C   C29       1.0  0.6499067535164045  0.2194205686015565  0.7682995736323619  1.0000
  C   C30       1.0  0.1499029494018629  0.2805755316480116  0.7316958364761064  1.0000
  C   C31       1.0  0.3500960060929543  0.7805778356137336  0.23169423603157915  1.0000
  C   C32       1.0  0.8500998101663838  0.7194201239260847  0.26830501275463087  1.0000
  C   C33       1.0  0.5741150679421877  0.19122802551746787  0.8500259021647951  1.0000
  C   C34       1.0  0.0741173802933588  0.30876817041809085  0.6499661840394  1.0000
  C   C35       1.0  0.4258825270430576  0.8087684145688242  0.1499635763768126  1.0000
  C   C36       1.0  0.9258781487403099  0.6912285067423554  0.3500395380433119  1.0000
  C   C37       1.0  0.5841659521631397  0.2769327688816787  0.9530363177701275  1.0000
  C   C38       1.0  0.0841714378449296  0.2230634971885763  0.5469618843442561  1.0000
  C   C39       1.0  0.4158264781530505  0.7230627738113142  0.04695679648160216  1.0000
  C   C40       1.0  0.9158292558359873  0.7769426958305983  0.45304460888092274  1.0000
  C   C41       1.0  0.6661949450508615  0.3857079622699686  0.9741207234647862  1.0000
  C   C42       1.0  0.16619439048068327  0.11428530019385619  0.5258777418616347  1.0000
  C   C43       1.0  0.3337985181782912  0.6142866717343551  0.02587525297324331  1.0000
  C   C44       1.0  0.833801138583965  0.8857198599622578  0.47412310505441013  1.0000
  C   C45       1.0  0.7312343608848053  0.32946396383826476  0.7940924548250338  1.0000
  C   C46       1.0  0.2312317996511553  0.17053582240415469  0.7059056197166739  1.0000
  C   C47       1.0  0.2687632340585537  0.670539243470749  0.20590483444434676  1.0000
  C   C48       1.0  0.7687616635506556  0.8294598331792712  0.2940952295474021  1.0000
  N   N1        1.0  0.4680716452954528  0.25809102517240484  0.45126931169744483  1.0000
  N   N2        1.0  0.9680831307342358  0.2419049487045298  0.04873023101637839  1.0000
  N   N3        1.0  0.5319321472085008  0.741916031374707  0.5487312253201964  1.0000
  N   N4        1.0  0.0319227276266432  0.7580868914895688  0.9512696909375721  1.0000
  N   N5        1.0  0.7388392816919307  0.4103076238648029  0.8943383340302874  1.0000
  N   N6        1.0  0.23883573434194005  0.0896845050702169  0.605657057934728  1.0000
  N   N7        1.0  0.2611583132562103  0.5896908142231112  0.10565779615699708  1.0000
  N   N8        1.0  0.7611608276731586  0.9103129904636517  0.39433961394144756  1.0000
  O   O1        1.0  0.123354065306998  0.45646064278047044  0.291686958951921  1.0000
  O   O2        1.0  0.6233522209773099  0.043554225131209996  0.20832487536439  1.0000
  O   O3        1.0  0.8766497271812811  0.5435445512347882  0.7083162084392997  1.0000
  O   O4        1.0  0.376655703220976  0.9564462335262431  0.7916794534347389  1.0000
  O   O5        1.0  0.2713104066811667  0.31448196306220677  0.18771011419287484  1.0000
  O   O6        1.0  0.771299223218783  0.1855430098369482  0.3122970208886713  1.0000
  O   O7        1.0  0.7286913199435006  0.6855232422442725  0.8122938267073608  1.0000
  O   O8        1.0  0.22869940462339136  0.8144602764950548  0.687705682888236  1.0000
  O   O9        1.0  0.7138233944778561  0.18046244348526838  0.5859810372846469  1.0000
  O   O10       1.0  0.21381341274564386  0.3195316772268839  0.9140173182707798  1.0000
  O   O11       1.0  0.286192793202197  0.8195369484282011  0.4140153246523753  1.0000
  O   O12       1.0  0.7861903797441842  0.6804544850605507  0.08598430679848686  1.0000
  O   O13       1.0  0.5684517040269412  0.04045987841832499  0.6252629524968826  1.0000
  O   O14       1.0  0.06845053938660327  0.45954774115209307  0.8747296356332015  1.0000
  O   O15       1.0  0.43154072634087015  0.9595498026007687  0.37472203647705987  1.0000
  O   O16       1.0  0.9315522201288644  0.5404480498917578  0.1252804956167921  1.0000
  F   F1        1.0  0.33614681751570424  0.5204193507636956  0.6663735277085863  1.0000
  F   F2        1.0  0.8361366476559695  0.9795858907138705  0.8336305429916351  1.0000
  F   F3        1.0  0.6638497444638175  0.4795829930153061  0.33362971776091405  1.0000
  F   F4        1.0  0.16384751919068918  0.020411638699883397  0.16636844943381132  1.0000
  F   F5        1.0  0.5135394385423737  0.25503893172344044  0.035776373272057085  1.0000
  F   F6        1.0  0.013546388422938099  0.2449597154774068  0.46421683776112843  1.0000
  F   F7        1.0  0.4864498930098692  0.7449536929942652  0.964212178033506  1.0000
  F   F8        1.0  0.986450173551411  0.7550521554546491  0.5357879523709528  1.0000
