data_image0
_chemical_formula_structural       Zn2H6C18N2O8
_chemical_formula_sum              "Zn2 H6 C18 N2 O8"
_cell_length_a       8.293208895242076
_cell_length_b       9.320340851940122
_cell_length_c       16.084632267550333
_cell_angle_alpha    90.03068185212906
_cell_angle_beta     90.00719925374175
_cell_angle_gamma    89.95865750862932

_space_group_name_H-M_alt    "P 1"
_space_group_IT_number       1

loop_
  _space_group_symop_operation_xyz
  'x, y, z'

loop_
  _atom_site_type_symbol
  _atom_site_label
  _atom_site_symmetry_multiplicity
  _atom_site_fract_x
  _atom_site_fract_y
  _atom_site_fract_z
  _atom_site_occupancy
  Zn  Zn1       1.0  0.6587076501168241  0.49993435438987166  0.49992379916434965  1.0000
  Zn  Zn2       1.0  0.34129247102897864  0.5000644980095784  0.5000767447808697  1.0000
  H   H1        1.0  0.350154699344941  0.7083554174772287  0.05195547848234839  1.0000
  H   H2        1.0  0.649845420047356  0.29164772661205524  0.9480450661315059  1.0000
  H   H3        1.0  0.6265177317233607  0.7199302900390945  0.9480007171473444  1.0000
  H   H4        1.0  0.37348238799737743  0.2800717808417445  0.05199920558783329  1.0000
  H   H5        1.0  0.22050821750783461  0.48816346884545675  0.950124715990313  1.0000
  H   H6        1.0  0.7794931075806417  0.511839674573771  0.0498752069332724  1.0000
  C   C1        1.0  0.4999773209102614  0.9348564310613622  0.5000061636333015  1.0000
  C   C2        1.0  0.5833972805343279  0.3841604654973382  0.972043312193385  1.0000
  C   C3        1.0  0.4995837219674684  0.4999040487116346  0.24925437673380196  1.0000
  C   C4        1.0  0.5004163987399579  0.500095876610267  0.7507461673785727  1.0000
  C   C5        1.0  0.6554234232061448  0.5065899074297775  0.027033003146072994  1.0000
  C   C6        1.0  0.3445766965145863  0.49341216345106165  0.9729669195891049  1.0000
  C   C7        1.0  0.5019963733471825  0.500212068635541  0.08554291582978378  1.0000
  C   C8        1.0  0.49800374637355554  0.4997900022452909  0.914457006905394  1.0000
  C   C9        1.0  0.5008592503275936  0.5000533140813059  0.1734584684794527  1.0000
  C   C10       1.0  0.49914086983152123  0.4999476838770674  0.82654145408857  1.0000
  C   C11       1.0  0.5000191827072699  0.06514242220429617  0.49999375853663247  1.0000
  C   C12       1.0  0.500007045632536  0.7794865557373  0.5000155293682907  1.0000
  C   C13       1.0  0.49998825239875083  0.22051229848440804  0.49998563620342645  1.0000
  C   C14       1.0  0.49949825753949284  0.49989691111014156  0.3386260198630495  1.0000
  C   C15       1.0  0.5005018634963748  0.5001019410033152  0.6613739023706556  1.0000
  C   C16       1.0  0.5704340307752603  0.6222857387751332  0.9720435028712371  1.0000
  C   C17       1.0  0.4295660890554132  0.37771633239169927  0.027957041575454897  1.0000
  C   C18       1.0  0.4166028387480267  0.6158426783059525  0.027956610708947893  1.0000
  N   N1        1.0  0.06680039231211049  0.5000564311487208  0.500056970133336  1.0000
  N   N2        1.0  0.9331985217124482  0.4999456404021742  0.49994357429209657  1.0000
  O   O1        1.0  0.6377108665204431  0.7185221340329587  0.49994007687070047  1.0000
  O   O2        1.0  0.36228804903912254  0.2814767193225335  0.5000617104763023  1.0000
  O   O3        1.0  0.3623638590911468  0.718619565955535  0.5000943827593716  1.0000
  O   O4        1.0  0.6376338498941223  0.2813803598485122  0.49990553959897704  1.0000
  O   O5        1.0  0.6371738884036021  0.49989317157817936  0.3745105306148133  1.0000
  O   O6        1.0  0.3628286443544297  0.5001056800531315  0.625490013372918  1.0000
  O   O7        1.0  0.3619125088442843  0.49992402501016653  0.37459954793947486  1.0000
  O   O8        1.0  0.6380888188744508  0.5000726808742967  0.6254003739811651  1.0000
