data_image0
_chemical_formula_structural       Cu2P4H24C26N4O12
_chemical_formula_sum              "Cu2 P4 H24 C26 N4 O12"
_cell_length_a       4.870157124550516
_cell_length_b       11.254002989770171
_cell_length_c       14.425449174519496
_cell_angle_alpha    80.55942229933645
_cell_angle_beta     80.27926091140957
_cell_angle_gamma    77.52587418273849

_space_group_name_H-M_alt    "P 1"
_space_group_IT_number       1

loop_
  _space_group_symop_operation_xyz
  'x, y, z'

loop_
  _atom_site_type_symbol
  _atom_site_label
  _atom_site_symmetry_multiplicity
  _atom_site_fract_x
  _atom_site_fract_y
  _atom_site_fract_z
  _atom_site_occupancy
  Cu  Cu1       1.0  0.7248242176137084  0.565571679860433  0.4485405474721987  1.0000
  Cu  Cu2       1.0  0.2610528820992639  0.0653040765312198  0.9486433438833756  1.0000
  P   P1        1.0  0.10818853425656291  0.5691871823038211  0.6000118217397911  1.0000
  P   P2        1.0  0.7226640863921361  0.0693089487631582  0.10009654985671548  1.0000
  P   P3        1.0  0.8351797868480164  0.81106684169098  0.49583404581374424  1.0000
  P   P4        1.0  0.8587296210478002  0.31099604813528703  0.9955675734741192  1.0000
  H   H1        1.0  0.21447961362218118  0.4834846214551972  0.7385944642322073  1.0000
  H   H2        1.0  0.5621996084710901  0.9838718327156001  0.23863446097765717  1.0000
  H   H3        1.0  0.36164590904805044  0.8849288891880247  0.498180972567333  1.0000
  H   H4        1.0  0.25696550749992725  0.3846887313381373  0.9977716776741659  1.0000
  H   H5        1.0  0.9241057168942962  0.7623053412202406  0.65863523743608  1.0000
  H   H6        1.0  0.6553516140176754  0.2625869603771278  0.1584305764908791  1.0000
  H   H7        1.0  0.6514507078064683  0.6900876523479977  0.6343894159269398  1.0000
  H   H8        1.0  0.024381879488949203  0.19036157168425652  0.1342553121293548  1.0000
  H   H9        1.0  0.45533252533565616  0.7952734502180473  0.3214405625546348  1.0000
  H   H10       1.0  0.42742656686826286  0.29498390704557653  0.8212753171977099  1.0000
  H   H11       1.0  0.1372020030212797  0.8291202200105301  0.194327758558849  1.0000
  H   H12       1.0  0.8386435475845461  0.32891214306106054  0.6941065790527219  1.0000
  H   H13       1.0  0.9991741657985853  0.6465727073225764  0.14820268064593728  1.0000
  H   H14       1.0  0.20535178325436468  0.1464214941197071  0.648051222898431  1.0000
  H   H15       1.0  0.4989689028669986  0.08826862750397169  0.4020584803237525  1.0000
  H   H16       1.0  0.011098952749385634  0.5882289708123523  0.9025105782280888  1.0000
  H   H17       1.0  0.8202142510682223  0.09270741371664566  0.5156083615008953  1.0000
  H   H18       1.0  0.571743913836869  0.5924511013367563  0.015916731184809414  1.0000
  H   H19       1.0  0.9270165196613295  0.29828780488760026  0.536448093671126  1.0000
  H   H20       1.0  0.23842703119988312  0.7980551455403172  0.036811143603387116  1.0000
  H   H21       1.0  0.1948821166997803  0.21254992595301303  0.2720908719825417  1.0000
  H   H22       1.0  0.32079274637493443  0.7126336792788521  0.7724372615573074  1.0000
  H   H23       1.0  0.029169389788485538  0.4119178209379297  0.17779791152678112  1.0000
  H   H24       1.0  0.380953294740685  0.911889364107054  0.6778345666830177  1.0000
  C   C1        1.0  0.8614907530074232  0.7130923971718416  0.6085225389360076  1.0000
  C   C2        1.0  0.8172967378853498  0.21328277178266566  0.1083702247246379  1.0000
  C   C3        1.0  0.389902270374634  0.7195689026584375  0.29840148565225627  1.0000
  C   C4        1.0  0.5915777924296464  0.21932076117678173  0.7982733326929221  1.0000
  C   C5        1.0  0.21493781224690894  0.7363114116734266  0.22716910515314478  1.0000
  C   C6        1.0  0.8208767312765489  0.23612004387241106  0.7269766288453567  1.0000
  C   C7        1.0  0.1360281857607505  0.6357977933530561  0.2028823199291523  1.0000
  C   C8        1.0  0.02461159643240749  0.13564448248828137  0.7027377080922506  1.0000
  C   C9        1.0  0.2297647050359542  0.5174761230749497  0.2507694132140301  1.0000
  C   C10       1.0  0.0015946188568138275  0.017338517825734798  0.7507669909658715  1.0000
  C   C11       1.0  0.4045874655597857  0.5099288552391598  0.3212273838232989  1.0000
  C   C12       1.0  0.7639103936574968  0.009741633150163399  0.8212663964194817  1.0000
  C   C13       1.0  0.508201020072292  0.3945251892365105  0.3732491716078812  1.0000
  C   C14       1.0  0.7238939663067042  0.8943284822610239  0.8733840443566764  1.0000
  C   C15       1.0  0.4335730575774619  0.2861769866142935  0.3563054204311342  1.0000
  C   C16       1.0  0.9240082983532857  0.7860767111188448  0.8565521118339561  1.0000
  C   C17       1.0  0.5477496029876222  0.1756325400828871  0.4104247306681899  1.0000
  C   C18       1.0  0.8663890765970231  0.6755371225261512  0.9107410274772506  1.0000
  C   C19       1.0  0.7251675048402932  0.17801526747769705  0.4754699020018052  1.0000
  C   C20       1.0  0.6215665243378864  0.6778391031742642  0.9758030847370592  1.0000
  C   C21       1.0  0.7870498196080434  0.2905523054811354  0.4873272982320387  1.0000
  C   C22       1.0  0.4351611300713998  0.7903222309121032  0.9876431035058957  1.0000
  C   C23       1.0  0.25324079850403075  0.2959732491319683  0.28522984565926635  1.0000
  C   C24       1.0  0.16560006907466351  0.7959887420622566  0.7854470453379889  1.0000
  C   C25       1.0  0.15754895418995576  0.40656899577737693  0.23395226749661194  1.0000
  C   C26       1.0  0.20181409700457187  0.9065379331717336  0.7340262778916299  1.0000
  N   N1        1.0  0.48369932992977044  0.6091360444508637  0.3433298434559404  1.0000
  N   N2        1.0  0.5635142139603317  0.10889283933521907  0.8433148565495543  1.0000
  N   N3        1.0  0.6794126324618475  0.3957492062480056  0.4378786451537593  1.0000
  N   N4        1.0  0.4869539219902565  0.8954933561731194  0.9380519702119514  1.0000
  O   O1        1.0  0.019359097967949997  0.4975234231150265  0.5324663424461704  1.0000
  O   O2        1.0  0.9508510631310403  0.9972510667088483  0.03286489714805904  1.0000
  O   O3        1.0  0.4114313730778814  0.5864031346656091  0.5828305510005763  1.0000
  O   O4        1.0  0.4195639797071635  0.0865546112276974  0.0827658033540288  1.0000
  O   O5        1.0  0.05014108708793699  0.49308338890316594  0.7058870887748441  1.0000
  O   O6        1.0  0.7498053874291557  0.9937543233820418  0.20622417545279603  1.0000
  O   O7        1.0  0.8124365138410424  0.730346447858416  0.4222392836399678  1.0000
  O   O8        1.0  0.0344847734158192  0.22983097012949824  0.9220984430686769  1.0000
  O   O9        1.0  0.07336905651685305  0.8821533587450001  0.4707006500625113  1.0000
  O   O10       1.0  0.5750674391656789  0.38252803404814256  0.9703693045409736  1.0000
  O   O11       1.0  0.5437719360322502  0.9067354185955736  0.5130380094159079  1.0000
  O   O12       1.0  0.038136605662067766  0.4064840713184665  0.012518875935924696  1.0000
