data_image0
_chemical_formula_structural       Ag6H26C18S2N4O16
_chemical_formula_sum              "Ag6 H26 C18 S2 N4 O16"
_cell_length_a       7.526481066417547
_cell_length_b       8.334497968187122
_cell_length_c       13.697573077994338
_cell_angle_alpha    77.23784321986192
_cell_angle_beta     75.71895580413815
_cell_angle_gamma    71.9084589507954

_space_group_name_H-M_alt    "P 1"
_space_group_IT_number       1

loop_
  _space_group_symop_operation_xyz
  'x, y, z'

loop_
  _atom_site_type_symbol
  _atom_site_label
  _atom_site_symmetry_multiplicity
  _atom_site_fract_x
  _atom_site_fract_y
  _atom_site_fract_z
  _atom_site_occupancy
  Ag  Ag1       1.0  0.2631800633376429  0.8657600727661005  0.3328838868812625  1.0000
  Ag  Ag2       1.0  0.7368247762095379  0.13424289449339702  0.667112252578228  1.0000
  Ag  Ag3       1.0  0.5000026645086493  0.9999950394351557  0.999997726354664  1.0000
  Ag  Ag4       1.0  2.7909009859006005e-06  8.44654039191587e-07  0.4999985836695089  1.0000
  Ag  Ag5       1.0  0.47060371669165596  0.6740664652065503  0.09425611309070794  1.0000
  Ag  Ag6       1.0  0.5293913788093504  0.3259325337217191  0.905744769664146  1.0000
  H   H1        1.0  0.05586013509150686  0.31367547867558426  0.276563421284898  1.0000
  H   H2        1.0  0.9441405965777178  0.6863274716644129  0.7234332801983355  1.0000
  H   H3        1.0  0.7259178432492135  0.34817728863146863  0.3762028321648713  1.0000
  H   H4        1.0  0.27408268576196076  0.6518218451097368  0.6237936423398976  1.0000
  H   H5        1.0  0.6283018900773172  0.47416333158857765  0.5345148878925272  1.0000
  H   H6        1.0  0.37170197590309334  0.5258293963256192  0.4654826601435076  1.0000
  H   H7        1.0  0.6674318075731874  0.9375299166131227  0.24161447914213602  1.0000
  H   H8        1.0  0.3325679902527199  0.062471638030224576  0.7583861743865369  1.0000
  H   H9        1.0  0.7230050720513289  0.7218645695963487  0.3006806935736818  1.0000
  H   H10       1.0  0.2769978212204335  0.2781358083263115  0.699316763983525  1.0000
  H   H11       1.0  0.08279313308430858  0.5478874849004781  0.15107241533292637  1.0000
  H   H12       1.0  0.917195599858317  0.4521189169697307  0.8489364440782765  1.0000
  H   H13       1.0  0.1491738306695183  0.5745585272955935  0.01716150841908607  1.0000
  H   H14       1.0  0.8508219243400318  0.4254338973709721  0.9828459449886608  1.0000
  H   H15       1.0  0.15143902346060398  0.8693592090856795  0.02753333377511781  1.0000
  H   H16       1.0  0.8485533421871808  0.1306397561122026  0.9724686554392434  1.0000
  H   H17       1.0  0.10782559766104778  0.8204478806634794  0.15261380823792342  1.0000
  H   H18       1.0  0.8921720560264961  0.1795562014957568  0.8473875527708188  1.0000
  H   H19       1.0  0.46693666757521163  0.014003067128712092  0.39888001694257724  1.0000
  H   H20       1.0  0.5330652918532338  0.9859959150973053  0.6011213926600689  1.0000
  H   H21       1.0  0.5127941670242819  0.8161713781952287  0.4569004907413897  1.0000
  H   H22       1.0  0.4872095272894512  0.18382639921954783  0.5430986420080542  1.0000
  H   H23       1.0  0.3241465971332005  0.18425581636136454  0.1789689297214707  1.0000
  H   H24       1.0  0.6758576654312092  0.8157445672011363  0.821028340494486  1.0000
  H   H25       1.0  0.18140395334228998  0.13669139325435964  0.1289538796470211  1.0000
  H   H26       1.0  0.8185997497035303  0.8633063617097035  0.8710459848794441  1.0000
  C   C1        1.0  0.14528208152260189  0.4200797389261695  0.3788092368198051  1.0000
  C   C2        1.0  0.8547157263674448  0.5799193386339282  0.6211890759214923  1.0000
  C   C3        1.0  0.014568058306842602  0.3694388748026895  0.34620332158022643  1.0000
  C   C4        1.0  0.985436212989661  0.630561486309091  0.6537946804127515  1.0000
  C   C5        1.0  0.8274893736936376  0.3885091951096057  0.4029618116093446  1.0000
  C   C6        1.0  0.17250957942985676  0.6114950722952129  0.597033507841999  1.0000
  C   C7        1.0  0.7732752313851349  0.45843942965799295  0.4916048119902356  1.0000
  C   C8        1.0  0.2267231661567591  0.5415532532461497  0.5083942171878135  1.0000
  C   C9        1.0  0.9041444343023173  0.5098549943674796  0.5286624462910368  1.0000
  C   C10       1.0  0.09585572432111884  0.490136416373268  0.47133650136485966  1.0000
  C   C11       1.0  0.6822889760238838  0.8542376338364047  0.3151335235812169  1.0000
  C   C12       1.0  0.31771296594038734  0.1457613932910462  0.6848664224673939  1.0000
  C   C13       1.0  0.8450255327979335  0.8823366820931965  0.35133120244532273  1.0000
  C   C14       1.0  0.15497444148974893  0.11766875650109647  0.6486674827307651  1.0000
  C   C15       1.0  0.8676645313892026  0.719996228223614  0.07069171399190567  1.0000
  C   C16       1.0  0.13233254531557037  0.28000527023862537  0.9293107777733098  1.0000
  C   C17       1.0  0.07556838206691185  0.6434226682312174  0.08198546729497735  1.0000
  C   C18       1.0  0.9244218918350385  0.3565786897782458  0.9180216200615662  1.0000
  S   S1        1.0  0.3829807515319317  0.38485896881443443  0.3062213310518942  1.0000
  S   S2        1.0  0.6170225684570807  0.61514004150213  0.6937791594324877  1.0000
  N   N1        1.0  0.17267697454555994  0.7693817240891077  0.0863418328038605  1.0000
  N   N2        1.0  0.8273169630529297  0.23062106334739238  0.9136601960477293  1.0000
  N   N3        1.0  0.4992494427802825  0.889462405087208  0.38695251789982166  1.0000
  N   N4        1.0  0.5007566070619447  0.11053663895975059  0.6130468661250462  1.0000
  O   O1        1.0  0.43819088843631704  0.544821455872686  0.29006761726870417  1.0000
  O   O2        1.0  0.5618106617390524  0.45517884905798667  0.7099322229608092  1.0000
  O   O3        1.0  0.4984122812794497  0.2440678169562814  0.3690520230637658  1.0000
  O   O4        1.0  0.5015863276525677  0.7559286600959254  0.6309479648697689  1.0000
  O   O5        1.0  0.37797548555694493  0.34146910790591534  0.2081448831500339  1.0000
  O   O6        1.0  0.6220268656603949  0.6585285965168736  0.7918566322717168  1.0000
  O   O7        1.0  0.8087309676067491  0.9233638339322637  0.4392018914418969  1.0000
  O   O8        1.0  0.19127605973923067  0.0766364935577499  0.5607971994226233  1.0000
  O   O9        1.0  0.005027718978212127  0.8610597912332522  0.2895440357896817  1.0000
  O   O10       1.0  0.9949745933737901  0.13894695889464967  0.7104534371077946  1.0000
  O   O11       1.0  0.8114777382094261  0.8787685848088741  0.03890278687137534  1.0000
  O   O12       1.0  0.18851345207166756  0.12123421379867948  0.9610988848856862  1.0000
  O   O13       1.0  0.7696990321120367  0.6117968727701708  0.09224631572699593  1.0000
  O   O14       1.0  0.23029763533966735  0.3882059483967239  0.9077546066650797  1.0000
  O   O15       1.0  0.2907539214728984  0.08716919274353067  0.16246532652886  1.0000
  O   O16       1.0  0.7092503498236055  0.9128311683682496  0.8375326754641178  1.0000
