data_image0
_chemical_formula_structural       Cd3H16C18S2N6O14
_chemical_formula_sum              "Cd3 H16 C18 S2 N6 O14"
_cell_length_a       7.00359564799806
_cell_length_b       7.968101587522932
_cell_length_c       12.697818982495123
_cell_angle_alpha    88.66692653375347
_cell_angle_beta     86.89824948130656
_cell_angle_gamma    64.23954758138014

_space_group_name_H-M_alt    "P 1"
_space_group_IT_number       1

loop_
  _space_group_symop_operation_xyz
  'x, y, z'

loop_
  _atom_site_type_symbol
  _atom_site_label
  _atom_site_symmetry_multiplicity
  _atom_site_fract_x
  _atom_site_fract_y
  _atom_site_fract_z
  _atom_site_occupancy
  Cd  Cd1       1.0  0.5000002818537084  0.49999909577028484  0.9999996235672199  1.0000
  Cd  Cd2       1.0  0.7778175214276929  0.9777722752285526  0.8629789016792556  1.0000
  Cd  Cd3       1.0  0.22217961325092256  0.022226735670749093  0.1370219723094692  1.0000
  H   H1        1.0  0.18037742889538327  0.8487820668490754  0.3699874497292156  1.0000
  H   H2        1.0  0.8196289065228155  0.15121552609728178  0.6300114752714377  1.0000
  H   H3        1.0  0.4434090154413326  0.294724751696684  0.2500299629822251  1.0000
  H   H4        1.0  0.5565902723619444  0.7052728584105878  0.7499716333110698  1.0000
  H   H5        1.0  0.05488378942167332  0.7605739541789517  0.5035404825553869  1.0000
  H   H6        1.0  0.9451211886523864  0.23942363880470904  0.4964600773951203  1.0000
  H   H7        1.0  0.21314932845736928  0.3311014028257162  0.7378604216620417  1.0000
  H   H8        1.0  0.7868506699919352  0.6688975982993314  0.2621403272593382  1.0000
  H   H9        1.0  0.45447747747976297  0.09989827224283937  0.6076183339070624  1.0000
  H   H10       1.0  0.5455231303970364  0.9000993402520409  0.392380841228288  1.0000
  H   H11       1.0  0.5029197607034561  0.19591374144116708  0.4237896187143448  1.0000
  H   H12       1.0  0.49708377489197625  0.8040866433522994  0.5762093715596706  1.0000
  H   H13       1.0  0.12282563466343537  0.541193678717832  0.8899183029125552  1.0000
  H   H14       1.0  0.877172061578783  0.4588067328988997  0.1100785788718852  1.0000
  H   H15       1.0  0.20304188569412662  0.3492945066309971  0.9530473425512651  1.0000
  H   H16       1.0  0.7969559223599136  0.650705897710992  0.04695189785744699  1.0000
  C   C1        1.0  0.2477940199321226  0.7283624036345061  0.31852302275027705  1.0000
  C   C2        1.0  0.7522116048400419  0.27163379829407563  0.6814767496222984  1.0000
  C   C3        1.0  0.38675173500887183  0.4447428426616965  0.2566817007636288  1.0000
  C   C4        1.0  0.6132496580551744  0.5552561560011284  0.7433181994159881  1.0000
  C   C5        1.0  0.2834311135612281  0.4847778607042271  0.4516615804870767  1.0000
  C   C6        1.0  0.7165731060029116  0.5152211306092482  0.5483374084170975  1.0000
  C   C7        1.0  0.14774061348772  0.6154829186035754  0.5245195496946522  1.0000
  C   C8        1.0  0.852261564763573  0.38451746622719435  0.4754810755292239  1.0000
  C   C9        1.0  0.12187646991952752  0.5620526234693416  0.6277975599014667  1.0000
  C   C10       1.0  0.878124239175811  0.43794776867347446  0.3722023416479913  1.0000
  C   C11       1.0  0.23113250314919034  0.37502926565161937  0.6575336210984231  1.0000
  C   C12       1.0  0.768866774060797  0.6249711313783237  0.3424663429847072  1.0000
  C   C13       1.0  0.3661233496824679  0.24442896066896214  0.5834720086348568  1.0000
  C   C14       1.0  0.6338751796108896  0.7555700477681311  0.416528016612105  1.0000
  C   C15       1.0  0.3948120813531447  0.2979471021898305  0.4805090189326933  1.0000
  C   C16       1.0  0.6051885904715846  0.7020532923778972  0.5194900964086742  1.0000
  C   C17       1.0  0.973149228922388  0.7120292695759997  0.7016957374916684  1.0000
  C   C18       1.0  0.026851480172950894  0.287971122566816  0.2983041640577895  1.0000
  S   S1        1.0  0.7203500166879806  0.025492925654603496  0.10082308858979157  1.0000
  S   S2        1.0  0.279647967125797  0.9745102534854908  0.8991784506492166  1.0000
  N   N1        1.0  0.377755077814065  0.5581284173142649  0.17790743659695343  1.0000
  N   N2        1.0  0.6222469992186959  0.4418691878685763  0.822092462212808  1.0000
  N   N3        1.0  0.2912481923373633  0.7364179488375767  0.21715486448455576  1.0000
  N   N4        1.0  0.7087538474247952  0.26357965877016903  0.7828442481171152  1.0000
  N   N5        1.0  0.30607566561754146  0.5468522861819095  0.3474988601728554  1.0000
  N   N6        1.0  0.693927196602459  0.45314670516886935  0.6525017636811796  1.0000
  O   O1        1.0  0.8693943425568305  0.8740222864603312  0.6656089048942704  1.0000
  O   O2        1.0  0.130604897382554  0.12597811299453096  0.3343902729807695  1.0000
  O   O3        1.0  0.9553017509978259  0.6707861605499517  0.799027466244965  1.0000
  O   O4        1.0  0.044696842243453785  0.32921562995998227  0.20097249920801366  1.0000
  O   O5        1.0  0.6235691463470161  0.17538740491288246  0.018750192297851187  1.0000
  O   O6        1.0  0.3764272298216725  0.8246130043162411  0.9812491106445405  1.0000
  O   O7        1.0  0.8382144722991285  0.8492264280176088  0.03862686364644218  1.0000
  O   O8        1.0  0.16178634860803234  0.15077395685046466  0.9613753965272949  1.0000
  O   O9        1.0  0.8632780321294433  0.06603907156488728  0.1659853808438854  1.0000
  O   O10       1.0  0.1367150626848288  0.9339710822872006  0.8340154415699387  1.0000
  O   O11       1.0  0.5493710703456429  0.014959031596958999  0.17223345431026618  1.0000
  O   O12       1.0  0.45062612828089504  0.9850427613751903  0.8277673598844828  1.0000
  O   O13       1.0  0.21539287476493024  0.46819642998887184  0.9468207048780285  1.0000
  O   O14       1.0  0.7846069746019494  0.5318025808358228  0.05317689921098181  1.0000
