data_image0
_chemical_formula_structural       Cd3P2H48C42S2N6Cl6
_chemical_formula_sum              "Cd3 P2 H48 C42 S2 N6 Cl6"
_cell_length_a       9.032756735239138
_cell_length_b       11.228147535684629
_cell_length_c       13.1473
_cell_angle_alpha    99.8689509503346
_cell_angle_beta     109.9372710626451
_cell_angle_gamma    94.49948523595191

_space_group_name_H-M_alt    "P 1"
_space_group_IT_number       1

loop_
  _space_group_symop_operation_xyz
  'x, y, z'

loop_
  _atom_site_type_symbol
  _atom_site_label
  _atom_site_symmetry_multiplicity
  _atom_site_fract_x
  _atom_site_fract_y
  _atom_site_fract_z
  _atom_site_occupancy
  Cd  Cd1       1.0  0.9916141772287833  0.12195521999029778  0.2897870860333428  1.0000
  Cd  Cd2       1.0  0.008386222736142238  0.8780446786431354  0.7102138295046743  1.0000
  Cd  Cd3       1.0  4.715069650306735e-07  0.9999989845976884  3.789309488724624e-08  1.0000
  P   P1        1.0  0.6283003441899809  0.9880854426276358  0.326353215130581  1.0000
  P   P2        1.0  0.37169923011727246  0.011916284077301496  0.6736477745621345  1.0000
  H   H1        1.0  0.8929106110281069  0.37806072495204995  0.25930908887119136  1.0000
  H   H2        1.0  0.10709332192642053  0.6219391736813833  0.7406918937472116  1.0000
  H   H3        1.0  0.7897134081288115  0.559803937408418  0.33828418142075384  1.0000
  H   H4        1.0  0.21028799349655  0.4401950471892633  0.6617145531513842  1.0000
  H   H5        1.0  0.7207876622616426  0.5544001580523599  0.5059827347987423  1.0000
  H   H6        1.0  0.279209028710916  0.4455988265453286  0.49401337495806535  1.0000
  H   H7        1.0  0.7505283351207623  0.36553295095777116  0.5859191676409383  1.0000
  H   H8        1.0  0.2494675301941243  0.634467861711414  0.41407853749545614  1.0000
  H   H9        1.0  0.8945519640870786  0.18533902909824457  0.6018487779964019  1.0000
  H   H10       1.0  0.10544625655420252  0.8146617835709478  0.3981517607725494  1.0000
  H   H11       1.0  0.9479251624122894  0.1133925330810328  0.4925104916731797  1.0000
  H   H12       1.0  0.05207305822899849  0.8866082795881525  0.5074900470957716  1.0000
  H   H13       1.0  0.6004132657202845  0.1150195167166501  0.48148641314774215  1.0000
  H   H14       1.0  0.3995847789182392  0.884980381916783  0.5185139505950573  1.0000
  H   H15       1.0  0.7163899691587831  0.9970658438748145  0.5197728765919223  1.0000
  H   H16       1.0  0.283610782811671  0.0029358828301227  0.48022838899840553  1.0000
  H   H17       1.0  0.5614712104162792  0.811051342357068  0.3860161727002095  1.0000
  H   H18       1.0  0.4385290135458888  0.1889476422406204  0.6139853284241  1.0000
  H   H19       1.0  0.3908752581578554  0.8850562468840621  0.33121464888392893  1.0000
  H   H20       1.0  0.6091249658043055  0.1149427377136192  0.6687860916279292  1.0000
  H   H21       1.0  0.3684392549057094  0.7974066166758575  0.1392343694531206  1.0000
  H   H22       1.0  0.6315613210619802  0.2025941959933277  0.8607667211110555  1.0000
  H   H23       1.0  0.5533233852764781  0.7422061696407878  0.1888186343300617  1.0000
  H   H24       1.0  0.44667836835440516  0.2577946430283973  0.8111819715192752  1.0000
  H   H25       1.0  0.45285468682821783  0.41407921773029693  0.3367739655285149  1.0000
  H   H26       1.0  0.5471416521388193  0.5859179387958875  0.6632248366257656  1.0000
  H   H27       1.0  0.1639498667574415  0.3406117662245052  0.2395998417335434  1.0000
  H   H28       1.0  0.8360461745602095  0.6593899604804321  0.7603957565916702  1.0000
  H   H29       1.0  0.9961028865254846  0.46801189717963604  0.11900333173332467  1.0000
  H   H30       1.0  0.0038955101185606912  0.5319898295253012  0.8809920577746696  1.0000
  H   H31       1.0  0.1314318355152864  0.6673183065789559  0.10466204199086349  1.0000
  H   H32       1.0  0.8685722734420055  0.3326825060902294  0.8953353125914704  1.0000
  H   H33       1.0  0.4162561042374834  0.10605922425597919  0.28113848807583963  1.0000
  H   H34       1.0  0.5837452973878854  0.893939760341702  0.7188617677211867  1.0000
  H   H35       1.0  0.5925581855564345  0.1775304216830094  0.27224381730764696  1.0000
  H   H36       1.0  0.4074437440772201  0.8224713050219279  0.7277569635678489  1.0000
  H   H37       1.0  0.5417968663332715  0.015124549561022597  0.09567816696596765  1.0000
  H   H38       1.0  0.45820453529209  0.9848744350366585  0.9043228494435027  1.0000
  H   H39       1.0  0.3491679913636432  0.9701520612057947  0.09691107245280504  1.0000
  H   H40       1.0  0.6508322325985246  0.0298469233918937  0.9030889074466087  1.0000
  H   H41       1.0  0.052106900646371905  0.2474824916929634  0.947192341563124  1.0000
  H   H42       1.0  0.9478931473130247  0.7525155788689729  0.05280898453502667  1.0000
  H   H43       1.0  0.2359184594385227  0.4219134181465378  0.9422270570533515  1.0000
  H   H44       1.0  0.7640775818791283  0.5780883085583994  0.05777538678387363  1.0000
  H   H45       1.0  0.5331961521459333  0.4155965170758762  0.021457429977743855  1.0000
  H   H46       1.0  0.4668007148293896  0.5844033815575571  0.9785426578674505  1.0000
  H   H47       1.0  0.6245871504544382  0.23645190825774878  0.10085681071716124  1.0000
  H   H48       1.0  0.3754122478500506  0.7635489044114365  0.8991417221120628  1.0000
  C   C1        1.0  0.8600755809758596  0.3799107333107585  0.33206512263647886  1.0000
  C   C2        1.0  0.13992599665226632  0.6200891653226819  0.6679368294115948  1.0000
  C   C3        1.0  0.8040395288533944  0.48037514473885057  0.3761314140617388  1.0000
  C   C4        1.0  0.1959618727719672  0.5196238398588305  0.6238673205103994  1.0000
  C   C5        1.0  0.7635823160255198  0.4762235943607678  0.4690074181130868  1.0000
  C   C6        1.0  0.23641590461576809  0.5237772183084175  0.530990838818525  1.0000
  C   C7        1.0  0.7808733896920758  0.3718151186699146  0.5133419253988336  1.0000
  C   C8        1.0  0.219125182954734  0.6281875220707674  0.4866574421975401  1.0000
  C   C9        1.0  0.8381882995449531  0.2737171457994734  0.4648993051422253  1.0000
  C   C10       1.0  0.1618122764227365  0.7262836668697119  0.5351017854219507  1.0000
  C   C11       1.0  0.8543823516327579  0.1596116648331716  0.5110562142371721  1.0000
  C   C12       1.0  0.1456185763404534  0.8403909759075177  0.4889444657668634  1.0000
  C   C13       1.0  0.6992306592098672  0.0689585131493189  0.4710009386501  1.0000
  C   C14       1.0  0.3007673854286566  0.9310413854841143  0.5290001857051437  1.0000
  C   C15       1.0  0.4958736003580952  0.8530832763368608  0.3173010642456405  1.0000
  C   C16       1.0  0.5041279772700307  0.1469166222965725  0.6827001271899888  1.0000
  C   C17       1.0  0.4461125063084594  0.7604503232177534  0.20696310683732122  1.0000
  C   C18       1.0  0.5538890713196736  0.23954957541567978  0.7930388452107524  1.0000
  C   C19       1.0  0.36141957992471424  0.6423322253074204  0.21283774822628498  1.0000
  C   C20       1.0  0.6385829993638481  0.357666759290268  0.7871605016310212  1.0000
  C   C21       1.0  0.37785479194565136  0.46850913262782257  0.28457018816933305  1.0000
  C   C22       1.0  0.6221402477115561  0.5314935081128667  0.7154275911217667  1.0000
  C   C23       1.0  0.215222397362524  0.42730257293059276  0.23061367867708077  1.0000
  C   C24       1.0  0.7847778265996369  0.5726964116670885  0.7693824981601127  1.0000
  C   C25       1.0  0.12317752169084882  0.49864580535257363  0.16427002285954734  1.0000
  C   C26       1.0  0.8768212269587252  0.5013577494238604  0.8357249560883063  1.0000
  C   C27       1.0  0.1972872721283139  0.608008354810316  0.1554048998982864  1.0000
  C   C28       1.0  0.8027124781817038  0.39199428593036595  0.8445939829832484  1.0000
  C   C29       1.0  0.5124791613799361  0.09046211821203089  0.24879495060050527  1.0000
  C   C30       1.0  0.48752159059051087  0.9095396084929062  0.7512055543773783  1.0000
  C   C31       1.0  0.4461013695624416  0.0465801758735296  0.1225881841454566  1.0000
  C   C32       1.0  0.5539002080656844  0.9534197227599037  0.8774130072901729  1.0000
  C   C33       1.0  0.3869814096022425  0.1503186633593714  0.06894635947475083  1.0000
  C   C34       1.0  0.6130199920231263  0.8496803212383097  0.9310546569347269  1.0000
  C   C35       1.0  0.1803792146645549  0.2501432497622247  0.9820451836076105  1.0000
  C   C36       1.0  0.8196188299739688  0.7498566488712085  0.017954419522744982  1.0000
  C   C37       1.0  0.2836474817073835  0.34662337935455406  0.9788275524978048  1.0000
  C   C38       1.0  0.7163512125860549  0.6533737771716303  0.021175604513921146  1.0000
  C   C39       1.0  0.4466658298674133  0.3431756365042347  0.022891061492664684  1.0000
  C   C40       1.0  0.5533292097898013  0.6568270042364546  0.9771089996357675  1.0000
  C   C41       1.0  0.4982393542803578  0.2440548576291519  0.06811008097059103  1.0000
  C   C42       1.0  0.5017596920186023  0.7559441269685294  0.9318903836436621  1.0000
  S   S1        1.0  0.8014373252380338  0.9320779020250072  0.27489426283133167  1.0000
  S   S2        1.0  0.1985640763873278  0.06792108257267418  0.7251082748030344  1.0000
  N   N1        1.0  0.8768985645132474  0.2787041248533768  0.37483885903187547  1.0000
  N   N2        1.0  0.12310572044680872  0.7212976018515604  0.6251632342512821  1.0000
  N   N3        1.0  0.45085271785507075  0.5732841366545642  0.2765217328126113  1.0000
  N   N4        1.0  0.5491468020960397  0.4267111918001163  0.7234775469821885  1.0000
  N   N5        1.0  0.2291348146576482  0.1537024237071662  0.025693384518838503  1.0000
  N   N6        1.0  0.7708662349621919  0.8462947328190182  0.9743088030632168  1.0000
  Cl  Cl1       1.0  0.12485884755886192  0.9459164032852954  0.19378170848739987  1.0000
  Cl  Cl2       1.0  0.8751390210768974  0.05408258131239309  0.8062177196168039  1.0000
  Cl  Cl3       1.0  0.8888768925667633  0.1838838841836861  0.09910600296845463  1.0000
  Cl  Cl4       1.0  0.11112144972114633  0.8161114442709944  0.9008930009287398  1.0000
  Cl  Cl5       1.0  0.26647909357224364  0.2119722027919053  0.4182569583835517  1.0000
  Cl  Cl6       1.0  0.7335218344009676  0.7880304379487768  0.5817422003955955  1.0000
