data_image0
_chemical_formula_structural       Ag4H40C36N8O24
_chemical_formula_sum              "Ag4 H40 C36 N8 O24"
_cell_length_a       8.503086888833476
_cell_length_b       10.916351361457448
_cell_length_c       12.675858989553795
_cell_angle_alpha    90.15742584047359
_cell_angle_beta     70.4195917964983
_cell_angle_gamma    90.46983357200523

_space_group_name_H-M_alt    "P 1"
_space_group_IT_number       1

loop_
  _space_group_symop_operation_xyz
  'x, y, z'

loop_
  _atom_site_type_symbol
  _atom_site_label
  _atom_site_symmetry_multiplicity
  _atom_site_fract_x
  _atom_site_fract_y
  _atom_site_fract_z
  _atom_site_occupancy
  Ag  Ag1       1.0  0.15276267297343796  0.24986660976195907  0.6940675925185076  1.0000
  Ag  Ag2       1.0  0.8472358896194551  0.7501329923811184  0.3059321947355614  1.0000
  Ag  Ag3       1.0  0.9999991806322442  0.4999998010715387  3.7332256405839566e-07  1.0000
  Ag  Ag4       1.0  0.999997255404473  0.9999990839122076  1.2412986975526072e-06  1.0000
  H   H1        1.0  0.6949700942808477  0.0933621712872394  0.6179692580862267  1.0000
  H   H2        1.0  0.6871140539904629  0.406331656461596  0.6179475166981094  1.0000
  H   H3        1.0  0.3050300747555069  0.9066401791192077  0.3820289516555562  1.0000
  H   H4        1.0  0.31288472585949717  0.5936716100326507  0.38205334033008853  1.0000
  H   H5        1.0  0.8782993100496341  0.0212413276452423  0.6254801589727493  1.0000
  H   H6        1.0  0.49646353340297367  0.4787126690366676  0.6254124480463332  1.0000
  H   H7        1.0  0.12170224817312196  0.9787601066734126  0.37451540348261864  1.0000
  H   H8        1.0  0.5035318838120657  0.5212878491941949  0.3745904942293166  1.0000
  H   H9        1.0  0.9099780434063618  0.1463908292452558  0.4454789131210434  1.0000
  H   H10       1.0  0.6440454288833662  0.3534514047259663  0.4455127480107067  1.0000
  H   H11       1.0  0.0900240990785122  0.8536151855123606  0.5545198586597024  1.0000
  H   H12       1.0  0.35595396104164223  0.6465518617682733  0.5544862504861499  1.0000
  H   H13       1.0  0.8860988259784434  0.28016346523629204  0.5293052322516659  1.0000
  H   H14       1.0  0.5843482407799385  0.2196769365593454  0.5293688184293686  1.0000
  H   H15       1.0  0.11390269678722105  0.7198416334335319  0.4706953980608476  1.0000
  H   H16       1.0  0.41565212622517594  0.7803272460226934  0.4706304610873957  1.0000
  H   H17       1.0  0.5698126410158935  0.0540308580030384  0.0330301868085172  1.0000
  H   H18       1.0  0.39681271100432985  0.4463115599029024  0.032952551530840424  1.0000
  H   H19       1.0  0.43018782751642687  0.9459659958766551  0.9669701624875204  1.0000
  H   H20       1.0  0.6031901237944978  0.5536852939767911  0.9670454314986899  1.0000
  H   H21       1.0  0.8854615550215288  0.3405611333973653  0.8354026501508545  1.0000
  H   H22       1.0  0.27933384648972737  0.1595971508622753  0.8352251751082066  1.0000
  H   H23       1.0  0.1145346316606961  0.6594375526579128  0.16459950337014823  1.0000
  H   H24       1.0  0.7206629213350908  0.8403987869296258  0.1647751198827407  1.0000
  H   H25       1.0  0.5879138856728688  0.1578648288466127  0.20359382857771646  1.0000
  H   H26       1.0  0.20846941250356815  0.3422751336571821  0.20352501997498254  1.0000
  H   H27       1.0  0.4120865925036055  0.842132941120873  0.7964065207178948  1.0000
  H   H28       1.0  0.7915309062807694  0.6577244684858954  0.7964742595439277  1.0000
  H   H29       1.0  0.7690665575023985  0.3451205023407553  0.1815818222448371  1.0000
  H   H30       1.0  0.04958900441169325  0.1549058652767599  0.18141058785822392  1.0000
  H   H31       1.0  0.23093236245138354  0.6548790998023151  0.8184201045609144  1.0000
  H   H32       1.0  0.9504097465057982  0.8450946529541028  0.8185902691712602  1.0000
  H   H33       1.0  0.15164004678692317  0.3435952161662073  0.42679249950528236  1.0000
  H   H34       1.0  0.42110340773194815  0.15620854211773147  0.427065537745044  1.0000
  H   H35       1.0  0.8483628458768354  0.6564071342402471  0.5732054835216758  1.0000
  H   H36       1.0  0.578896320265649  0.8437928922009235  0.5729356003043478  1.0000
  H   H37       1.0  0.1981186605855783  0.20762946599986518  0.3429295196554492  1.0000
  H   H38       1.0  0.4589036168068644  0.2921807048986196  0.3431967015613609  1.0000
  H   H39       1.0  0.8018836123589638  0.7923719683187898  0.6570703219032838  1.0000
  H   H40       1.0  0.5411004026849826  0.7078198133322501  0.6568026322626325  1.0000
  C   C1        1.0  0.7287135536930405  0.18799862069388237  0.9202615189959575  1.0000
  C   C2        1.0  0.35084085578652213  0.3122448597304697  0.9201961025944387  1.0000
  C   C3        1.0  0.271285957047489  0.8119991492736033  0.07973854927931262  1.0000
  C   C4        1.0  0.6491592457407478  0.6877510780614386  0.07980210715034275  1.0000
  C   C5        1.0  0.8209090914345437  0.1099351155417807  0.6211303096769356  1.0000
  C   C6        1.0  0.5579656755581436  0.3899346010632172  0.6211375655493115  1.0000
  C   C7        1.0  0.17909302211786837  0.8900681509524587  0.3788684621050963  1.0000
  C   C8        1.0  0.4420330850035015  0.6100668332554449  0.378863291479739  1.0000
  C   C9        1.0  0.7233484023757766  0.12052967086231799  0.8190285993424453  1.0000
  C   C10       1.0  0.4574523745145168  0.3796890751916351  0.8190012544808738  1.0000
  C   C11       1.0  0.27665456288272583  0.879462602578414  0.18097045346507204  1.0000
  C   C12       1.0  0.5425533915246205  0.6203105269514424  0.18099757160839403  1.0000
  C   C13       1.0  0.925714354442647  0.1838001903407473  0.5223124380441676  1.0000
  C   C14       1.0  0.5516634150690647  0.3160337988403441  0.5224095242057701  1.0000
  C   C15       1.0  0.07428601256246727  0.8162039922412916  0.4776868414725968  1.0000
  C   C16       1.0  0.4483369422918885  0.6839694676538954  0.47758975531142783  1.0000
  C   C17       1.0  0.6434714543946498  0.137431490634377  0.025506148502181157  1.0000
  C   C18       1.0  0.33080175152773  0.3628330598091978  0.025438303441241324  1.0000
  C   C19       1.0  0.3565291928181221  0.8625653632453165  0.9744952705696978  1.0000
  C   C20       1.0  0.6691985383241387  0.6371637940704957  0.9745609760789551  1.0000
  C   C21       1.0  0.8202660692304065  0.2961153019675038  0.9151429381627525  1.0000
  C   C22       1.0  0.2645770600211037  0.2040393179409676  0.9150062339308036  1.0000
  C   C23       1.0  0.17973248371832543  0.7038833840877743  0.08485684909175013  1.0000
  C   C24       1.0  0.7354216619639189  0.7959584520265182  0.08499462309996628  1.0000
  C   C25       1.0  0.6529164665258095  0.1952686934153505  0.12087739103996853  1.0000
  C   C26       1.0  0.22613104886777083  0.3049216539170345  0.12078264649902343  1.0000
  C   C27       1.0  0.34708481969447297  0.804730908727727  0.8791221694992829  1.0000
  C   C28       1.0  0.7738690912361218  0.6950779482260359  0.8792155632440457  1.0000
  C   C29       1.0  0.751576899928587  0.30008745863588615  0.10933029192491966  1.0000
  C   C30       1.0  0.13917950036041302  0.2000241051463405  0.1091779294657016  1.0000
  C   C31       1.0  0.24842340921159664  0.6999112274193919  0.8906689875944169  1.0000
  C   C32       1.0  0.8608192409129245  0.799975496996737  0.8908229275642157  1.0000
  C   C33       1.0  0.20055415900235823  0.24962842693589948  0.4217686984202374  1.0000
  C   C34       1.0  0.377373136674791  0.2501890726649236  0.4219180594514782  1.0000
  C   C35       1.0  0.799447146506239  0.7503730073827555  0.5782308621181543  1.0000
  C   C36       1.0  0.6226291459139119  0.7498132777415236  0.5780817821068214  1.0000
  N   N1        1.0  0.8341127449462249  0.3496102486119169  0.007903530252683281  1.0000
  N   N2        1.0  0.15804565283269775  0.1504976508191405  0.007740612432257902  1.0000
  N   N3        1.0  0.1658857983583529  0.6503875213555688  0.9920962570022384  1.0000
  N   N4        1.0  0.8419529001160411  0.8495010352361376  0.9922591748222377  1.0000
  N   N5        1.0  0.23069638465714346  0.9882113844288796  0.694444272978366  1.0000
  N   N6        1.0  0.07496925350503854  0.5116817526017954  0.6944388001577693  1.0000
  N   N7        1.0  0.7693033240521459  0.0117882177141908  0.3055568650718855  1.0000
  N   N8        1.0  0.9250304648483973  0.48831876562906723  0.30556233789205584  1.0000
  O   O1        1.0  0.8072014911346845  0.1783989367160288  0.7229231080680449  1.0000
  O   O2        1.0  0.4698237496475742  0.32163567569162405  0.722952707564481  1.0000
  O   O3        1.0  0.19279901597425209  0.8216015815148339  0.27707724122627303  1.0000
  O   O4        1.0  0.5301773482481096  0.6783630103636539  0.27704578319935547  1.0000
  O   O5        1.0  0.6516681301617312  0.0216407419227806  0.8236844484463648  1.0000
  O   O6        1.0  0.5243386448583959  0.4786274728719633  0.8236006623304206  1.0000
  O   O7        1.0  0.3483413269407619  0.9783588602202896  0.1763144319484198  1.0000
  O   O8        1.0  0.47566255456450085  0.5213638844809765  0.1763988982126889  1.0000
  O   O9        1.0  0.0975571465749353  0.1783522162386078  0.5146831699746386  1.0000
  O   O10       1.0  0.38736482544864254  0.3214313881138935  0.5149061872282417  1.0000
  O   O11       1.0  0.9024432107860177  0.8216510502556317  0.4853161095425521  1.0000
  O   O12       1.0  0.6126355222681639  0.6785709622925538  0.48509309228937525  1.0000
  O   O13       1.0  0.09865754810881074  0.0498003645771661  0.7525186268552135  1.0000
  O   O14       1.0  0.1484309935252097  0.4499392675612981  0.7527608385542381  1.0000
  O   O15       1.0  0.9013431280364231  0.9501992375659113  0.24748279221537928  1.0000
  O   O16       1.0  0.8515703023392335  0.5500612506695646  0.24723872198458716  1.0000
  O   O17       1.0  0.21836581953923678  0.8741914334202363  0.6894594675864951  1.0000
  O   O18       1.0  0.09268003551553508  0.6256797175034237  0.6893776760540646  1.0000
  O   O19       1.0  0.7816346779255526  0.1258081687228412  0.31054088170824923  1.0000
  O   O20       1.0  0.9073222277848527  0.3743208007274461  0.31062216550509447  1.0000
  O   O21       1.0  0.36441816240705543  0.04563399729676829  0.6465540116246019  1.0000
  O   O22       1.0  0.9891614301652751  0.4544372586225904  0.646398518287029  1.0000
  O   O23       1.0  0.6355796114303301  0.9543656048463092  0.3534465643849672  1.0000
  O   O24       1.0  0.01083828818816094  0.5455632596082792  0.3536026197627963  1.0000
