data_image0
_chemical_formula_structural       Mn2H60C52N4Cl4O4
_chemical_formula_sum              "Mn2 H60 C52 N4 Cl4 O4"
_cell_length_a       9.62337102908614
_cell_length_b       9.962131282791482
_cell_length_c       13.216328653759646
_cell_angle_alpha    99.29245233355763
_cell_angle_beta     89.99951666697498
_cell_angle_gamma    90.00005279186493

_space_group_name_H-M_alt    "P 1"
_space_group_IT_number       1

loop_
  _space_group_symop_operation_xyz
  'x, y, z'

loop_
  _atom_site_type_symbol
  _atom_site_label
  _atom_site_symmetry_multiplicity
  _atom_site_fract_x
  _atom_site_fract_y
  _atom_site_fract_z
  _atom_site_occupancy
  Mn  Mn1       1.0  0.6539175526920572  0.517958612910526  0.7392676328268875  1.0000
  Mn  Mn2       1.0  0.1539156801424468  0.48204495323776086  0.26073044992528327  1.0000
  H   H1        1.0  0.9078119346684516  0.08537173210591928  0.8862650522593396  1.0000
  H   H2        1.0  0.4078132127924547  0.9146236095601666  0.11373278353788407  1.0000
  H   H3        1.0  0.7413008700205024  0.9040401588804128  0.9132666764420773  1.0000
  H   H4        1.0  0.24130479908487248  0.09595526336564567  0.08673295033162277  1.0000
  H   H5        1.0  0.49102982887647767  0.9561882499016507  0.9370846911916784  1.0000
  H   H6        1.0  0.991032837723125  0.04380709444880179  0.06291641596619259  1.0000
  H   H7        1.0  0.40550642573664664  0.1923286423108337  0.9360764234924089  1.0000
  H   H8        1.0  0.9055080712480996  0.8076697907739927  0.06392556841799288  1.0000
  H   H9        1.0  0.5708645406320086  0.3737697991761522  0.9062130343956338  1.0000
  H   H10       1.0  0.07086473599026279  0.6262266834328044  0.09378473788331115  1.0000
  H   H11       1.0  0.024756282001284494  0.2720036652919405  0.9408777285456296  1.0000
  H   H12       1.0  0.5247599855424027  0.7279958966354697  0.05912144141690588  1.0000
  H   H13       1.0  0.28909353433093793  0.3597605828031547  0.8500516217717402  1.0000
  H   H14       1.0  0.7890981822452118  0.6402399041526934  0.14994829832599516  1.0000
  H   H15       1.0  0.23546293685178907  0.389408239003572  0.9807615503441481  1.0000
  H   H16       1.0  0.7354690682505164  0.6105922635793563  0.019237945028074004  1.0000
  H   H17       1.0  0.291971621786736  0.527145260605039  0.919464333197183  1.0000
  H   H18       1.0  0.7919737958401213  0.4728552250935537  0.08053556904597058  1.0000
  H   H19       1.0  0.22945149132011974  0.6645325413039701  0.8303521163089939  1.0000
  H   H20       1.0  0.7294556215057426  0.33546795609591123  0.16964665881009464  1.0000
  H   H21       1.0  0.029020470115725096  0.8168651799567855  0.8803089475056395  1.0000
  H   H22       1.0  0.5290239940062305  0.18313135218104293  0.11969211473213898  1.0000
  H   H23       1.0  0.9467723022935244  0.7599749419145851  0.7607363104553497  1.0000
  H   H24       1.0  0.44677772175058555  0.24002653230373744  0.23926653686827845  1.0000
  H   H25       1.0  0.06095601342404678  0.982676363620513  0.7576926643754615  1.0000
  H   H26       1.0  0.5609590006447716  0.0173221966100385  0.24230919320739014  1.0000
  H   H27       1.0  0.22220904688290222  0.917370121761337  0.7923851429022901  1.0000
  H   H28       1.0  0.7222135365963495  0.08262836018624137  0.20761495632407187  1.0000
  H   H29       1.0  0.21273321642731696  0.914375465205879  0.6022359096139593  1.0000
  H   H30       1.0  0.7127334316050592  0.0856250551224917  0.3977644844120859  1.0000
  H   H31       1.0  0.05915917298292329  0.8174199176199082  0.594270189944808  1.0000
  H   H32       1.0  0.559160427398126  0.18258066201365608  0.40573039963548035  1.0000
  H   H33       1.0  0.26455102676774084  0.6665954497672004  0.5456497712642159  1.0000
  H   H34       1.0  0.7645518623589992  0.333405032293939  0.4543487860270756  1.0000
  H   H35       1.0  0.34326186351042753  0.7271232086428367  0.6658887311631572  1.0000
  H   H36       1.0  0.8432640321095306  0.27287724682987147  0.3341100951895726  1.0000
  H   H37       1.0  0.06816295835891849  0.5707847929407492  0.6320759032035281  1.0000
  H   H38       1.0  0.568162806350088  0.4292116908489518  0.36792188584330177  1.0000
  H   H39       1.0  0.281873887193818  0.13908464445941607  0.6044554664943006  1.0000
  H   H40       1.0  0.7818707089723063  0.8609178798919997  0.3955447344115937  1.0000
  H   H41       1.0  0.9988032959659275  0.33011235665011185  0.6614587413217378  1.0000
  H   H42       1.0  0.49880070220891776  0.669889079209689  0.33854226797084397  1.0000
  H   H43       1.0  0.06891655809378248  0.20420872645479446  0.5629328139789465  1.0000
  H   H44       1.0  0.5689138768369871  0.7957938909646957  0.43706870860113156  1.0000
  H   H45       1.0  0.04027815684156619  0.3730254146000219  0.5401755077286053  1.0000
  H   H46       1.0  0.5402719343935445  0.6269772231466673  0.4598269501689315  1.0000
  H   H47       1.0  0.8204432596583756  0.8461895722266844  0.6105713582739509  1.0000
  H   H48       1.0  0.3204416647636207  0.1538088511698845  0.3894266161646413  1.0000
  H   H49       1.0  0.8984198738590763  0.07767866196975598  0.5852782119325964  1.0000
  H   H50       1.0  0.39841560006414767  0.922319727349482  0.4147192785685333  1.0000
  H   H51       1.0  0.5786347468399169  0.8100759913425719  0.6621730484913539  1.0000
  H   H52       1.0  0.07863482221233649  0.18992456415859488  0.3378259050851823  1.0000
  H   H53       1.0  0.40916141302557907  0.0002745740008620958  0.6812996268612677  1.0000
  H   H54       1.0  0.9091592555605668  0.9997268854135084  0.3187004236375229  1.0000
  H   H55       1.0  0.7307228752767114  0.2705781882571969  0.609011480396532  1.0000
  H   H56       1.0  0.2307176533269412  0.7294223085890933  0.3909872868609908  1.0000
  H   H57       1.0  0.9431775333445243  0.5452750091341728  0.8112804110419984  1.0000
  H   H58       1.0  0.4431827024535691  0.45472339967592024  0.18872058949136764  1.0000
  H   H59       1.0  0.3561791535539526  0.4896623864944373  0.684548229375636  1.0000
  H   H60       1.0  0.8561776072756544  0.5103421474324961  0.3154525039096682  1.0000
  C   C1        1.0  0.798152793229498  0.10980186987772808  0.899142521028011  1.0000
  C   C2        1.0  0.2981531578953706  0.8901945524532381  0.10085762847347716  1.0000
  C   C3        1.0  0.7050407932152536  0.007982374336613397  0.9145493906638718  1.0000
  C   C4        1.0  0.20504039377723157  0.9920151058063525  0.08545145470871766  1.0000
  C   C5        1.0  0.5635549684997087  0.037242843065349994  0.927496970485542  1.0000
  C   C6        1.0  0.0635557301102523  0.9627536661699095  0.07250311986142316  1.0000
  C   C7        1.0  0.5157921545566991  0.16920338520821326  0.9254114696540441  1.0000
  C   C8        1.0  0.015792766508532497  0.8307952025713519  0.07459142580449198  1.0000
  C   C9        1.0  0.608241192567256  0.2709975770029018  0.9087327444396606  1.0000
  C   C10       1.0  0.1082425539467451  0.7289989205137744  0.09126782613775927  1.0000
  C   C11       1.0  0.7506851061091665  0.24229727351234934  0.8950359737906692  1.0000
  C   C12       1.0  0.2506863363929952  0.7576991539418143  0.10496295517025084  1.0000
  C   C13       1.0  0.8463638161447589  0.35065002183582544  0.8729270379224585  1.0000
  C   C14       1.0  0.3463657268071785  0.6493463638039644  0.12707129722618044  1.0000
  C   C15       1.0  0.9879512712357937  0.34888680432676006  0.897699480179483  1.0000
  C   C16       1.0  0.4879555483339004  0.6511126020355107  0.10230136046600072  1.0000
  C   C17       1.0  0.08653758178219559  0.44580128299256216  0.8766350984195765  1.0000
  C   C18       1.0  0.5865414161506379  0.5542003096053065  0.12336619679071956  1.0000
  C   C19       1.0  0.23413327723191193  0.4311774182220987  0.9088639417082616  1.0000
  C   C20       1.0  0.7341364591158025  0.568825119181227  0.09113579790199819  1.0000
  C   C21       1.0  0.13103715189964046  0.6481321927746891  0.7877226019912981  1.0000
  C   C22       1.0  0.6310408046596905  0.3518693725650408  0.21227765947402588  1.0000
  C   C23       1.0  0.04844447319143089  0.7814153127938113  0.7985320635202411  1.0000
  C   C24       1.0  0.5484491633124549  0.21858426221294278  0.20146923212778484  1.0000
  C   C25       1.0  0.12459379600157659  0.8898144239404003  0.7501769314511859  1.0000
  C   C26       1.0  0.6245978237821318  0.11018409285716764  0.2498230160373822  1.0000
  C   C27       1.0  0.15696769370523359  0.8375205819940488  0.6375294672116991  1.0000
  C   C28       1.0  0.6569704684372367  0.16248097982415996  0.362471390891926  1.0000
  C   C29       1.0  0.24260296839591425  0.70692326991022  0.6264012570462468  1.0000
  C   C30       1.0  0.7426057386677414  0.2930772217424007  0.37359743645513527  1.0000
  C   C31       1.0  0.16647963217476297  0.5963184573695345  0.6731627437399935  1.0000
  C   C32       1.0  0.666480970185546  0.4036800333127175  0.3268361862329811  1.0000
  C   C33       1.0  0.31729483649760937  0.2419180204600195  0.6320093511467277  1.0000
  C   C34       1.0  0.8172908399884589  0.7580834712923165  0.36799051194058296  1.0000
  C   C35       1.0  0.21824538823202025  0.34665845234165  0.6332721898598306  1.0000
  C   C36       1.0  0.7182423458248123  0.6533441076277812  0.36672916351094637  1.0000
  C   C37       1.0  0.07330987889459098  0.3114554048245494  0.5977005040492926  1.0000
  C   C38       1.0  0.573305419443052  0.6885461935560002  0.40230087328175296  1.0000
  C   C39       1.0  0.557875699103448  0.14756116411741263  0.6439557975274681  1.0000
  C   C40       1.0  0.05787203744282718  0.8524404175761687  0.3560434028857243  1.0000
  C   C41       1.0  0.4590257174112224  0.2629631285088934  0.6543466282330783  1.0000
  C   C42       1.0  0.9590219592188872  0.7370372919944258  0.3456529948098534  1.0000
  C   C43       1.0  0.7481639968137586  0.9315306635821301  0.6205386976670509  1.0000
  C   C44       1.0  0.24816139687909805  0.0684688007113579  0.3794590857811571  1.0000
  C   C45       1.0  0.791270178600662  0.06120219074384889  0.606801055901826  1.0000
  C   C46       1.0  0.29126616939007727  0.9387972625220159  0.39319721758928233  1.0000
  C   C47       1.0  0.6105197562613184  0.9100568375121014  0.6474678839695256  1.0000
  C   C48       1.0  0.11051852732157387  0.0899426947460427  0.35253151130315513  1.0000
  C   C49       1.0  0.5156730873666717  0.016893344860463292  0.658207328220989  1.0000
  C   C50       1.0  0.0156717930857155  0.9831082708976022  0.3417936492429447  1.0000
  C   C51       1.0  0.6974641488624085  0.16913055040290456  0.6197919404615532  1.0000
  C   C52       1.0  0.19746018723049724  0.8308689360481057  0.38020615764902727  1.0000
  N   N1        1.0  0.0477905718331826  0.5474483810505149  0.8284436543233226  1.0000
  N   N2        1.0  0.5477947913099327  0.4525511864314637  0.17155688781632955  1.0000
  N   N3        1.0  0.2530605103396367  0.47597267868715676  0.6647991039224335  1.0000
  N   N4        1.0  0.7530587486826759  0.524027824017516  0.335201039826721  1.0000
  Cl  Cl1       1.0  0.5181756508535925  0.6815820946598878  0.836925739489267  1.0000
  Cl  Cl2       1.0  0.018175791221572993  0.31842458997954287  0.16307429724385258  1.0000
  Cl  Cl3       1.0  0.7905004146468002  0.5701459204099635  0.6077636825239948  1.0000
  Cl  Cl4       1.0  0.2904990498896253  0.4298555127558501  0.39222952873591044  1.0000
  O   O1        1.0  0.7939895209673294  0.44960771622631057  0.8320954553248823  1.0000
  O   O2        1.0  0.29399398268713367  0.5503897016106123  0.16790256528626904  1.0000
  O   O3        1.0  0.5075117509691224  0.3848344535476045  0.6807115082524857  1.0000
  O   O4        1.0  0.007507249537930197  0.6151681985185249  0.31929115299764976  1.0000
