data_image0
_chemical_formula_structural       Sm4H28C32N4O34
_chemical_formula_sum              "Sm4 H28 C32 N4 O34"
_cell_length_a       8.436591472457845
_cell_length_b       10.455308797267767
_cell_length_c       14.408
_cell_angle_alpha    85.19237065867908
_cell_angle_beta     86.84947096492074
_cell_angle_gamma    75.10324440530789

_space_group_name_H-M_alt    "P 1"
_space_group_IT_number       1

loop_
  _space_group_symop_operation_xyz
  'x, y, z'

loop_
  _atom_site_type_symbol
  _atom_site_label
  _atom_site_symmetry_multiplicity
  _atom_site_fract_x
  _atom_site_fract_y
  _atom_site_fract_z
  _atom_site_occupancy
  Sm  Sm1       1.0  0.49072130842893813  0.9721238628703333  0.717960794990468  1.0000
  Sm  Sm2       1.0  0.5092790588428429  0.0278758708938653  0.2820388623526853  1.0000
  Sm  Sm3       1.0  0.822269106184514  0.7957681956743273  0.9273441605741867  1.0000
  Sm  Sm4       1.0  0.17773781945658132  0.2042295534771057  0.07265401829365462  1.0000
  H   H1        1.0  0.5208325840843955  0.3001548191555514  0.5720391722050452  1.0000
  H   H2        1.0  0.4791597262939645  0.6998478915277957  0.4279584811937553  1.0000
  H   H3        1.0  0.5653220074003684  0.528367425588435  0.5726191881347447  1.0000
  H   H4        1.0  0.4346726771920332  0.4716352850949121  0.4273825532115937  1.0000
  H   H5        1.0  0.28637400093467147  0.5763097161468167  0.8327309087706285  1.0000
  H   H6        1.0  0.7136249263743648  0.4236870406982334  0.1672752224924068  1.0000
  H   H7        1.0  0.22800451473157324  0.868746376260205  0.4646057123307018  1.0000
  H   H8        1.0  0.7719917269463252  0.1312513728912279  0.5353872578914648  1.0000
  H   H9        1.0  0.16992123128284228  0.864114290067242  0.6335549357513415  1.0000
  H   H10       1.0  0.8300886914065018  0.1358814744714252  0.3664377148964349  1.0000
  H   H11       1.0  0.7586920695775702  0.7026372647686686  0.5926902280182136  1.0000
  H   H12       1.0  0.24131273470520392  0.2973634613019129  0.4073140845975516  1.0000
  H   H13       1.0  0.2509424038828243  0.3643768882232834  0.828146503444799  1.0000
  H   H14       1.0  0.7490621475442296  0.6356208609281496  0.17185313994635013  1.0000
  H   H15       1.0  0.8300982515992389  0.7103673314874257  0.43298086576590583  1.0000
  H   H16       1.0  0.169894993030411  0.2896324022767729  0.5670217970294615  1.0000
  H   H17       1.0  0.1386561481117283  0.9346950584332845  0.7733910840107614  1.0000
  H   H18       1.0  0.8613454062670839  0.0653046753309141  0.22661061730617152  1.0000
  H   H19       1.0  0.1233983363410971  0.0827910984012448  0.7322450688192818  1.0000
  H   H20       1.0  0.8766025952035148  0.9172106199757196  0.26776000213554607  1.0000
  H   H21       1.0  0.7426740023632448  0.09448344450484572  0.8141880767507743  1.0000
  H   H22       1.0  0.25732636490854327  0.905516289259353  0.1858136627689504  1.0000
  H   H23       1.0  0.782516324697319  0.133866100208806  0.7095265461846267  1.0000
  H   H24       1.0  0.2174762970981305  0.8661356181681583  0.29047393377778974  1.0000
  H   H25       1.0  0.5327376273610226  0.6949865825605103  0.8752008000106957  1.0000
  H   H26       1.0  0.46726573695900697  0.3050111665909228  0.12480026970096249  1.0000
  H   H27       1.0  0.6524686323630816  0.5687245261598903  0.9247901493834478  1.0000
  H   H28       1.0  0.34752729789772024  0.4312742152979254  0.0752173457465091  1.0000
  C   C1        1.0  0.3813526445361931  0.3131431173945387  0.7027208401960153  1.0000
  C   C2        1.0  0.6186467884842982  0.6868595932888013  0.2972765839859974  1.0000
  C   C3        1.0  0.4719657401582749  0.364253842231868  0.6282399189476353  1.0000
  C   C4        1.0  0.5280191947222262  0.6357458915323306  0.3717581528553282  1.0000
  C   C5        1.0  0.4967286398528401  0.4888577546675279  0.6293679130459253  1.0000
  C   C6        1.0  0.5032666090123783  0.5111469406285849  0.3706302191469533  1.0000
  C   C7        1.0  0.43423493680183595  0.568469503419621  0.7044612963242047  1.0000
  C   C8        1.0  0.5657606820418621  0.4315302303445776  0.29553781977129023  1.0000
  C   C9        1.0  0.34487149884226653  0.5185703846751792  0.7750935837038072  1.0000
  C   C10       1.0  0.6551241200014317  0.48142934908901946  0.22490830862711425  1.0000
  C   C11       1.0  0.45727421173803157  0.7035095020787808  0.7070741888120722  1.0000
  C   C12       1.0  0.5427264669508531  0.29648923937902794  0.2929324594478403  1.0000
  C   C13       1.0  0.03151488365511308  0.7860912238333456  0.43291874428395977  1.0000
  C   C14       1.0  0.9684738654021815  0.21391148685000164  0.5670783296643764  1.0000
  C   C15       1.0  0.13220910276287864  0.8251990106693868  0.4956181006550366  1.0000
  C   C16       1.0  0.8677912645089094  0.17480072309481193  0.5043815566881238  1.0000
  C   C17       1.0  0.09704306845056004  0.8237552048830211  0.5895319396061042  1.0000
  C   C18       1.0  0.9029617358322141  0.1762455211875604  0.4104605740091075  1.0000
  C   C19       1.0  0.9607030821605278  0.780314016075117  0.6290948737228349  1.0000
  C   C20       1.0  0.03929991218102909  0.219688694608223  0.37090312990964247  1.0000
  C   C21       1.0  0.8688303460429551  0.7340189541114911  0.5694714266120046  1.0000
  C   C22       1.0  0.1311708969187535  0.2659817719590905  0.4305267540824502  1.0000
  C   C23       1.0  0.9082576684796493  0.8009867349392721  0.7276014384761569  1.0000
  C   C24       1.0  0.09175131995839078  0.19901200651854373  0.27239522554017986  1.0000
  C   C25       1.0  0.4679922256651352  0.0198997121922773  0.9502296379387616  1.0000
  C   C26       1.0  0.5320327408267929  0.9800821600570373  0.04976614971393902  1.0000
  C   C27       1.0  0.5927867054935163  0.992439351436829  0.5008955247068982  1.0000
  C   C28       1.0  0.4072078619761328  0.0075712976975737  0.4990918564311856  1.0000
  C   C29       1.0  0.9388353058244049  0.0599134747554331  0.9746626980005434  1.0000
  C   C30       1.0  0.06117541538326072  0.9400683974938815  0.025335630262304697  1.0000
  C   C31       1.0  0.9630924297984933  0.5125808233511223  0.04993935993208961  1.0000
  C   C32       1.0  0.03690114485847572  0.48743677192795337  0.9500538772355684  1.0000
  N   N1        1.0  0.3203651124786617  0.3965345611571252  0.773181354182725  1.0000
  N   N2        1.0  0.6796308177821402  0.6034641803006907  0.22682058847638592  1.0000
  N   N3        1.0  0.9080228905979552  0.7328986402057822  0.47702204326461134  1.0000
  N   N4        1.0  0.09197535531551179  0.2671040704775649  0.5229788894144819  1.0000
  O   O1        1.0  0.350673125791026  0.20061358901970291  0.707031699415751  1.0000
  O   O2        1.0  0.6493211116513037  0.7993791985998158  0.2929685776443379  1.0000
  O   O3        1.0  0.1978646712384275  0.0054279159116248  0.7644877703463777  1.0000
  O   O4        1.0  0.8021362603061845  0.9945738024653323  0.2355152184318783  1.0000
  O   O5        1.0  0.7007625503560675  0.1013055508837226  0.7506591421246043  1.0000
  O   O6        1.0  0.29923575411877584  0.8986931905740931  0.2493413360111987  1.0000
  O   O7        1.0  0.5031771966916239  0.7619890941116765  0.6337262254065976  1.0000
  O   O8        1.0  0.4968201735319224  0.2380126242652807  0.3662754898623462  1.0000
  O   O9        1.0  0.6113421615980101  0.66415363864715  0.9274211821045739  1.0000
  O   O10       1.0  0.38866351837468466  0.3358480797298142  0.07257818356821132  1.0000
  O   O11       1.0  0.427543117499134  0.7608578648357636  0.7842176544821556  1.0000
  O   O12       1.0  0.5724539998686851  0.23914087662205222  0.21578563809187304  1.0000
  O   O13       1.0  0.04452407042669652  0.7974779395711735  0.3451522430279681  1.0000
  O   O14       1.0  0.9554625572722769  0.20252774803131504  0.6548474943740246  1.0000
  O   O15       1.0  0.7611450966096809  0.7976099163200274  0.7563667545621087  1.0000
  O   O16       1.0  0.2388623347428549  0.20239378666969543  0.2436338221664087  1.0000
  O   O17       1.0  0.006168505554079182  0.8242404427040029  0.7845951414147481  1.0000
  O   O18       1.0  0.9938396071940402  0.17575730644743004  0.2154050814268587  1.0000
  O   O19       1.0  0.5496646891450537  0.9502415225260564  0.8862530251143712  1.0000
  O   O20       1.0  0.45033449101970996  0.0497582112381423  0.11375083478472452  1.0000
  O   O21       1.0  0.3442169476441777  0.114969609769112  0.9386259774279183  1.0000
  O   O22       1.0  0.6557801111622652  0.8850331009142282  0.061374299395112124  1.0000
  O   O23       1.0  0.6506763888413546  0.9928541355046647  0.5806217066725383  1.0000
  O   O24       1.0  0.349311931676084  0.007157505936120901  0.4193803903873318  1.0000
  O   O25       1.0  0.672592926148674  0.9813771198860408  0.4244976690710517  1.0000
  O   O26       1.0  0.3273948886573166  0.018628567716447702  0.5754992538927157  1.0000
  O   O27       1.0  0.8365871607106996  0.030360606075348108  0.9238461753685885  1.0000
  O   O28       1.0  0.16342988462076852  0.9696351584633193  0.07615943318066341  1.0000
  O   O29       1.0  0.9502151020877958  0.1747987384820462  0.9882692772792154  1.0000
  O   O30       1.0  0.049802507516496015  0.8251990106693868  0.0117341102342863  1.0000
  O   O31       1.0  0.8638117122766076  0.624722359930452  0.06037021686870502  1.0000
  O   O32       1.0  0.1361997089368572  0.3752724123018325  0.9396286924341767  1.0000
  O   O33       1.0  0.005692255664456496  0.4197386536027352  0.11257484595480353  1.0000
  O   O34       1.0  0.9943054845375626  0.5802581032423149  0.8874278532167426  1.0000
