data_image0
_chemical_formula_structural       Zn2H50C49N6O9
_chemical_formula_sum              "Zn2 H50 C49 N6 O9"
_cell_length_a       15.809273846227901
_cell_length_b       16.028239638264996
_cell_length_c       16.963179316449402
_cell_angle_alpha    85.72788621063184
_cell_angle_beta     89.81324190724476
_cell_angle_gamma    88.0307432893058

_space_group_name_H-M_alt    "P 1"
_space_group_IT_number       1

loop_
  _space_group_symop_operation_xyz
  'x, y, z'

loop_
  _atom_site_type_symbol
  _atom_site_label
  _atom_site_symmetry_multiplicity
  _atom_site_fract_x
  _atom_site_fract_y
  _atom_site_fract_z
  _atom_site_occupancy
  Zn  Zn1       1.0  0.5028155934032769  0.5971836960639932  0.5006184366698178  1.0000
  Zn  Zn2       1.0  0.5029258465299906  0.41645974436515587  0.49891390270057184  1.0000
  H   H1        1.0  0.07371508774774332  0.5553599178532095  0.3844274105300228  1.0000
  H   H2        1.0  0.9379036154513475  0.6316187687305471  0.48660464953263  1.0000
  H   H3        1.0  0.0645451788277285  0.4561615454607234  0.6249906785956936  1.0000
  H   H4        1.0  0.5328672919266497  0.6118925894479403  0.7466978330059459  1.0000
  H   H5        1.0  0.510243301399335  0.6033150451049494  0.8940797976213515  1.0000
  H   H6        1.0  0.5345481468778814  0.6325579516403864  0.10047812084735595  1.0000
  H   H7        1.0  0.529311738301523  0.636108889824101  0.24910560784680758  1.0000
  H   H8        1.0  0.5215118743690822  0.3450871617250897  0.747442834248673  1.0000
  H   H9        1.0  0.4966727684227836  0.3361904128318897  0.8953829360041892  1.0000
  H   H10       1.0  0.9329738443920949  0.6033175585696712  0.38796914148548456  1.0000
  H   H11       1.0  0.38131340947879994  0.4164130917914477  0.26219560877783  1.0000
  H   H12       1.0  0.55791992734941  0.9126028278650722  0.4255716110024961  1.0000
  H   H13       1.0  0.5444378672697426  0.1306373381670838  0.37892209358452067  1.0000
  H   H14       1.0  0.42911237791231127  0.7038027449843368  0.6106437978328783  1.0000
  H   H15       1.0  0.42530262307857936  0.121154688895146  0.6084132031612481  1.0000
  H   H16       1.0  0.4110203870133518  0.8566736551061139  0.6361980656040271  1.0000
  H   H17       1.0  0.43501110925295466  0.27881513501367294  0.6036059434541909  1.0000
  H   H18       1.0  0.9373872268166324  0.36855350744594517  0.4508504803707609  1.0000
  H   H19       1.0  0.9656997562028311  0.4409575582273249  0.37244094506416997  1.0000
  H   H20       1.0  0.10591489953270644  0.40986399258934375  0.4157493544966186  1.0000
  H   H21       1.0  0.07279384241275723  0.36704049890833806  0.5092904051112936  1.0000
  H   H22       1.0  0.9004135358061519  0.5285240342774385  0.5998220207233871  1.0000
  H   H23       1.0  0.9268638237200764  0.4220602672991589  0.5890113223511901  1.0000
  H   H24       1.0  0.04273177343293361  0.5643897471048901  0.6064396513367426  1.0000
  H   H25       1.0  0.20799025631221474  0.7769867429240236  0.5020631095783584  1.0000
  H   H26       1.0  0.10952172892989152  0.8288741071819031  0.47732064429896315  1.0000
  H   H27       1.0  0.14129448701717  0.8129610302368633  0.5779309003518163  1.0000
  H   H28       1.0  0.03332338377963142  0.7086969529316958  0.5483124445081771  1.0000
  H   H29       1.0  0.1322280305599577  0.658240425691446  0.5722694917594777  1.0000
  H   H30       1.0  0.167127704464562  0.6501837772040631  0.4309593880878848  1.0000
  H   H31       1.0  0.07186073872467352  0.7042613729569425  0.4023650808730749  1.0000
  H   H32       1.0  0.26523131343046213  0.34988256277833335  0.9784424440779484  1.0000
  H   H33       1.0  0.20379483439024434  0.33576623660273697  0.06609404511595328  1.0000
  H   H34       1.0  0.17509943935780833  0.41627972456318213  0.9924029712672463  1.0000
  H   H35       1.0  0.2473680840610939  0.47826058821871  0.10508948832278256  1.0000
  H   H36       1.0  0.3080679316692497  0.49081805615323765  0.017893538608703383  1.0000
  H   H37       1.0  0.39737213274029426  0.3627132888369644  0.06450538277000109  1.0000
  H   H38       1.0  0.3371992375790357  0.354671892689531  0.15318530898397845  1.0000
  H   H39       1.0  0.711291662636228  0.6492412701873179  0.3261413068594762  1.0000
  H   H40       1.0  0.7139353582359079  0.7498948204153778  0.2745889818545493  1.0000
  H   H41       1.0  0.7979578992059688  0.7140986111120212  0.3394012390631075  1.0000
  H   H42       1.0  0.7032352358805839  0.8152313160704736  0.4074565982367132  1.0000
  H   H43       1.0  0.6978984404207937  0.7131143965532303  0.45519332691399916  1.0000
  H   H44       1.0  0.5664124995961334  0.6900397932299924  0.3754516883157492  1.0000
  H   H45       1.0  0.5698582885040508  0.7949681454598119  0.3353536410694033  1.0000
  H   H46       1.0  0.55082052539764  0.23423156909395706  0.2759671323684429  1.0000
  H   H47       1.0  0.6490724155242306  0.22191837673715042  0.32884413726002737  1.0000
  H   H48       1.0  0.6766592208200849  0.37460231221110973  0.2926373591773552  1.0000
  H   H49       1.0  0.6667530431264695  0.3171904925713989  0.20685239066851574  1.0000
  H   H50       1.0  0.5813419607873416  0.3835336608381894  0.23621393738402924  1.0000
  C   C1        1.0  0.46327257488230356  0.5200793856405141  0.3521981707623992  1.0000
  C   C2        1.0  0.05631553748077781  0.5761306651653159  0.44307998025391965  1.0000
  C   C3        1.0  0.0857469139177027  0.5017297166529316  0.5030181620347987  1.0000
  C   C4        1.0  0.03592639366672051  0.5035758038224927  0.5820552733286488  1.0000
  C   C5        1.0  0.9420589551136234  0.4863078544715406  0.567891601984378  1.0000
  C   C6        1.0  0.175756383486366  0.5027268916337349  0.5179356853749297  1.0000
  C   C7        1.0  0.831611037300732  0.4985438389664695  0.4670006504148317  1.0000
  C   C8        1.0  0.7547362070724901  0.5000026694341385  0.4632521872582273  1.0000
  C   C9        1.0  0.4576816817104899  0.5241890789717515  0.26398149200405635  1.0000
  C   C10       1.0  0.4154164483750336  0.46315252482758507  0.2256917505461685  1.0000
  C   C11       1.0  0.41607398640247356  0.4600357447978993  0.14362099119981755  1.0000
  C   C12       1.0  0.66338610407454  0.5049521708745816  0.4689089398410571  1.0000
  C   C13       1.0  0.4643068941886243  0.5209015771407762  0.09960146307918896  1.0000
  C   C14       1.0  0.5014290130381269  0.5856666261107789  0.13759466603182346  1.0000
  C   C15       1.0  0.49882362581364253  0.5874754698154162  0.21911146263022363  1.0000
  C   C16       1.0  0.5124162518805663  0.54754341940815  0.8611120508921031  1.0000
  C   C17       1.0  0.5251273820753539  0.5519881496395487  0.7801872145479576  1.0000
  C   C18       1.0  0.5005279604878654  0.46921921275144746  0.9021878924949716  1.0000
  C   C19       1.0  0.526923539427209  0.47909696916571676  0.7387709506736326  1.0000
  C   C20       1.0  0.5186452832284589  0.4009786580923702  0.78029744636013  1.0000
  C   C21       1.0  0.5050663319412295  0.3959925120901318  0.8616508784987926  1.0000
  C   C22       1.0  0.45928533673696154  0.24258691676424599  0.5559436101756248  1.0000
  C   C23       1.0  0.5314742913134864  0.4866016858685781  0.6502813817300249  1.0000
  C   C24       1.0  0.45372072743700914  0.1562638901005684  0.5584148881423372  1.0000
  C   C25       1.0  0.48623332454240414  0.11600660392689123  0.4933950290308145  1.0000
  C   C26       1.0  0.5209973255543049  0.16265684977320663  0.42929681061489317  1.0000
  C   C27       1.0  0.5254396633020236  0.24950176194826673  0.4327099763576923  1.0000
  C   C28       1.0  0.5285670173101594  0.8675513057859944  0.4673636248271008  1.0000
  C   C29       1.0  0.5364526892809494  0.7822116851663948  0.45672849353277906  1.0000
  C   C30       1.0  0.48253917198061913  0.8956845472285195  0.5312727332290378  1.0000
  C   C31       1.0  0.4564957100797928  0.7527159870451712  0.5713270099075698  1.0000
  C   C32       1.0  0.44654017808171903  0.8368327299654722  0.5853553703525518  1.0000
  C   C33       1.0  0.34259924239412953  0.5085876406639682  0.5314605994872607  1.0000
  C   C34       1.0  0.9589325048411795  0.5838035594019645  0.44677984264212256  1.0000
  C   C35       1.0  0.9696174203812051  0.4274601563944812  0.4368830974574109  1.0000
  C   C36       1.0  0.06259614050881622  0.42017854144690864  0.4651198255295695  1.0000
  C   C37       1.0  0.25147059399665767  0.505714330525315  0.5290015004060249  1.0000
  C   C38       1.0  0.9225518539529818  0.4988229708561107  0.4779394665520938  1.0000
  C   C39       1.0  0.10042792540855325  0.6595370288690673  0.44827378110569777  1.0000
  C   C40       1.0  0.09888585069843005  0.7000071860559275  0.5272667909421356  1.0000
  C   C41       1.0  0.14165450249619482  0.7844401140267152  0.5209456918278262  1.0000
  C   C42       1.0  0.36095819587756495  0.39894648825004  0.10612926039473788  1.0000
  C   C43       1.0  0.28486931580101077  0.44359708802255676  0.06255325170979377  1.0000
  C   C44       1.0  0.22912186180012384  0.38309301627381137  0.022770611975609284  1.0000
  C   C45       1.0  0.585946129729834  0.7527016969159207  0.38785025620107655  1.0000
  C   C46       1.0  0.6825211418685985  0.7512662728724565  0.4002770842556202  1.0000
  C   C47       1.0  0.7290329024009382  0.7143477206714196  0.3311529059300965  1.0000
  C   C48       1.0  0.5983415530786544  0.26724809968598606  0.3082550499087161  1.0000
  C   C49       1.0  0.6328435077528598  0.3403170817030556  0.2579682268687406  1.0000
  N   N1        1.0  0.48034308893281985  0.5265258848620107  0.017874777451872586  1.0000
  N   N2        1.0  0.4830657683677942  0.4585317072046849  0.9841172371947167  1.0000
  N   N3        1.0  0.4950844775944463  0.2881058849977407  0.49539796508749817  1.0000
  N   N4        1.0  0.4884119904239699  0.028934161336657396  0.484109139930858  1.0000
  N   N5        1.0  0.4731395027776274  0.9820917074177872  0.5452601811125672  1.0000
  N   N6        1.0  0.5000972796518185  0.7258388569080411  0.5089554867159689  1.0000
  O   O1        1.0  0.4854717933948437  0.5864208345797337  0.3825370615490654  1.0000
  O   O2        1.0  0.44863208734439314  0.45064001083974153  0.3899064308877413  1.0000
  O   O3        1.0  0.6313173811377057  0.5758860202932111  0.48429548776738307  1.0000
  O   O4        1.0  0.6236647711617566  0.438582753310051  0.4593834709495325  1.0000
  O   O5        1.0  0.5201339402143078  0.5603777040943356  0.6176325148615759  1.0000
  O   O6        1.0  0.543302311979069  0.4198954761038607  0.6148551392293411  1.0000
  O   O7        1.0  0.37394911919533774  0.5805250674737933  0.5177503193260902  1.0000
  O   O8        1.0  0.3829405902540018  0.4388082624998901  0.5449490856166574  1.0000
  O   O9        1.0  0.5585963774006403  0.30110943831540743  0.3764769758799672  1.0000
