data_image0
_chemical_formula_structural       Zn3H68C98N6O14
_chemical_formula_sum              "Zn3 H68 C98 N6 O14"
_cell_length_a       9.401930886676512
_cell_length_b       17.427738041590512
_cell_length_c       19.858925567786926
_cell_angle_alpha    76.1269818314761
_cell_angle_beta     83.48193613122487
_cell_angle_gamma    88.31093568861888

_space_group_name_H-M_alt    "P 1"
_space_group_IT_number       1

loop_
  _space_group_symop_operation_xyz
  'x, y, z'

loop_
  _atom_site_type_symbol
  _atom_site_label
  _atom_site_symmetry_multiplicity
  _atom_site_fract_x
  _atom_site_fract_y
  _atom_site_fract_z
  _atom_site_occupancy
  Zn  Zn1       1.0  0.1289693390461153  0.954706306403239  0.010203586029696473  1.0000
  Zn  Zn2       1.0  0.8710265767640378  0.04529385568999091  0.9897959867844506  1.0000
  Zn  Zn3       1.0  4.3362265960023936e-07  0.5000007720986943  1.8907584902267233e-06  1.0000
  H   H1        1.0  0.811313376588906  0.4051440144162585  0.9895790101997335  1.0000
  H   H2        1.0  0.18868684147112447  0.5948579165416987  0.010423478161449423  1.0000
  H   H3        1.0  0.8411089164777436  0.36415467916780403  0.06850162547353023  1.0000
  H   H4        1.0  0.1588891560263548  0.6358460715920843  0.9315002223044929  1.0000
  H   H5        1.0  0.2756098793054064  0.038980055346911506  0.18456865290329458  1.0000
  H   H6        1.0  0.7243817320051349  0.961017747005507  0.8154276251284073  1.0000
  H   H7        1.0  0.2551582373424566  0.16373107740593443  0.37420190594038155  1.0000
  H   H8        1.0  0.7448462403885044  0.8362667146389172  0.6257966851895417  1.0000
  H   H9        1.0  0.3354050125517318  0.12213654367225503  0.2636576605476719  1.0000
  H   H10       1.0  0.6645919536497189  0.8778618456710063  0.7363387020002748  1.0000
  H   H11       1.0  0.3269177247553258  0.25908437980996274  0.4391597186485399  1.0000
  H   H12       1.0  0.6730846230571785  0.7409128222575845  0.5608406247497797  1.0000
  H   H13       1.0  0.5619613169314945  0.8866099449134242  0.1423880285577752  1.0000
  H   H14       1.0  0.4380388920189517  0.11338607662840161  0.8576126810654544  1.0000
  H   H15       1.0  0.9311004853114256  0.3893852956691078  0.5633114285024234  1.0000
  H   H16       1.0  0.0689007920834968  0.6106154530872985  0.43668923563604517  1.0000
  H   H17       1.0  0.9567328602355617  0.261911562092891  0.21960384004742645  1.0000
  H   H18       1.0  0.0432662717140886  0.7380915523772558  0.7803964453041984  1.0000
  H   H19       1.0  0.4276084293680285  0.7731387639557783  0.22142748782976435  1.0000
  H   H20       1.0  0.5723982150423623  0.22685784330834485  0.7785747575779851  1.0000
  H   H21       1.0  0.9408961865182377  0.7432299852044083  0.13917280803291024  1.0000
  H   H22       1.0  0.059106134629431005  0.2567707640855872  0.8608237699294463  1.0000
  H   H23       1.0  0.2137091800102127  0.4521402196404695  0.2739505410825274  1.0000
  H   H24       1.0  0.7862888901888212  0.547858167287437  0.7260507965619354  1.0000
  H   H25       1.0  0.8138065730102113  0.3541714037191782  0.8034068897165056  1.0000
  H   H26       1.0  0.18619473889594929  0.6458269794031112  0.1965988017327689  1.0000
  H   H27       1.0  0.8082477056913788  0.6295889519708667  0.2168370678496103  1.0000
  H   H28       1.0  0.19176212363887396  0.3704112001845632  0.7831612352906844  1.0000
  H   H29       1.0  0.8982897734736213  0.17748928013154605  0.1406704834031842  1.0000
  H   H30       1.0  0.1017040036404495  0.8225150203036693  0.8593298483303472  1.0000
  H   H31       1.0  0.1401668500329194  0.35824963687367983  0.2094519358854328  1.0000
  H   H32       1.0  0.8598344273066798  0.641749338926829  0.7905485973548707  1.0000
  H   H33       1.0  0.40859713981951984  0.6851894488089487  0.3385231459534949  1.0000
  H   H34       1.0  0.5914084161754262  0.3148059781353895  0.6614763863111291  1.0000
  H   H35       1.0  0.44852035000764806  0.44767515386190143  0.4983804460818391  1.0000
  H   H36       1.0  0.551478784025754  0.5523232326166224  0.501619825810721  1.0000
  H   H37       1.0  0.9078173780732683  0.3404809063506989  0.6848906020361625  1.0000
  H   H38       1.0  0.09218178279094498  0.6595192517730838  0.3151138279868347  1.0000
  H   H39       1.0  0.3509973298714399  0.12982985401072267  0.036706252199302  1.0000
  H   H40       1.0  0.6490007270505062  0.8701720794843127  0.9632933336253302  1.0000
  H   H41       1.0  0.2615483996319626  0.4768797735006274  0.9032450388436928  1.0000
  H   H42       1.0  0.7384485900533589  0.5231203876517228  0.0967549784306527  1.0000
  H   H43       1.0  0.4560676457120109  0.37771492495254944  0.8942232491315351  1.0000
  H   H44       1.0  0.5439271872793654  0.6222846475331353  0.10577449317892733  1.0000
  H   H45       1.0  0.5182009830426962  0.42242995101003095  0.28903087496491503  1.0000
  H   H46       1.0  0.4818013413412601  0.5775672522043325  0.7109659446051565  1.0000
  H   H47       1.0  0.24509747261422632  0.22754694647735366  0.08295404636249509  1.0000
  H   H48       1.0  0.754904880905606  0.7724543922142502  0.9170474414715811  1.0000
  H   H49       1.0  0.6497083139819253  0.31920315766641494  0.9351441967258438  1.0000
  H   H50       1.0  0.35029189178756326  0.6807981829069478  0.06485640218782855  1.0000
  H   H51       1.0  0.04525790234345809  0.3803160685789422  0.4471546634591235  1.0000
  H   H52       1.0  0.9547401679109058  0.619684091304869  0.5528468050834974  1.0000
  H   H53       1.0  0.1873715722182254  0.5388005947011153  0.6621079528454672  1.0000
  H   H54       1.0  0.8126243436472578  0.4612013403480121  0.3378917508668309  1.0000
  H   H55       1.0  0.3341602423944536  0.45956983426356884  0.6135983627307837  1.0000
  H   H56       1.0  0.6658388883473378  0.5404303253346826  0.38640153665590293  1.0000
  H   H57       1.0  0.555957508080688  0.03673467868964051  0.034466664212509095  1.0000
  H   H58       1.0  0.4440426798569206  0.9632672537427922  0.9655312935123561  1.0000
  H   H59       1.0  0.6403914385571596  0.5409250197929937  0.21484948733256456  1.0000
  H   H60       1.0  0.3596108925759935  0.45907395604961476  0.7851484699437278  1.0000
  H   H61       1.0  0.09637533307015642  0.5492148138589885  0.782158574147985  1.0000
  H   H62       1.0  0.9036248605194431  0.4507894822415964  0.217840397114486  1.0000
  H   H63       1.0  0.2866359738641862  0.5664375612319789  0.41318696755529766  1.0000
  H   H64       1.0  0.7133631389350724  0.4335596443135331  0.5868100288462728  1.0000
  H   H65       1.0  0.8375125585765559  0.21681562156119583  0.9342253286369484  1.0000
  H   H66       1.0  0.1624812173296633  0.7831857240021237  0.06577461713164473  1.0000
  H   H67       1.0  0.0642257080598512  0.33330674283882195  0.08432977368281058  1.0000
  H   H68       1.0  0.9357798715849484  0.666695774782312  0.9156738060026939  1.0000
  C   C1        1.0  0.2058919289128198  0.08763294320047522  0.1930864016900458  1.0000
  C   C2        1.0  0.7940996791061181  0.9123666322716847  0.8069095038357758  1.0000
  C   C3        1.0  0.24621748961173753  0.22709586112959815  0.35189815828521626  1.0000
  C   C4        1.0  0.7537848437158203  0.7729019326331895  0.6481000473283274  1.0000
  C   C5        1.0  0.23838738545930482  0.1340654292635222  0.23745241454314936  1.0000
  C   C6        1.0  0.761609572951066  0.865933551447313  0.7625428170280982  1.0000
  C   C7        1.0  0.28647666927516713  0.28036584297354494  0.3886160407921437  1.0000
  C   C8        1.0  0.7135288867751014  0.7196313569266979  0.6113836223706387  1.0000
  C   C9        1.0  0.9084055306016554  0.45492210221714663  0.8750145473537784  1.0000
  C   C10       1.0  0.0915978890022728  0.5450798269011516  0.12498625396380444  1.0000
  C   C11       1.0  0.6152945047834848  0.8300776441790847  0.15962782380923102  1.0000
  C   C12       1.0  0.38470569527868287  0.1699195597702214  0.8403716306686776  1.0000
  C   C13       1.0  0.0450676732848478  0.40195646842534677  0.5497060272797896  1.0000
  C   C14       1.0  0.9549314574569439  0.5980436911729043  0.45029387210689004  1.0000
  C   C15       1.0  0.027267735016444295  0.21324966058521266  0.2115770005011512  1.0000
  C   C16       1.0  0.972730319711097  0.7867534549896508  0.7884223369862368  1.0000
  C   C17       1.0  0.0847088547057808  0.10423948660859145  0.15687410525160317  1.0000
  C   C18       1.0  0.9152817096710635  0.8957636342417816  0.8431261482466469  1.0000
  C   C19       1.0  0.5406915188670922  0.766363034506398  0.20410423701068936  1.0000
  C   C20       1.0  0.45931404162731576  0.23363357419009392  0.7958960537247535  1.0000
  C   C21       1.0  0.8282312599020187  0.749378188215431  0.1570117409608756  1.0000
  C   C22       1.0  0.1717710667316652  0.25061960587500925  0.8429854578446055  1.0000
  C   C23       1.0  0.22220769092221096  0.3888805215884546  0.29578629849354593  1.0000
  C   C24       1.0  0.7777935852648524  0.6111172722960561  0.7042139796799773  1.0000
  C   C25       1.0  0.8958464094147158  0.39437933837659506  0.772021099241897  1.0000
  C   C26       1.0  0.10415595299338778  0.6056208179075286  0.22798164373750035  1.0000
  C   C27       1.0  0.192618332793586  0.25365457479252757  0.2869437492470155  1.0000
  C   C28       1.0  0.8073861382435084  0.7463432175799909  0.7130538350748382  1.0000
  C   C29       1.0  0.7533334836293051  0.6856463917320782  0.20047726705262653  1.0000
  C   C30       1.0  0.24667313181118541  0.3143513989225114  0.7995207027855925  1.0000
  C   C31       1.0  0.993807630590517  0.16635782087838896  0.1679858618466383  1.0000
  C   C32       1.0  0.0061850815366640026  0.833645298090218  0.8320152805720086  1.0000
  C   C33       1.0  0.18063666222010968  0.33563607704921594  0.2598797329811333  1.0000
  C   C34       1.0  0.819360334103763  0.6643623108195698  0.7401211602031238  1.0000
  C   C35       1.0  0.7598591290561031  0.8222127789687408  0.135419860155487  1.0000
  C   C36       1.0  0.2401378538246917  0.17778383659946687  0.8645788885144724  1.0000
  C   C37       1.0  0.43195543188439683  0.6278063768560217  0.3267324094238688  1.0000
  C   C38       1.0  0.5680511891527615  0.3721920045108151  0.673266443053798  1.0000
  C   C39       1.0  0.253742641240116  0.41593825695937886  0.4641477908685657  1.0000
  C   C40       1.0  0.746258631600014  0.5840595370889617  0.535851983900919  1.0000
  C   C41       1.0  0.3342084297719338  0.43689074543478074  0.512322568274115  1.0000
  C   C42       1.0  0.6657907043167911  0.5631094139996479  0.4876778345166031  1.0000
  C   C43       1.0  0.0560752008198975  0.060352497975579  0.1033514873544163  1.0000
  C   C44       1.0  0.9439068171076312  0.9396482642762155  0.8966517479851319  1.0000
  C   C45       1.0  0.9477625627373383  0.3875567975923389  0.7052011162909865  1.0000
  C   C46       1.0  0.052238732489463806  0.6124433593050045  0.2948021890362753  1.0000
  C   C47       1.0  0.4568940798789852  0.15290355827450952  0.014449967725092  1.0000
  C   C48       1.0  0.5431061192519592  0.8470995555824247  0.9855497552786616  1.0000
  C   C49       1.0  0.26273169534826474  0.42036359612203716  0.9413684098769934  1.0000
  C   C50       1.0  0.7372685070742833  0.5796377446151554  0.05863168563264048  1.0000
  C   C51       1.0  0.3708348843385422  0.3651064775143312  0.9372657466625753  1.0000
  C   C52       1.0  0.6291631770275499  0.6348948647769606  0.06273446673472448  1.0000
  C   C53       1.0  0.49426267746557784  0.48002585587745034  0.3000948608743528  1.0000
  C   C54       1.0  0.5057364453744881  0.5199713491765722  0.6999036457393117  1.0000
  C   C55       1.0  0.48181807307785374  0.23386019370400393  0.9862642459034204  1.0000
  C   C56       1.0  0.5181853264997827  0.766143509353178  0.013733665888111096  1.0000
  C   C57       1.0  0.25327631438992165  0.2812636480069132  0.041278096784118576  1.0000
  C   C58       1.0  0.7467249753508725  0.7187394640899855  0.9587245877000186  1.0000
  C   C59       1.0  0.6209689650996353  0.2573896593761305  0.956621097815315  1.0000
  C   C60       1.0  0.37903445006014636  0.7426128609459115  0.04337907592960727  1.0000
  C   C61       1.0  0.1517664728300474  0.19899634691699225  0.24603349949838818  1.0000
  C   C62       1.0  0.8482326422742689  0.8010032224605013  0.7539640070367426  1.0000
  C   C63       1.0  0.6082838467329239  0.6926103064601818  0.22480117095714994  1.0000
  C   C64       1.0  0.39172598588893953  0.3073880725755131  0.775197504689018  1.0000
  C   C65       1.0  0.3922600827222312  0.4857791474093178  0.3562813490704073  1.0000
  C   C66       1.0  0.6077422551047958  0.514219828105624  0.643717615013962  1.0000
  C   C67       1.0  0.5322017263236987  0.622838296546803  0.26979603773244065  1.0000
  C   C68       1.0  0.46780704246380383  0.37716008293828207  0.7302037036656303  1.0000
  C   C69       1.0  0.1086944644944907  0.39670751435000556  0.4841419794482603  1.0000
  C   C70       1.0  0.8913046695942343  0.603292645084416  0.5158584233424576  1.0000
  C   C71       1.0  0.10626631989875077  0.4976796015976959  0.6930589964172285  1.0000
  C   C72       1.0  0.8937328276330447  0.5023223301373108  0.3069435508877874  1.0000
  C   C73       1.0  0.12245871394424061  0.42764492267485826  0.5967378908683116  1.0000
  C   C74       1.0  0.8775425667422925  0.5723540529618135  0.40326314577603023  1.0000
  C   C75       1.0  0.2692269386705988  0.443797601755577  0.5768757392818173  1.0000
  C   C76       1.0  0.7307743342248613  0.5562019652486683  0.4231241663858256  1.0000
  C   C77       1.0  0.0565161054033254  0.43781126195073494  0.6649845577780482  1.0000
  C   C78       1.0  0.9434851820324112  0.562189486314175  0.3350176165725216  1.0000
  C   C79       1.0  0.9517991583085815  0.4515005920201318  0.8008370557509679  1.0000
  C   C80       1.0  0.04820212687742039  0.5484995653687079  0.19916473936419277  1.0000
  C   C81       1.0  0.5697755528745319  0.0999903151095438  0.012257147929552984  1.0000
  C   C82       1.0  0.4302214313247815  0.9000128012423617  0.987742248501668  1.0000
  C   C83       1.0  0.36745561183547437  0.2933655213337334  0.9879604595110436  1.0000
  C   C84       1.0  0.6325445917396094  0.7066370013194503  0.01203989106537051  1.0000
  C   C85       1.0  0.2756918704079396  0.3619189628158851  0.3603322028342077  1.0000
  C   C86       1.0  0.7243126185163574  0.6380800106534751  0.639668153574604  1.0000
  C   C87       1.0  0.5617913003255594  0.5471792685420883  0.2579701965191034  1.0000
  C   C88       1.0  0.43820889979193106  0.4528197083631299  0.7420293888569631  1.0000
  C   C89       1.0  0.8406874156812024  0.8894365894636423  0.08619928410895744  1.0000
  C   C90       1.0  0.1593106187434117  0.11055943527058791  0.9137965093615888  1.0000
  C   C91       1.0  0.0557506173450903  0.5039177612128044  0.7599526848391349  1.0000
  C   C92       1.0  0.9442495973126765  0.4960823969530781  0.2400491692198585  1.0000
  C   C93       1.0  0.36360101739009565  0.5608774124761384  0.369338904269398  1.0000
  C   C94       1.0  0.6364013181871968  0.4391209721627265  0.6306596805795621  1.0000
  C   C95       1.0  0.7277760140617104  0.20083033860153426  0.9562450728654851  1.0000
  C   C96       1.0  0.2722252533477345  0.7991721836022664  0.043754211959026276  1.0000
  C   C97       1.0  0.1510071811756291  0.34020710687804023  0.04204451476537939  1.0000
  C   C98       1.0  0.8489941097176937  0.6597971871348494  0.9579584247855379  1.0000
  N   N1        1.0  0.31854425174023504  0.41753775744035  0.3959997974367937  1.0000
  N   N2        1.0  0.681458097224798  0.5824606265431954  0.6040008010283059  1.0000
  N   N3        1.0  0.15432048531167913  0.4085444023713905  0.9930836246288449  1.0000
  N   N4        1.0  0.8456840115696734  0.5914592985981033  0.006918255451132879  1.0000
  N   N5        1.0  0.7029688979016554  0.12325364965797554  0.98353073655651  1.0000
  N   N6        1.0  0.29702701351968835  0.8767488765948956  0.016468339583127475  1.0000
  O   O1        1.0  0.8231183104012914  0.40235503309789783  0.9125798885853555  1.0000
  O   O2        1.0  0.17688617759178982  0.5976498502790834  0.08742073634930143  1.0000
  O   O3        1.0  0.975560935810222  0.8805396150825686  0.07410905882384361  1.0000
  O   O4        1.0  0.0244381645878349  0.11945345416654624  0.9258857863338931  1.0000
  O   O5        1.0  0.9413566750380865  0.0779399013141315  0.0748128896508078  1.0000
  O   O6        1.0  0.0586317750024463  0.9220614468237828  0.9251913780692219  1.0000
  O   O7        1.0  0.8199205114870551  0.4148689391243679  0.03830382772238748  1.0000
  O   O8        1.0  0.1800797021288361  0.585133583037333  0.9616980330661348  1.0000
  O   O9        1.0  0.1509357303914811  0.011007249501489002  0.0890766998134112  1.0000
  O   O10       1.0  0.8490398396749156  0.9889887907316107  0.9109228484977762  1.0000
  O   O11       1.0  0.7691771400903349  0.9501012509244835  0.059203212235530545  1.0000
  O   O12       1.0  0.23082949762618196  0.04989535666729951  0.940798026364149  1.0000
  O   O13       1.0  0.964643832887738  0.5098228892232798  0.8960488411351263  1.0000
  O   O14       1.0  0.0353542374772786  0.490180816572334  0.10395288920381064  1.0000
