data_image0
_chemical_formula_structural       Er2CuH16C32N4O26
_chemical_formula_sum              "Er2 Cu1 H16 C32 N4 O26"
_cell_length_a       9.790460384016132
_cell_length_b       10.22784818930378
_cell_length_c       10.991268980878564
_cell_angle_alpha    69.90618835235074
_cell_angle_beta     86.07520082242354
_cell_angle_gamma    71.31377696042745

_space_group_name_H-M_alt    "P 1"
_space_group_IT_number       1

loop_
  _space_group_symop_operation_xyz
  'x, y, z'

loop_
  _atom_site_type_symbol
  _atom_site_label
  _atom_site_symmetry_multiplicity
  _atom_site_fract_x
  _atom_site_fract_y
  _atom_site_fract_z
  _atom_site_occupancy
  Er  Er1       1.0  0.40289443853446016  0.40776190314288385  0.41705108886144865  1.0000
  Er  Er2       1.0  0.5971041629016156  0.5922397366752319  0.5829450184295625  1.0000
  Cu  Cu1       1.0  0.49999758376930015  1.5303426010996425e-06  0.4999986710125413  1.0000
  H   H1        1.0  0.9170232314591615  0.36644122938180584  0.48172195917124583  1.0000
  H   H2        1.0  0.08297980191826339  0.6335526794708739  0.5182899811479302  1.0000
  H   H3        1.0  0.8116384790961604  0.9659058785475876  0.66495713159906  1.0000
  H   H4        1.0  0.18836046129825956  0.034091349666958586  0.3350467225911942  1.0000
  H   H5        1.0  0.25459791241244306  0.9548450815354239  0.6512261021725578  1.0000
  H   H6        1.0  0.7454064876733285  0.045151033792905096  0.34878141776491833  1.0000
  H   H7        1.0  0.457422384488261  0.3787563971069686  0.9758181911880826  1.0000
  H   H8        1.0  0.5425799743815463  0.6212463596405654  0.024170968763229415  1.0000
  H   H9        1.0  0.34629733215886216  0.9925968222428304  0.20163186109404327  1.0000
  H   H10       1.0  0.6537040014154982  0.007409221268694898  0.7983581378970896  1.0000
  H   H11       1.0  0.29451349776434205  0.1510318032984657  0.7850011961362142  1.0000
  H   H12       1.0  0.7054881781774255  0.8489698532972054  0.21498926318477632  1.0000
  H   H13       1.0  0.22488685780098902  0.6751890999211693  0.18623639442513004  1.0000
  H   H14       1.0  0.7751117418964739  0.3248158229955677  0.8137614017125543  1.0000
  H   H15       1.0  0.1300026879296824  0.5704191851329267  0.25243267903618266  1.0000
  H   H16       1.0  0.8699901075783671  0.4295912221560626  0.7475655451302926  1.0000
  C   C1        1.0  0.0968860588071223  0.16880051842058205  0.5582428952971696  1.0000
  C   C2        1.0  0.9031132209376908  0.8311955967188351  0.4417658405331225  1.0000
  C   C3        1.0  0.9496355461525926  0.2485758879222998  0.5337201021866916  1.0000
  C   C4        1.0  0.05036407379488141  0.7514191203139188  0.46629169364128853  1.0000
  C   C5        1.0  0.8467734855191936  0.17577591942647078  0.5698927624911008  1.0000
  C   C6        1.0  0.1532237445210783  0.8242234799703849  0.4301177842145237  1.0000
  C   C7        1.0  0.8897404054991824  0.02505503621665639  0.6383777446225877  1.0000
  C   C8        1.0  0.11025682539335688  0.9749443693521297  0.36163098044068687  1.0000
  C   C9        1.0  0.03537441424709449  0.950412767342534  0.6714793273709178  1.0000
  C   C10       1.0  0.9646231594049016  0.049585549838837985  0.3285269927630097  1.0000
  C   C11       1.0  0.14107937078847502  0.018434887303150998  0.629344208991057  1.0000
  C   C12       1.0  0.8589243480737851  0.9815601402171762  0.3706609670313982  1.0000
  C   C13       1.0  0.20286933837017077  0.2478045458310801  0.5025250002111079  1.0000
  C   C14       1.0  0.7971275518935814  0.7521959635549463  0.4974815756756428  1.0000
  C   C15       1.0  0.6924473167556046  0.25697297902590305  0.5277168590473664  1.0000
  C   C16       1.0  0.30755025689639853  0.7430253381554691  0.4722894610865609  1.0000
  C   C17       1.0  0.38102303625157663  0.2728708911690134  0.8678503356281553  1.0000
  C   C18       1.0  0.6189796628208911  0.7271307586753223  0.1321418843208519  1.0000
  C   C19       1.0  0.4153559584544483  0.29007816934321795  0.9823149455669267  1.0000
  C   C20       1.0  0.5846504963812933  0.7099212896441995  0.017675924765093567  1.0000
  C   C21       1.0  0.40176044703972025  0.18970158612643925  0.10301213688004648  1.0000
  C   C22       1.0  0.5982466890536106  0.8102956652265049  0.8969830318050143  1.0000
  C   C23       1.0  0.34996654087962037  0.07536078788976398  0.10909774208148089  1.0000
  C   C24       1.0  0.6500388899390757  0.9246419671195409  0.8908912348268457  1.0000
  C   C25       1.0  0.3048880024729428  0.06785176083021578  0.9953003435536586  1.0000
  C   C26       1.0  0.6951208418097893  0.932146599353075  0.004690732283876324  1.0000
  C   C27       1.0  0.32135963434754444  0.16367694023070808  0.8738237786077078  1.0000
  C   C28       1.0  0.6786430660033177  0.8363247188715163  0.126165708877778  1.0000
  C   C29       1.0  0.4172189017038548  0.3634014342343689  0.7369444675010612  1.0000
  C   C30       1.0  0.5827796996981434  0.6366035010262221  0.26304968535193035  1.0000
  C   C31       1.0  0.4437532626125248  0.19360428100438298  0.23068574120974722  1.0000
  C   C32       1.0  0.5562484120508416  0.8063973663333923  0.7693074505747574  1.0000
  N   N1        1.0  0.07845752707393681  0.7923571862062955  0.7485355673383225  1.0000
  N   N2        1.0  0.9215410688905764  0.20763782260933533  0.25147628950399087  1.0000
  N   N3        1.0  0.243849800835264  0.9515441091782074  0.005334043247472819  1.0000
  N   N4        1.0  0.7561525589208884  0.04845535829877429  0.994655249499516  1.0000
  O   O1        1.0  0.33667388192930753  0.1783719418971401  0.4942480449691828  1.0000
  O   O2        1.0  0.6633240331696728  0.8216285730813976  0.505756648260899  1.0000
  O   O3        1.0  0.1624607787395647  0.3866682514359494  0.4606031508300105  1.0000
  O   O4        1.0  0.8375361106719127  0.6133322517781463  0.53940524669909  1.0000
  O   O5        1.0  0.63988305974015  0.390815735198231  0.5209074532444191  1.0000
  O   O6        1.0  0.36012031973763925  0.6091837008397005  0.47909088669997146  1.0000
  O   O7        1.0  0.6155428734360697  0.1952298685507258  0.4936712186776758  1.0000
  O   O8        1.0  0.38445435873487105  0.8047695462759562  0.5063347739220774  1.0000
  O   O9        1.0  0.9803519169243418  0.7381455332775102  0.7906725914131415  1.0000
  O   O10       1.0  0.019641899293930017  0.26185166697444356  0.20934067606048495  1.0000
  O   O11       1.0  0.20892194562789262  0.7229308118682309  0.7657064234950752  1.0000
  O   O12       1.0  0.7910722121396037  0.2770586998534553  0.23431108038877818  1.0000
  O   O13       1.0  0.3850191747978969  0.336391920979409  0.6402486623777577  1.0000
  O   O14       1.0  0.6149831823673751  0.6636108234242712  0.35974414085825407  1.0000
  O   O15       1.0  0.48143784653442623  0.4540265038221845  0.7351756079409739  1.0000
  O   O16       1.0  0.5185576824584572  0.5459817255331527  0.2648176843381549  1.0000
  O   O17       1.0  0.4256155594591534  0.31384478093020357  0.24639862846630223  1.0000
  O   O18       1.0  0.5743864554068808  0.6861557595043732  0.7535976233158977  1.0000
  O   O19       1.0  0.494189337752978  0.06378094248137955  0.31451246137743977  1.0000
  O   O20       1.0  0.5058082383876582  0.9362239841007348  0.685484484953399  1.0000
  O   O21       1.0  0.24583843770032848  0.8594052794283724  0.11563350664702919  1.0000
  O   O22       1.0  0.7541628967944618  0.14059417937012597  0.8843585795778068  1.0000
  O   O23       1.0  0.1930671318090448  0.9499339117162715  0.9061578498779069  1.0000
  O   O24       1.0  0.8069324961667946  0.05006774603821637  0.0938327314717426  1.0000
  O   O25       1.0  0.22070590327320624  0.5877431328455243  0.2585466368539002  1.0000
  O   O26       1.0  0.7792950884621277  0.412257414340388  0.7414478543002829  1.0000
