data_image0
_chemical_formula_structural       Cd3H54C52S2N18O20
_chemical_formula_sum              "Cd3 H54 C52 S2 N18 O20"
_cell_length_a       10.21085723621198
_cell_length_b       13.016652604103081
_cell_length_c       13.8717
_cell_angle_alpha    60.76504281498119
_cell_angle_beta     83.02700815147857
_cell_angle_gamma    88.08661980356041

_space_group_name_H-M_alt    "P 1"
_space_group_IT_number       1

loop_
  _space_group_symop_operation_xyz
  'x, y, z'

loop_
  _atom_site_type_symbol
  _atom_site_label
  _atom_site_symmetry_multiplicity
  _atom_site_fract_x
  _atom_site_fract_y
  _atom_site_fract_z
  _atom_site_occupancy
  Cd  Cd1       1.0  0.5165722249269606  0.6912382918262026  0.8524455443353743  1.0000
  Cd  Cd2       1.0  0.48345211419770345  0.3087531976322921  0.14755805525104657  1.0000
  Cd  Cd3       1.0  0.5000029967854118  0.5000164430708125  0.4999877270086798  1.0000
  H   H1        1.0  0.9415746326363816  0.1705182225061392  0.2613571598818325  1.0000
  H   H2        1.0  0.0583858695943533  0.82948207475728  0.7386380153437032  1.0000
  H   H3        1.0  0.11535186378579  0.105420617109381  0.16266320025303568  1.0000
  H   H4        1.0  0.8846078879498693  0.8945867263979679  0.8373230456936867  1.0000
  H   H5        1.0  0.04677476304723171  0.7470154780546778  0.4291116042796261  1.0000
  H   H6        1.0  0.9532256478672994  0.2529980309161246  0.5709143197943546  1.0000
  H   H7        1.0  0.8815191773489417  0.8123183053061069  0.5278511109416613  1.0000
  H   H8        1.0  0.11849121811630427  0.1876987267866568  0.4721802360956885  1.0000
  H   H9        1.0  0.8350723663567124  0.0684348826816361  0.5092834390203365  1.0000
  H   H10       1.0  0.1649190761736037  0.9315759839476883  0.49072575424926157  1.0000
  H   H11       1.0  0.7492435374093418  0.1210025047965928  0.39130438924507155  1.0000
  H   H12       1.0  0.2507430309218108  0.8790101233937121  0.6087065949708829  1.0000
  H   H13       1.0  0.1364901819585143  0.8194526272927902  0.20396385092055874  1.0000
  H   H14       1.0  0.8634731621383905  0.1805441468486535  0.7960564743937155  1.0000
  H   H15       1.0  0.2290545325842643  0.9538738228877931  0.14255605201589117  1.0000
  H   H16       1.0  0.7708951755625933  0.0461282359366066  0.857437117820005  1.0000
  H   H17       1.0  0.7148471938513764  0.9168396455329741  0.6888402076801723  1.0000
  H   H18       1.0  0.28515396755823014  0.0831668171938844  0.3111730189073398  1.0000
  H   H19       1.0  0.4657902211392937  0.7698338582656632  0.5651454917556435  1.0000
  H   H20       1.0  0.5341944919731388  0.2301822930466102  0.4348698107812794  1.0000
  H   H21       1.0  0.5623331434443841  0.7971671192795782  0.3829940816331572  1.0000
  H   H22       1.0  0.43763528596625895  0.2028930710573107  0.6169960054821501  1.0000
  H   H23       1.0  0.24560067106732217  0.6366378283352887  0.3312576308073573  1.0000
  H   H24       1.0  0.7544076920649161  0.3633774421964944  0.6687321725083493  1.0000
  H   H25       1.0  0.12046946797620711  0.8587680261223625  0.952554320228934  1.0000
  H   H26       1.0  0.8795081740086843  0.1412137747507174  0.04743554484456069  1.0000
  H   H27       1.0  0.9324734221712703  0.7880845108441861  0.10114683425705104  1.0000
  H   H28       1.0  0.0675034102804446  0.21190257471184987  0.8988457274980063  1.0000
  H   H29       1.0  0.18783808996928292  0.0940629526626822  0.7451079206701507  1.0000
  H   H30       1.0  0.8121644248352382  0.9059250136738441  0.2548913139870309  1.0000
  H   H31       1.0  0.2559862560393498  0.1722075594901469  0.803147622394313  1.0000
  H   H32       1.0  0.74399855814913  0.8277821684073671  0.19685454941287608  1.0000
  H   H33       1.0  0.5420313316089036  0.8569712339183084  0.00519596160214772  1.0000
  H   H34       1.0  0.45795566250780684  0.143024659442645  0.9948204912561918  1.0000
  H   H35       1.0  0.3326495366283311  0.9375344639773076  0.7352401040958653  1.0000
  H   H36       1.0  0.6673690892449429  0.0624631909446336  0.2647582969168666  1.0000
  H   H37       1.0  0.009251111187850804  0.6730501746626274  0.8569293430067261  1.0000
  H   H38       1.0  0.9907758461695124  0.3269016796737176  0.1430756063805063  1.0000
  H   H39       1.0  0.1881996852482573  0.5576873073574831  0.15756022585053128  1.0000
  H   H40       1.0  0.8118245653192704  0.4423015397595407  0.8424381045728921  1.0000
  H   H41       1.0  0.7653033614875683  0.5699565796135886  0.16595906540531047  1.0000
  H   H42       1.0  0.23472340623661128  0.43001905579604477  0.8340407694894976  1.0000
  H   H43       1.0  0.5922731969960111  0.4777873050091017  0.8726714230153404  1.0000
  H   H44       1.0  0.4077601990700046  0.5222094691323491  0.1273188528218228  1.0000
  H   H45       1.0  0.44171844895620893  0.4637670411345312  0.8878670860568858  1.0000
  H   H46       1.0  0.5583147699955191  0.5362244483239635  0.11212130216041057  1.0000
  H   H47       1.0  0.5468951619038052  0.4679208019356622  0.29526381193773676  1.0000
  H   H48       1.0  0.4531199011272804  0.5320883031326744  0.7047260555369161  1.0000
  H   H49       1.0  0.6804942981450637  0.4745495559198361  0.3442281244305789  1.0000
  H   H50       1.0  0.3195207353669716  0.5254586683680103  0.6557679164703458  1.0000
  H   H51       1.0  0.7706380717269568  0.5794038311727405  0.43987709011456383  1.0000
  H   H52       1.0  0.22937902363712234  0.4206070354565767  0.5601053004137525  1.0000
  H   H53       1.0  0.7597037084930705  0.5683835056545519  0.5573942750180548  1.0000
  H   H54       1.0  0.24028565966629858  0.43165378438953883  0.4425820882210232  1.0000
  C   C1        1.0  0.8985680931917273  0.9969510351994799  0.3996853510270596  1.0000
  C   C2        1.0  0.10141252573566822  0.0030607122103348  0.6003200804652381  1.0000
  C   C3        1.0  0.9670039221616166  0.0781798380471486  0.29787568048827484  1.0000
  C   C4        1.0  0.0329685379147335  0.921823982338239  0.7021276249303127  1.0000
  C   C5        1.0  0.0639985441676814  0.0410575826431128  0.24269080469623816  1.0000
  C   C6        1.0  0.9359720016518551  0.9589479993032555  0.7573032137775256  1.0000
  C   C7        1.0  0.0917890678857631  0.9215756022394429  0.28735829716550393  1.0000
  C   C8        1.0  0.90818243506218  0.0784290989264349  0.7126461319180846  1.0000
  C   C9        1.0  0.0252549930998711  0.8404557189093893  0.39070354980719196  1.0000
  C   C10       1.0  0.9747325618787316  0.1595569092809228  0.6093102298079529  1.0000
  C   C11       1.0  0.9302085159132218  0.8777990502169644  0.44710310179382867  1.0000
  C   C12       1.0  0.06977506295653062  0.1222126971928503  0.5529179248178123  1.0000
  C   C13       1.0  0.7932814176318245  0.0423364759177574  0.4546829361152546  1.0000
  C   C14       1.0  0.2067061963848786  0.9576779138335283  0.5453257055690983  1.0000
  C   C15       1.0  0.1868862302680085  0.8800996488625472  0.22218881814058017  1.0000
  C   C16       1.0  0.8130862002892912  0.1199032907423501  0.7778141726746879  1.0000
  C   C17       1.0  0.6643364089441732  0.8978112637798503  0.6347625995983961  1.0000
  C   C18       1.0  0.3356568888048628  0.1021960797274986  0.3652530887328709  1.0000
  C   C19       1.0  0.5391854449261616  0.8261659362042124  0.5685821501529985  1.0000
  C   C20       1.0  0.4607992386672209  0.1738493343275707  0.4314306751040888  1.0000
  C   C21       1.0  0.4721471918916649  0.7842002688736613  0.3557341885656129  1.0000
  C   C22       1.0  0.5278216042664354  0.21584142507288817  0.6442650633385155  1.0000
  C   C23       1.0  0.314633207273296  0.6990129412307056  0.3304951697801499  1.0000
  C   C24       1.0  0.6853663350699649  0.3010040908620653  0.6694931726990774  1.0000
  C   C25       1.0  0.10689761035220609  0.0405167834209124  0.9151354038044914  1.0000
  C   C26       1.0  0.8930900752214868  0.9594703021351235  0.08485762987029234  1.0000
  C   C27       1.0  0.0682528066577817  0.9212875870184973  0.9730779158626105  1.0000
  C   C28       1.0  0.9317309618451476  0.078700379318029  0.026909297063944796  1.0000
  C   C29       1.0  0.9619579395966016  0.8811874127703873  0.05696219607900596  1.0000
  C   C30       1.0  0.0380287593296416  0.11879967278564149  0.9430294839809361  1.0000
  C   C31       1.0  0.2194142134414889  0.085185566081968  0.8218507441181868  1.0000
  C   C32       1.0  0.7805823224402317  0.9148006386935705  0.17815199481032096  1.0000
  C   C33       1.0  0.4733411107700718  0.8959246319655989  0.9437560184879814  1.0000
  C   C34       1.0  0.5266568250257535  0.1040739037368326  0.0562510367173843  1.0000
  C   C35       1.0  0.36900736685299046  0.9342923109855832  0.8067498308422216  1.0000
  C   C36       1.0  0.6309972098035814  0.0656982976924212  0.19325665931545896  1.0000
  C   C37       1.0  0.8751040077439924  0.6270866446780516  0.005121581234824586  1.0000
  C   C38       1.0  0.12491779722387969  0.3728881099510843  0.9948711709824636  1.0000
  C   C39       1.0  0.00036225874159610046  0.6443719618371446  0.9453938254166872  1.0000
  C   C40       1.0  0.9996632566637019  0.3555957465480617  0.054603987110006434  1.0000
  C   C41       1.0  0.1131966694652533  0.620833103183557  0.9997570944865756  1.0000
  C   C42       1.0  0.8868287869019581  0.3791328436406686  0.00024513507872112104  1.0000
  C   C43       1.0  0.10055472497695211  0.5764082967188315  0.11501332663977591  1.0000
  C   C44       1.0  0.8994700399332701  0.4235664579103116  0.8849856490985673  1.0000
  C   C45       1.0  0.9757199573473229  0.5564797573026965  0.17483614066881603  1.0000
  C   C46       1.0  0.024302378963390905  0.4435108513753079  0.82516083262373  1.0000
  C   C47       1.0  0.86307178989982  0.5825728793836191  0.12033165514898057  1.0000
  C   C48       1.0  0.1369512969059699  0.41741068305044843  0.8796619922553857  1.0000
  C   C49       1.0  0.753640428124733  0.6541891412030196  0.9473125889149685  1.0000
  C   C50       1.0  0.24638787010864152  0.3457732824992306  0.05267514166937565  1.0000
  C   C51       1.0  0.24794735075731467  0.6427152137313499  0.9361867802634901  1.0000
  C   C52       1.0  0.7520737037154818  0.35726658714173  0.06381290230285687  1.0000
  S   S1        1.0  0.960731723240599  0.49424292694455113  0.32255729360178265  1.0000
  S   S2        1.0  0.039295782459746  0.5057547279773829  0.677435988532288  1.0000
  N   N1        1.0  0.6898906318355599  0.9539830396688203  0.5235963905607475  1.0000
  N   N2        1.0  0.3100921375010159  0.0460339924239435  0.4764165193498044  1.0000
  N   N3        1.0  0.6111150610909704  0.9093336341785871  0.4792577591234703  1.0000
  N   N4        1.0  0.3888628340464351  0.0906851594751643  0.5207576626256127  1.0000
  N   N5        1.0  0.5689390488156718  0.8162527517646936  0.6659060145134814  1.0000
  N   N6        1.0  0.4310532622859071  0.1837545917426624  0.33410904109511813  1.0000
  N   N7        1.0  0.2959950398453373  0.815374613613983  0.28251879224553283  1.0000
  N   N8        1.0  0.7039847695488817  0.1846424184787807  0.7174727554082736  1.0000
  N   N9        1.0  0.3946856849741352  0.8713755180874685  0.2982026022596642  1.0000
  N   N10       1.0  0.6052748342567398  0.1286547257126784  0.7017939860496792  1.0000
  N   N11       1.0  0.4267184870520566  0.6764376564355601  0.37750699460415393  1.0000
  N   N12       1.0  0.5732767124348896  0.3235969912670527  0.6224851972201576  1.0000
  N   N13       1.0  0.327576960760652  0.0039784854831879  0.8499505604715906  1.0000
  N   N14       1.0  0.6724176018261616  0.9960077192923505  0.1500595637177042  1.0000
  N   N15       1.0  0.3929004317916451  0.9806125570694846  0.9381773661666628  1.0000
  N   N16       1.0  0.6070873423391916  0.0193771708280295  0.06183535451463479  1.0000
  N   N17       1.0  0.4616271579735667  0.8644693182482612  0.8645270460942881  1.0000
  N   N18       1.0  0.5383826471107369  0.1355300982346606  0.1354799865724274  1.0000
  O   O1        1.0  0.7629771483105615  0.6860152635075565  0.8448305621234481  1.0000
  O   O2        1.0  0.23702901341206933  0.313904882731066  0.15516410404261188  1.0000
  O   O3        1.0  0.6417492153592832  0.6450492820356359  0.005433511221852497  1.0000
  O   O4        1.0  0.3582902777057271  0.3549527767887639  0.99455019340418  1.0000
  O   O5        1.0  0.2628613502206889  0.6993220951834616  0.8312334862045461  1.0000
  O   O6        1.0  0.7371610746471617  0.3006711558360209  0.16876587268228596  1.0000
  O   O7        1.0  0.3457708314503947  0.6032474398766325  0.9942670802323403  1.0000
  O   O8        1.0  0.6542513867841322  0.3967396456794035  0.005732960000017317  1.0000
  O   O9        1.0  0.9562226576751061  0.3668565251406193  0.3693283655554254  1.0000
  O   O10       1.0  0.0438343588916723  0.6331384874398438  0.6306743037425516  1.0000
  O   O11       1.0  0.0741084747116432  0.5406644627850596  0.34706310603039003  1.0000
  O   O12       1.0  0.9259144224609555  0.4593428807222963  0.6529297522346127  1.0000
  O   O13       1.0  0.8323294923252931  0.54052353790631  0.34697481560461074  1.0000
  O   O14       1.0  0.1676913850332227  0.4594529782838208  0.6530265838027488  1.0000
  O   O15       1.0  0.5157435093245866  0.5166358901778167  0.8318370455261144  1.0000
  O   O16       1.0  0.48428872297969866  0.4833555992806779  0.16815431442939396  1.0000
  O   O17       1.0  0.5869261517660789  0.4463046870965073  0.36401138432748326  1.0000
  O   O18       1.0  0.413078973233482  0.5537317221670861  0.635977671439633  1.0000
  O   O19       1.0  0.7096501387859604  0.5937614339758213  0.49394882154556535  1.0000
  O   O20       1.0  0.2903607880221202  0.4062714521658108  0.5060153782415995  1.0000
