data_image0
_chemical_formula_structural       Al6H42C90I2O28
_chemical_formula_sum              "Al6 H42 C90 I2 O28"
_cell_length_a       12.492178782894968
_cell_length_b       12.5337742793766
_cell_length_c       30.541912670008514
_cell_angle_alpha    80.53704677603459
_cell_angle_beta     89.2498893037766
_cell_angle_gamma    59.99842788752449

_space_group_name_H-M_alt    "P 1"
_space_group_IT_number       1

loop_
  _space_group_symop_operation_xyz
  'x, y, z'

loop_
  _atom_site_type_symbol
  _atom_site_label
  _atom_site_symmetry_multiplicity
  _atom_site_fract_x
  _atom_site_fract_y
  _atom_site_fract_z
  _atom_site_occupancy
  Al  Al1       1.0  0.5912764386602449  0.8144340423081574  0.513167032781567  1.0000
  Al  Al2       1.0  0.3334450765408052  0.07560646812542159  0.49436607753301604  1.0000
  Al  Al3       1.0  0.569111752636232  0.08461241973783018  0.4943449733278201  1.0000
  Al  Al4       1.0  0.08316026501717753  0.8447981082183418  0.978629302697833  1.0000
  Al  Al5       1.0  0.08840331185659511  0.5832074600587874  0.9954984359431408  1.0000
  Al  Al6       1.0  0.33249094497129766  0.5753951529207343  0.9949423117534197  1.0000
  H   H1        1.0  0.48907991442300885  0.34334841689158674  0.8990687575426649  1.0000
  H   H2        1.0  0.2163317888264444  0.051102011824127706  0.7707989000420669  1.0000
  H   H3        1.0  0.12447110258086984  0.9433860800313314  0.717722477315462  1.0000
  H   H4        1.0  0.5172012766159781  0.28347956917451705  0.8240927490144119  1.0000
  H   H5        1.0  0.4603948178481901  0.41489584008544256  0.21572463628672275  1.0000
  H   H6        1.0  0.25850105531471007  0.5301904795990425  0.2680316001009899  1.0000
  H   H7        1.0  0.5448834965063228  0.18182388362966861  0.2745142347834317  1.0000
  H   H8        1.0  0.4012485563566629  0.1275422265075719  0.22121811780939285  1.0000
  H   H9        1.0  0.199097268180303  0.2426786755952221  0.2735504624302792  1.0000
  H   H10       1.0  0.11447959498192979  0.47597540176195  0.21478930622788545  1.0000
  H   H11       1.0  0.9114760780272139  0.9572721132723102  0.08280865185123791  1.0000
  H   H12       1.0  0.018032604089810864  0.7847170093045649  0.70651523223075  1.0000
  H   H13       1.0  0.8646065573039936  0.9890237763678441  0.16133683703790075  1.0000
  H   H14       1.0  0.7784560135895903  0.043362334323440194  0.2991782148775286  1.0000
  H   H15       1.0  0.5421284529838457  0.22457480547578254  0.6810684304989965  1.0000
  H   H16       1.0  0.729023969040995  0.0704381128699438  0.3778279060331046  1.0000
  H   H17       1.0  0.768658462525345  0.7050490643346663  0.40720882059154223  1.0000
  H   H18       1.0  0.8723866521454513  0.6365093649758862  0.19054182477741222  1.0000
  H   H19       1.0  0.921031039032528  0.6056301274498067  0.11212485424399435  1.0000
  H   H20       1.0  0.8168775783339091  0.6767285037669453  0.32852573115489764  1.0000
  H   H21       1.0  0.47080577774200816  0.5764695752529363  0.11406955618704735  1.0000
  H   H22       1.0  0.4911319012614684  0.599653518459057  0.19301993908163698  1.0000
  H   H23       1.0  0.6768323890274888  0.06083347766162462  0.7204793496004174  1.0000
  H   H24       1.0  0.520928829826275  0.6556238460768142  0.33235002501457  1.0000
  H   H25       1.0  0.5336693434329548  0.6925168367302987  0.40989744317678867  1.0000
  H   H26       1.0  0.20022548084315153  0.0506301930528039  0.37804262317660436  1.0000
  H   H27       1.0  0.5479048755303922  0.19389943837327192  0.6025696766457713  1.0000
  H   H28       1.0  0.17437185430309646  0.973690581555488  0.16444499731132112  1.0000
  H   H29       1.0  0.15565318744959467  0.9488102589979946  0.0855953386632251  1.0000
  H   H30       1.0  0.18569943667458944  0.015527233207308202  0.3004345865740206  1.0000
  H   H31       1.0  0.13182648485310017  0.3876889116090397  0.8111820523370669  1.0000
  H   H32       1.0  0.10608585813449174  0.4439309398139671  0.886858438944664  1.0000
  H   H33       1.0  0.15130201730128326  0.35060227853426795  0.6739912339510781  1.0000
  H   H34       1.0  0.6403383976004523  0.8922371151268607  0.7833960259826968  1.0000
  H   H35       1.0  0.9161720323497354  0.964617212387864  0.763487245784056  1.0000
  H   H36       1.0  0.7429333345749355  0.7119139654487442  0.7263869551747251  1.0000
  H   H37       1.0  0.9820986005821699  0.6160229172759273  0.7697204226925223  1.0000
  H   H38       1.0  0.5569545002515002  0.751267478099457  0.7775149307699538  1.0000
  H   H39       1.0  0.46496742362023025  0.6442834763337827  0.7243175190054245  1.0000
  H   H40       1.0  0.42149007535082456  0.9852464247059632  0.7181046776210139  1.0000
  H   H41       1.0  0.6891067943338173  0.6131121055641274  0.5555306632223492  1.0000
  H   H42       1.0  0.005893876465947303  0.04901999882770271  0.939859268528231  1.0000
  C   C1        1.0  0.37324075913268473  0.9000623113107481  0.5695363348287898  1.0000
  C   C2        1.0  0.3376009857509248  0.3092917323863489  0.7681214968649144  1.0000
  C   C3        1.0  0.3423510512311979  0.2976710047205557  0.7290430414096536  1.0000
  C   C4        1.0  0.3745152113194054  0.2173800688557819  0.548840805739566  1.0000
  C   C5        1.0  0.2965177605968776  0.39533226149474393  0.8977362947033573  1.0000
  C   C6        1.0  0.9346504429503785  0.8086144255405969  0.7241763263495217  1.0000
  C   C7        1.0  0.8772474489668415  0.909140718739721  0.754703864451493  1.0000
  C   C8        1.0  0.9056649886508913  0.7795361318837948  0.87653829417647  1.0000
  C   C9        1.0  0.757160631649818  0.8973856432130204  0.6131831647060226  1.0000
  C   C10       1.0  0.9135865061729338  0.714918940470625  0.7583433731529683  1.0000
  C   C11       1.0  0.8567779974841091  0.8149524790833239  0.7901614881475825  1.0000
  C   C12       1.0  0.3469118840926557  0.2851600598526929  0.6836723108880067  1.0000
  C   C13       1.0  0.7814538349125405  0.7677652566334954  0.7351928436146837  1.0000
  C   C14       1.0  0.8016629968996727  0.8622119447589824  0.6998059580960148  1.0000
  C   C15       1.0  0.7239153665288641  0.8683289931079657  0.765756873952931  1.0000
  C   C16       1.0  0.7115617767254747  0.9137021423537846  0.5682850839544784  1.0000
  C   C17       1.0  0.7451791139524179  0.9619848863799306  0.7316400959075652  1.0000
  C   C18       1.0  0.8829012173031429  0.7932694275176218  0.8366543675091267  1.0000
  C   C19       1.0  0.777137500578654  0.8835878997554403  0.6532725701555651  1.0000
  C   C20       1.0  0.4106969057888039  0.7344589289739363  0.7350128013614141  1.0000
  C   C21       1.0  0.46104442896692904  0.7945117309461479  0.7637946514493026  1.0000
  C   C22       1.0  0.34049131448203707  0.7845416921650923  0.8800101924189933  1.0000
  C   C23       1.0  0.4584810490414883  0.24420704868528278  0.6625671665014397  1.0000
  C   C24       1.0  0.3426077196476103  0.8866337063109171  0.6148579313556867  1.0000
  C   C25       1.0  0.29598321838218333  0.772787729658191  0.762991004327134  1.0000
  C   C26       1.0  0.34734200303469726  0.8320843319643743  0.7934163519557275  1.0000
  C   C27       1.0  0.22038421095483335  0.90180494611068  0.7311646699728274  1.0000
  C   C28       1.0  0.38352939816662274  0.8971103583483213  0.44308327426576005  1.0000
  C   C29       1.0  0.33486553291017895  0.8638499858673043  0.7018065933511937  1.0000
  C   C30       1.0  0.271554828873555  0.9610983622130007  0.7600540404947865  1.0000
  C   C31       1.0  0.3860400146310213  0.9237848312299735  0.7317615565697652  1.0000
  C   C32       1.0  0.3480924164997035  0.8095427650990744  0.8402287488671832  1.0000
  C   C33       1.0  0.33445979567761697  0.878492720810911  0.6549327956471915  1.0000
  C   C34       1.0  0.46117752974629417  0.2290308074876038  0.618597912223976  1.0000
  C   C35       1.0  0.29008702163783084  0.4409291079602369  0.2571669303960107  1.0000
  C   C36       1.0  0.4027745861061688  0.3761757584745097  0.22895647776731926  1.0000
  C   C37       1.0  0.30583797880682795  0.3801923183800326  0.11106733972425792  1.0000
  C   C38       1.0  0.3532592126061616  0.27751554899567316  0.3781616110758392  1.0000
  C   C39       1.0  0.2099866239560484  0.41006055466933605  0.2284987690917291  1.0000
  C   C40       1.0  0.3770474673593754  0.2296694608159484  0.4250966674669457  1.0000
  C   C41       1.0  0.3224833371005574  0.3461281497136639  0.19876244554625805  1.0000
  C   C42       1.0  0.2566802894052458  0.2814971159059283  0.2603188014930212  1.0000
  C   C43       1.0  0.3368291628163647  0.3116600306845854  0.29050330433511823  1.0000
  C   C44       1.0  0.36938062960739876  0.21680273935240282  0.23211623724958497  1.0000
  C   C45       1.0  0.4277436691298818  0.3168498551321833  0.8381171752854473  1.0000
  C   C46       1.0  0.4494032141533069  0.24771161017607574  0.2607845520544174  1.0000
  C   C47       1.0  0.3142191380833666  0.36321480756758723  0.15172153545402986  1.0000
  C   C48       1.0  0.3450737409986361  0.29455286090605165  0.3375148273565786  1.0000
  C   C49       1.0  0.7471860993335115  0.8886514462860049  0.3968551801810848  1.0000
  C   C50       1.0  0.7721531686850656  0.7774718639829601  0.38310357362555447  1.0000
  C   C51       1.0  0.7983471787760197  0.7623131118757343  0.3395740271364361  1.0000
  C   C52       1.0  0.7071162777927996  0.907314089678394  0.4422974340055959  1.0000
  C   C53       1.0  0.7998821740371372  0.8586814044518786  0.3086973033757162  1.0000
  C   C54       1.0  0.7763155528129675  0.969588908164006  0.32300378775200767  1.0000
  C   C55       1.0  0.7499803460558713  0.9843138195688039  0.3666456209700898  1.0000
  C   C56       1.0  0.4123515795842182  0.3498543963278351  0.8799652583616223  1.0000
  C   C57       1.0  0.876104005088308  0.9058175239912175  0.1502865579926222  1.0000
  C   C58       1.0  0.9016348187785398  0.8887633449449056  0.10685377037867033  1.0000
  C   C59       1.0  0.9069034362679533  0.6896233964491714  0.12329196557605833  1.0000
  C   C60       1.0  0.8810605064761249  0.7063516525848926  0.16679564579579426  1.0000
  C   C61       1.0  0.8660295097115877  0.8144577219657593  0.18102985083585577  1.0000
  C   C62       1.0  0.8425309075187288  0.8305300443377632  0.22552070317913583  1.0000
  C   C63       1.0  0.8232742864531987  0.8442428542905136  0.2640674076555243  1.0000
  C   C64       1.0  0.35441316639938963  0.2546636085834705  0.5934607941642227  1.0000
  C   C65       1.0  0.9176597725994782  0.7804885584937297  0.09313847552947858  1.0000
  C   C66       1.0  0.3674107774670222  0.872973673722093  0.39830174732708923  1.0000
  C   C67       1.0  0.19599557135860834  0.40698889813818784  0.8729992277553578  1.0000
  C   C68       1.0  0.26895656221740455  0.964255037155759  0.3676401460305101  1.0000
  C   C69       1.0  0.2614383309285699  0.9449934940585508  0.3245813594274268  1.0000
  C   C70       1.0  0.3527248917649077  0.8335435113529002  0.311262563783636  1.0000
  C   C71       1.0  0.4506214917584971  0.7415835990314505  0.3425701509441765  1.0000
  C   C72       1.0  0.4577698413700946  0.7614619024510957  0.3855212167557767  1.0000
  C   C73       1.0  0.4180549630772816  0.6758888460231206  0.1693149932508931  1.0000
  C   C74       1.0  0.40749284409371006  0.6632460371546857  0.12548153561917996  1.0000
  C   C75       1.0  0.2289675143628786  0.8739152332433946  0.10955068005147692  1.0000
  C   C76       1.0  0.24121199400946858  0.30125839955604755  0.6138760156931938  1.0000
  C   C77       1.0  0.23923930771442078  0.8871458781592664  0.15321919415043087  1.0000
  C   C78       1.0  0.21038398576216377  0.37600311389596197  0.8308418950962352  1.0000
  C   C79       1.0  0.33362236304824233  0.7878630279066812  0.18396958237858033  1.0000
  C   C80       1.0  0.3419921608195652  0.8012034608118553  0.22866406041131174  1.0000
  C   C81       1.0  0.34680505320912397  0.8153423624742688  0.2670827405833265  1.0000
  C   C82       1.0  0.3125433998521461  0.7618512321563813  0.09539477598224272  1.0000
  C   C83       1.0  0.9541189177287708  0.7611038166537227  0.9212140134762309  1.0000
  C   C84       1.0  0.2757173449800378  0.4419875421425202  0.9405363883060293  1.0000
  C   C85       1.0  0.3067557297915047  0.7567843318960285  0.9238329231673534  1.0000
  C   C86       1.0  0.9569478271804146  0.7589199392541489  0.04782649179859531  1.0000
  C   C87       1.0  0.2829003236755768  0.42767845388893744  0.06406291426117151  1.0000
  C   C88       1.0  0.23860798264858127  0.31498797442677773  0.658404601204147  1.0000
  C   C89       1.0  0.3264553224348037  0.33130506815607663  0.8124497447622975  1.0000
  C   C90       1.0  0.2916896445998703  0.7462960277989551  0.049613827680524  1.0000
  I   I1        1.0  0.2274760941739731  0.6544417009249911  0.789677045485405  1.0000
  I   I2        1.0  0.06755798454868514  0.3649266041079855  0.5805797691775825  1.0000
  O   O1        1.0  0.6913285263314319  0.8305679578879296  0.5590750023408688  1.0000
  O   O2        1.0  0.3578584342939451  0.46070870215751825  0.956570382020246  1.0000
  O   O3        1.0  0.38374530828915715  0.651037253318478  0.9485347249933656  1.0000
  O   O4        1.0  0.48159346712147094  0.821921047755076  0.5615070632569329  1.0000
  O   O5        1.0  0.1925710220563134  0.8306032657011428  0.027221187915792203  1.0000
  O   O6        1.0  0.9743203003788854  0.8398124850012392  0.02354112421350152  1.0000
  O   O7        1.0  0.9762745040165158  0.655639331482746  0.03696241308509231  1.0000
  O   O8        1.0  0.17940847723933473  0.4538310981357654  0.04538816848757681  1.0000
  O   O9        1.0  0.36466546034354524  0.4470550871011483  0.044541253556438704  1.0000
  O   O10       1.0  0.37366648550012393  0.645222290338225  0.0365148123261321  1.0000
  O   O11       1.0  0.1694984657197055  0.6654993164876188  0.9897640158723892  1.0000
  O   O12       1.0  0.29895504615537055  0.20415203088397502  0.444458450954592  1.0000
  O   O13       1.0  0.29024053860815263  0.9934695454339181  0.5413412762556646  1.0000
  O   O14       1.0  0.297502528451446  0.19328282900257676  0.532144494641024  1.0000
  O   O15       1.0  0.4736207660272386  0.202386630582204  0.5313156299717863  1.0000
  O   O16       1.0  0.6898909563549865  0.015071531386148298  0.5415203969959421  1.0000
  O   O17       1.0  0.6916707593218947  0.8237959074475398  0.46566030275879206  1.0000
  O   O18       1.0  0.4810520537760965  0.8176894850420027  0.46738548559017096  1.0000
  O   O19       1.0  0.2983280820667106  0.0013696372763619  0.45335809774844193  1.0000
  O   O20       1.0  0.4783501388852543  0.20933763058116744  0.44383328122728477  1.0000
  O   O21       1.0  0.6854339541058041  0.010196404479508198  0.45414926176312065  1.0000
  O   O22       1.0  0.4967480138688319  0.9937827941872609  0.5006252634684574  1.0000
  O   O23       1.0  0.2014227499614165  0.8366131987811728  0.933616728197514  1.0000
  O   O24       1.0  0.9862873613775917  0.8370353951071507  0.9293947520519839  1.0000
  O   O25       1.0  0.9651279918920184  0.6655393087292651  0.9489076538315687  1.0000
  O   O26       1.0  0.1735231792587228  0.46657421626923673  0.9576232380969145  1.0000
  O   O27       1.0  0.6788574480841096  0.6498240106153544  0.5243572957051726  1.0000
  O   O28       1.0  0.0021536620794791045  0.009212849537831901  0.9692929642784237  1.0000
