data_image0
_chemical_formula_structural       Zn16H36C96S16N8Cl4O52
_chemical_formula_sum              "Zn16 H36 C96 S16 N8 Cl4 O52"
_cell_length_a       19.682920230545594
_cell_length_b       19.675349363080088
_cell_length_c       33.37939044665449
_cell_angle_alpha    79.18040930752147
_cell_angle_beta     79.14977616270369
_cell_angle_gamma    63.86722827123098

_space_group_name_H-M_alt    "P 1"
_space_group_IT_number       1

loop_
  _space_group_symop_operation_xyz
  'x, y, z'

loop_
  _atom_site_type_symbol
  _atom_site_label
  _atom_site_symmetry_multiplicity
  _atom_site_fract_x
  _atom_site_fract_y
  _atom_site_fract_z
  _atom_site_occupancy
  Zn  Zn1       1.0  0.0552915917892634  0.400021817690032  0.4780725082334172  1.0000
  Zn  Zn2       1.0  0.9848091216407363  0.48369351256260296  0.5606342779388883  1.0000
  Zn  Zn3       1.0  0.0587016531672901  0.5601924776030882  0.4822753274287663  1.0000
  Zn  Zn4       1.0  0.9014154827596882  0.5559836123913154  0.4799366896575209  1.0000
  Zn  Zn5       1.0  0.6942637108958036  0.3492806130329953  0.27150919025589104  1.0000
  Zn  Zn6       1.0  0.6883508825741628  0.18967367154288445  0.2662565638563806  1.0000
  Zn  Zn7       1.0  0.768944138142089  0.2665100118688242  0.19092650553910326  1.0000
  Zn  Zn8       1.0  0.8483887992311379  0.19390105692533416  0.2722673258048829  1.0000
  Zn  Zn9       1.0  0.2675007100141612  0.766762737758029  0.6897612774386063  1.0000
  Zn  Zn10      1.0  0.34857018700736114  0.6959395959745932  0.7725717010863491  1.0000
  Zn  Zn11      1.0  0.1923789031578309  0.8481518679193197  0.7714046891564621  1.0000
  Zn  Zn12      1.0  0.19126929972248516  0.6885246234261331  0.7671518350523385  1.0000
  Zn  Zn13      1.0  0.5607092654635222  0.05942813868693975  0.9831566068562624  1.0000
  Zn  Zn14      1.0  0.40122994583260396  0.055665522276179026  0.9785966106853647  1.0000
  Zn  Zn15      1.0  0.5552705353087433  0.9008110374907262  0.9783038043778871  1.0000
  Zn  Zn16      1.0  0.4838982720416354  0.9824749723462887  0.060535786113888435  1.0000
  H   H1        1.0  0.9556656530732252  0.24854628855814548  0.352041175441805  1.0000
  H   H2        1.0  0.7473051227048089  0.45294002086807683  0.3497712070014957  1.0000
  H   H3        1.0  0.9990373642505614  0.300935548067443  0.4000881202740628  1.0000
  H   H4        1.0  0.09662451994930878  0.596702242298349  0.6999669412731535  1.0000
  H   H5        1.0  0.2017899625268385  0.701562912328093  0.5987535098427018  1.0000
  H   H6        1.0  0.050985434312188695  0.5506317399911752  0.6498282393530347  1.0000
  H   H7        1.0  0.46288317891822567  0.2408785761403252  0.340816196412753  1.0000
  H   H8        1.0  0.48012433667095417  0.7008281501821613  0.602084783914954  1.0000
  H   H9        1.0  0.2040754823020093  0.9796611737724774  0.6016501504580276  1.0000
  H   H10       1.0  0.9479638653545946  0.969302205629077  0.34751181096255834  1.0000
  H   H11       1.0  0.5502608158691515  0.050475227586027  0.15353748666530723  1.0000
  H   H12       1.0  0.651086851714609  0.15185628912077945  0.048393668520340306  1.0000
  H   H13       1.0  0.6006200349545238  0.10029001847728125  0.19939582052831642  1.0000
  H   H14       1.0  0.5483995394773371  0.7698153982284811  0.14820853965384373  1.0000
  H   H15       1.0  0.1629743836797388  0.14246773423496956  0.04103025055833599  1.0000
  H   H16       1.0  0.500889642653675  0.7951260849289812  0.898247230208142  1.0000
  H   H17       1.0  0.2966575290985531  0.0037264440739690164  0.9001677231806864  1.0000
  H   H18       1.0  0.4488400598466527  0.7517487855130727  0.8500242138392266  1.0000
  H   H19       1.0  0.3021625922530403  0.2795560235039077  0.901781869114764  1.0000
  H   H20       1.0  0.7864495705761952  0.009479554545258373  0.9081921736168751  1.0000
  H   H21       1.0  0.3133911710974147  0.5570575954244105  0.3961966741748456  1.0000
  H   H22       1.0  0.2330862328375359  0.5528287100186307  0.4273039720209083  1.0000
  H   H23       1.0  0.7678595057065392  0.5215650042797294  0.6856201453113967  1.0000
  H   H24       1.0  0.8363886988323797  0.5179064940027162  0.6436378265730838  1.0000
  H   H25       1.0  0.046039742867200986  0.26806049601291443  0.6857439392818705  1.0000
  H   H26       1.0  0.0207954174580891  0.3359454249757619  0.6431319609466611  1.0000
  H   H27       1.0  0.7426253743245823  0.8021784887047686  0.38528882894203786  1.0000
  H   H28       1.0  0.7945745828423724  0.7249152009085551  0.41894309797416446  1.0000
  H   H29       1.0  0.7262012838409362  0.48163724072821873  0.06456456238978353  1.0000
  H   H30       1.0  0.7327561532429455  0.41272075802550745  0.10686265923654763  1.0000
  H   H31       1.0  0.145333597649369  0.08465577959344019  0.22737836491865693  1.0000
  H   H32       1.0  0.047082837723238014  0.11563910611580036  0.2400765493177985  1.0000
  H   H33       1.0  0.5168388516978482  0.4362624783456397  0.8546633287046106  1.0000
  H   H34       1.0  0.4564036869192449  0.5232181884457674  0.830463697927364  1.0000
  H   H35       1.0  0.9262934254928581  0.70071522473615  0.8441673186611922  1.0000
  H   H36       1.0  0.015427176324941198  0.6969854596002634  0.8222619749871852  1.0000
  C   C1        1.0  0.05885811863557678  0.3159358097823954  0.5627276650913019  1.0000
  C   C2        1.0  0.0692507734235264  0.5697430422636955  0.5692598383154603  1.0000
  C   C3        1.0  0.1853180140038688  0.4390645712459147  0.4392862810891743  1.0000
  C   C4        1.0  0.9358641653496491  0.6854355955507571  0.4388319466102999  1.0000
  C   C5        1.0  0.93034470152228  0.4316750001764402  0.43086041845860745  1.0000
  C   C6        1.0  0.8164755946708054  0.5630605442390577  0.5633912319525577  1.0000
  C   C7        1.0  0.5648046540920504  0.3124576653799238  0.3108090707570526  1.0000
  C   C8        1.0  0.682032464982221  0.18010181466539868  0.18059411841597492  1.0000
  C   C9        1.0  0.6883049050838534  0.4337449168830646  0.18756732275331703  1.0000
  C   C10       1.0  0.9365725164379978  0.18652753079135226  0.18968490200435892  1.0000
  C   C11       1.0  0.820665990507102  0.31829904882712157  0.31920170783492813  1.0000
  C   C12       1.0  0.8108168474783567  0.06517565585441784  0.311119378917823  1.0000
  C   C13       1.0  0.4343466720118627  0.6869408703346522  0.6889425067695925  1.0000
  C   C14       1.0  0.3184517877710746  0.8204207603678242  0.8191129725071349  1.0000
  C   C15       1.0  0.18930210414247736  0.9338868186650802  0.6884701164289311  1.0000
  C   C16       1.0  0.0653085665216011  0.8082474273340949  0.8121842931388629  1.0000
  C   C17       1.0  0.1804003163891679  0.6805440465817513  0.6812704159803219  1.0000
  C   C18       1.0  0.3134633949303946  0.5653998048634178  0.8125667345362402  1.0000
  C   C19       1.0  0.43936045984617766  0.18344198637367273  0.9382399799233171  1.0000
  C   C20       1.0  0.43086123668889087  0.9302469517508531  0.9309468325663135  1.0000
  C   C21       1.0  0.683750138959489  0.9386466606670822  0.938025932340423  1.0000
  C   C22       1.0  0.5628108504050715  0.8152162379408027  0.061418017357169674  1.0000
  C   C23       1.0  0.5691227596088383  0.06886080869781357  0.06967909721886659  1.0000
  C   C24       1.0  0.3161542211372108  0.06227605713850435  0.061560831390203005  1.0000
  C   C25       1.0  0.8986970079030028  0.4058305029996135  0.40209924189665  1.0000
  C   C26       1.0  0.8487064702693627  0.3478400230452792  0.3478301202467904  1.0000
  C   C27       1.0  0.8268451931535239  0.44868134439370494  0.3875330080557831  1.0000
  C   C28       1.0  0.9200194369776893  0.30453004408249035  0.36201955956024545  1.0000
  C   C29       1.0  0.8027283624383015  0.41948317783130307  0.3607073668737329  1.0000
  C   C30       1.0  0.9439093257361577  0.33365849286622035  0.38865449347952097  1.0000
  C   C31       1.0  0.09987987731481239  0.5997394965074889  0.596383230265964  1.0000
  C   C32       1.0  0.15193920582219533  0.6522047576662826  0.6522887081580891  1.0000
  C   C33       1.0  0.14310327397902967  0.6428324199558945  0.5820961492695674  1.0000
  C   C34       1.0  0.109306123538758  0.6094448136156743  0.6669783442425725  1.0000
  C   C35       1.0  0.16854350396600634  0.6684997394018382  0.6100352655441768  1.0000
  C   C36       1.0  0.08413651569435388  0.5840015418520039  0.6391674265776146  1.0000
  C   C37       1.0  0.30392860181257925  0.4556280062644689  0.4022771860593862  1.0000
  C   C38       1.0  0.4455524613027038  0.2977921923604753  0.348775038714507  1.0000
  C   C39       1.0  0.25926217414296093  0.41409955772893164  0.41512891117798745  1.0000
  C   C40       1.0  0.49008410733408414  0.3379120259441421  0.3358721850486149  1.0000
  C   C41       1.0  0.37767004372350493  0.3402651619561611  0.3727898262714717  1.0000
  C   C42       1.0  0.3718281131869431  0.41213089320213203  0.37779511283715556  1.0000
  C   C43       1.0  0.7277703042701447  0.5766818969887454  0.6307563246466117  1.0000
  C   C44       1.0  0.524939332574277  0.6718523955382452  0.6220342512665554  1.0000
  C   C45       1.0  0.7426606787798135  0.5878528050609546  0.5877393388513711  1.0000
  C   C46       1.0  0.5094867588704303  0.6614921850883921  0.6643736998094738  1.0000
  C   C47       1.0  0.6041922712639405  0.6407370472612827  0.6095438766139551  1.0000
  C   C48       1.0  0.6476706662143242  0.6073721292745308  0.6427435463857732  1.0000
  C   C49       1.0  0.07296622018076698  0.22721030946277665  0.6301060690431014  1.0000
  C   C50       1.0  0.17453657603411435  0.024472257966330308  0.6215971383603147  1.0000
  C   C51       1.0  0.08308483349840398  0.24201169671442094  0.5870380430865653  1.0000
  C   C52       1.0  0.16441636626705497  0.009060606222817624  0.6639459442427266  1.0000
  C   C53       1.0  0.1416331614524182  0.10367606867287553  0.609063584326094  1.0000
  C   C54       1.0  0.10704268527862126  0.14718282851990952  0.64223335936682  1.0000
  C   C55       1.0  0.8412688842224512  0.8003853256364122  0.398330006571058  1.0000
  C   C56       1.0  0.9036120902642465  0.9489014941727802  0.35211102202585215  1.0000
  C   C57       1.0  0.9111701221569745  0.7592101587694272  0.41462984209395887  1.0000
  C   C58       1.0  0.8350805836177314  0.9902696229083148  0.3359121337377006  1.0000
  C   C59       1.0  0.9065424947129228  0.8795786737542246  0.3745691311634545  1.0000
  C   C60       1.0  0.8398433222794918  0.8695422360429318  0.3751908726440193  1.0000
  C   C61       1.0  0.6542009954963035  0.15359839736627381  0.1503112428136077  1.0000
  C   C62       1.0  0.5979254450769673  0.0980478901407835  0.09804862203142763  1.0000
  C   C63       1.0  0.6680927158322163  0.168192040489643  0.10711443799738161  1.0000
  C   C64       1.0  0.5832932304898149  0.08337420688300065  0.14079371509003383  1.0000
  C   C65       1.0  0.6400147053758117  0.14039140223447805  0.08157063155365313  1.0000
  C   C66       1.0  0.6112517462183931  0.11101333717962802  0.1661139412516661  1.0000
  C   C67       1.0  0.6736973080901619  0.5217654271859827  0.1199360552977566  1.0000
  C   C68       1.0  0.5774393280041179  0.7248485787813691  0.12832500194637222  1.0000
  C   C69       1.0  0.6626708800375596  0.507307428145921  0.16304653141982337  1.0000
  C   C70       1.0  0.5879185322527221  0.7401064002705694  0.08597487133140905  1.0000
  C   C71       1.0  0.6087110319328416  0.6456416595824168  0.1408972904523509  1.0000
  C   C72       1.0  0.6423600823137787  0.601931828005668  0.1077738111059219  1.0000
  C   C73       1.0  0.08188323527906498  0.12168620963367975  0.1790251480041007  1.0000
  C   C74       1.0  0.17051816298822325  0.12558724763741946  0.0734005174586869  1.0000
  C   C75       1.0  0.009867085253254996  0.16113844281579762  0.16490585424629237  1.0000
  C   C76       1.0  0.2417646279100438  0.08683849802412878  0.0868623321217399  1.0000
  C   C77       1.0  0.1120840413128477  0.1388084861771404  0.10672249509923401  1.0000
  C   C78       1.0  0.140077893124797  0.10959814335573272  0.1450374464418189  1.0000
  C   C79       1.0  0.3441158002974162  0.8521917783713633  0.8478415581710055  1.0000
  C   C80       1.0  0.4016694220389282  0.9023264386772285  0.9021497495574168  1.0000
  C   C81       1.0  0.30108029088938787  0.9241272513047677  0.8623378365986054  1.0000
  C   C82       1.0  0.4451022929907537  0.8308680811597  0.8880859167391221  1.0000
  C   C83       1.0  0.3301690490028619  0.9483171444402104  0.8891884053046157  1.0000
  C   C84       1.0  0.4161591770334141  0.806976611241808  0.8613864286820173  1.0000
  C   C85       1.0  0.40748439661392405  0.45037241885232504  0.8534438056196478  1.0000
  C   C86       1.0  0.34654769483377373  0.2999143944969946  0.8972522348468815  1.0000
  C   C87       1.0  0.3375050019722963  0.49206576425402904  0.8373033179108944  1.0000
  C   C88       1.0  0.415147984210968  0.25822822128914413  0.913331922176347  1.0000
  C   C89       1.0  0.3434627067397429  0.36965297040404016  0.8752526846381414  1.0000
  C   C90       1.0  0.40992890970995427  0.37984207736137426  0.8751079446484696  1.0000
  C   C91       1.0  0.9470309106615602  0.7918146679489266  0.8497158569216267  1.0000
  C   C92       1.0  0.8035787293269648  0.952449305367132  0.9004584974269039  1.0000
  C   C93       1.0  0.9922440354731916  0.8327059671520374  0.837154252543215  1.0000
  C   C94       1.0  0.758432746423594  0.9129458218183046  0.9130685427588504  1.0000
  C   C95       1.0  0.8720802174871237  0.9089434175751875  0.8772541973290374  1.0000
  C   C96       1.0  0.8778600064352486  0.8368383341227388  0.8727198924066643  1.0000
  S   S1        1.0  0.30030660670436754  0.3241180333910025  0.39791648141147107  1.0000
  S   S2        1.0  0.4498482109019476  0.4273583453631672  0.3529901409501051  1.0000
  S   S3        1.0  0.6604220751819482  0.6351780979005783  0.5629231502441455  1.0000
  S   S4        1.0  0.5910560986158941  0.6142282133795546  0.6892675700299762  1.0000
  S   S5        1.0  0.1327873725846302  0.15975710939839868  0.5623287676950709  1.0000
  S   S6        1.0  0.11469758677353066  0.09063755759152772  0.6887834409859083  1.0000
  S   S7        1.0  0.9726846053391681  0.8046107447056986  0.40213174713798594  1.0000
  S   S8        1.0  0.773680333036303  0.9453370185225721  0.34806670160640624  1.0000
  S   S9        1.0  0.6144618910093412  0.5898473596585492  0.18763857047215984  1.0000
  S   S10       1.0  0.6355417612960039  0.6583231869512576  0.06119664021378669  1.0000
  S   S11       1.0  0.013923343821687698  0.18179728346761692  0.11140842497189847  1.0000
  S   S12       1.0  0.23817324283198357  0.0658342364571922  0.14004295080470544  1.0000
  S   S13       1.0  0.2765120356433428  0.44604492476567964  0.84885243440538  1.0000
  S   S14       1.0  0.4761485930452167  0.30363695949683495  0.901981623184142  1.0000
  S   S15       1.0  0.951108246392252  0.9233145711147658  0.8535428944332323  1.0000
  S   S16       1.0  0.7990605256533243  0.8226360161973149  0.8970025510633802  1.0000
  N   N1        1.0  0.2862948629614834  0.525627585915757  0.41267303752305656  1.0000
  N   N2        1.0  0.781926614374022  0.54387754410277  0.6571543034746625  1.0000
  N   N3        1.0  0.033928754130535296  0.2813251044056599  0.6563538660826467  1.0000
  N   N4        1.0  0.7829220433564144  0.7786593842822994  0.40473866291755206  1.0000
  N   N5        1.0  0.7070328943748692  0.4674729738355836  0.09376137210743714  1.0000
  N   N6        1.0  0.09402604942973619  0.09669822855657628  0.2190718942497867  1.0000
  N   N7        1.0  0.46335766649507787  0.4748985660857912  0.8500161608462946  1.0000
  N   N8        1.0  0.9673829928071668  0.7192695663487709  0.8421439015540669  1.0000
  Cl  Cl1       1.0  0.7629878382799332  0.5378630139323024  0.4008508975747985  1.0000
  Cl  Cl2       1.0  0.16886602649573487  0.6670491527680015  0.5308491888203192  1.0000
  Cl  Cl3       1.0  0.7186602549092029  0.22003299920297797  0.08202774833188191  1.0000
  Cl  Cl4       1.0  0.2118521352879483  0.9874790950881192  0.849168608530263  1.0000
  O   O1        1.0  0.0005383583545679009  0.49850641645789295  0.5007021354060796  1.0000
  O   O2        1.0  0.07493162562943208  0.3172508743429034  0.5236383847616324  1.0000
  O   O3        1.0  0.035783044487025996  0.5272687453761761  0.5872410892521458  1.0000
  O   O4        1.0  0.15743458900790588  0.50627947064946  0.4510002348186434  1.0000
  O   O5        1.0  0.022999708708383096  0.3750252543950906  0.5825390375215137  1.0000
  O   O6        1.0  0.1527601714561939  0.3932696506395388  0.44713494513364793  1.0000
  O   O7        1.0  0.07824495011326599  0.5888431341594965  0.5308526802036369  1.0000
  O   O8        1.0  0.0035874171181972995  0.6557770861269246  0.4491569419262619  1.0000
  O   O9        1.0  0.8899986708860722  0.49731325343670846  0.4423357420366543  1.0000
  O   O10       1.0  0.8879465993618467  0.6547368451527477  0.4481475257334965  1.0000
  O   O11       1.0  0.9958471819082177  0.38533188635992144  0.4415015910122405  1.0000
  O   O12       1.0  0.8759100304266026  0.5285411115891918  0.5829100631401191  1.0000
  O   O13       1.0  0.8172107375033875  0.5770770847353787  0.5242512777670143  1.0000
  O   O14       1.0  0.7496030341302742  0.24913364851077796  0.2509853636479562  1.0000
  O   O15       1.0  0.5958287548690961  0.3594191744804149  0.302735327853874  1.0000
  O   O16       1.0  0.6613711865770852  0.1648294549503647  0.21862483057654455  1.0000
  O   O17       1.0  0.7244225177669321  0.3742626133364906  0.16813768475030597  1.0000
  O   O18       1.0  0.5920127814334961  0.24595853397623563  0.2994911029018965  1.0000
  O   O19       1.0  0.6736718913013746  0.4329339787315972  0.22675329986790158  1.0000
  O   O20       1.0  0.7238773389720379  0.21519278071430387  0.16640854037486716  1.0000
  O   O21       1.0  0.8774616426485833  0.22472158144273655  0.17073338461234747  1.0000
  O   O22       1.0  0.8650845374438415  0.2526281140375417  0.30821541993135076  1.0000
  O   O23       1.0  0.9360772495556444  0.16922537553674757  0.2290706769775852  1.0000
  O   O24       1.0  0.7547897704731665  0.3612555587192148  0.30826614835443433  1.0000
  O   O25       1.0  0.7446553465541967  0.09284512624928  0.29918852158448317  1.0000
  O   O26       1.0  0.8579006092265542  0.0958335693278657  0.30383767101288583  1.0000
  O   O27       1.0  0.2508315644191085  0.7491378091269353  0.7499252494551101  1.0000
  O   O28       1.0  0.3764829452447884  0.7231724447780151  0.669165021503609  1.0000
  O   O29       1.0  0.3653236797494799  0.7550844744282871  0.8082306751834808  1.0000
  O   O30       1.0  0.17179656661711107  0.9336315803188245  0.7274229265711014  1.0000
  O   O31       1.0  0.43393788208229017  0.6706525781264716  0.7279642646272819  1.0000
  O   O32       1.0  0.2257393579800677  0.8757380290458843  0.6688364135950806  1.0000
  O   O33       1.0  0.2526927765059739  0.8601335752694795  0.8078301301225181  1.0000
  O   O34       1.0  0.09614468204121349  0.8555222870721764  0.8031308219752731  1.0000
  O   O35       1.0  0.1636238343930998  0.6641386191513802  0.7195663790148501  1.0000
  O   O36       1.0  0.09388905390975569  0.7408873991033432  0.8006653569924325  1.0000
  O   O37       1.0  0.21905135324307415  0.7186317437365729  0.665109998345578  1.0000
  O   O38       1.0  0.36010881383234045  0.5976426931789619  0.8049358590585954  1.0000
  O   O39       1.0  0.24772127894358678  0.5928157459593705  0.7999461502144455  1.0000
  O   O40       1.0  0.5000895935465123  0.9995785713975637  0.00021503410636830407  1.0000
  O   O41       1.0  0.505957861487168  0.1555921310331812  0.9496463517578346  1.0000
  O   O42       1.0  0.3875594965523205  0.9958954621131539  0.9422043967414737  1.0000
  O   O43       1.0  0.6525616094893252  0.8918428290105921  0.9461088244837514  1.0000
  O   O44       1.0  0.39197427306824295  0.15314210460356747  0.9463057334777645  1.0000
  O   O45       1.0  0.6567936457553643  0.005014160703659267  0.949469750311579  1.0000
  O   O46       1.0  0.4965781503492153  0.8860000275671351  0.9417740811928612  1.0000
  O   O47       1.0  0.5790826798025535  0.8154002810785457  0.022396518289582404  1.0000
  O   O48       1.0  0.5310111544265794  0.030457110980456954  0.0863409871714893  1.0000
  O   O49       1.0  0.5269585253866252  0.873379283423169  0.08105649095278981  1.0000
  O   O50       1.0  0.5852430533558106  0.08480395037228312  0.031238117454854813  1.0000
  O   O51       1.0  0.31562085142218166  0.07914524309062189  0.022692532305477228  1.0000
  O   O52       1.0  0.37477912290566445  0.025956923794431947  0.08090807531155518  1.0000
