data_image0
_chemical_formula_structural       Cu2H24C24N10Cl2O8
_chemical_formula_sum              "Cu2 H24 C24 N10 Cl2 O8"
_cell_length_a       7.541714050454697
_cell_length_b       9.526452858652043
_cell_length_c       10.057814040910301
_cell_angle_alpha    87.66764456373087
_cell_angle_beta     88.5849332922655
_cell_angle_gamma    84.93837665270716

_space_group_name_H-M_alt    "P 1"
_space_group_IT_number       1

loop_
  _space_group_symop_operation_xyz
  'x, y, z'

loop_
  _atom_site_type_symbol
  _atom_site_label
  _atom_site_symmetry_multiplicity
  _atom_site_fract_x
  _atom_site_fract_y
  _atom_site_fract_z
  _atom_site_occupancy
  Cu  Cu1       1.0  0.8415967069132438  0.30867803930861015  0.20275786351150776  1.0000
  Cu  Cu2       1.0  0.1584070944270622  0.6913089080024121  0.7972306649236602  1.0000
  H   H1        1.0  0.3439031971290519  0.27547935287933717  0.5406484724658116  1.0000
  H   H2        1.0  0.6560989979010401  0.7245614381724648  0.45934333276558464  1.0000
  H   H3        1.0  0.21000767745928786  0.305607908339141  0.040592896662609214  1.0000
  H   H4        1.0  0.7899956219836145  0.6943707307001002  0.9594050080975408  1.0000
  H   H5        1.0  0.5940026726276175  0.046462962223060296  0.2697498438934361  1.0000
  H   H6        1.0  0.40599876487316094  0.9535328606456372  0.730270094573058  1.0000
  H   H7        1.0  0.41448736663002017  0.04066836278085618  0.3776815867480893  1.0000
  H   H8        1.0  0.5854996492157555  0.9593389953583011  0.6223290580141808  1.0000
  H   H9        1.0  0.4070386624002041  0.8814252832903051  0.1974773712669702  1.0000
  H   H10       1.0  0.5929529425913319  0.11856314999960198  0.8025391242146398  1.0000
  H   H11       1.0  0.4048695965433995  0.027352355148792605  0.08125305412600171  1.0000
  H   H12       1.0  0.5951304463620846  0.972644419558065  0.9187589045620329  1.0000
  H   H13       1.0  0.22258640623404352  0.014217068347001299  0.19821150427165435  1.0000
  H   H14       1.0  0.7774128637192423  0.9857871150003984  0.8018020821416985  1.0000
  H   H15       1.0  0.27379666256491936  0.25239768682683217  0.28709138458197003  1.0000
  H   H16       1.0  0.7262142863429943  0.7475967429340357  0.7129065923271157  1.0000
  H   H17       1.0  0.58463504357713  0.3688191835083643  0.6808002171936779  1.0000
  H   H18       1.0  0.41538133670496813  0.6312391666586379  0.31916859376503487  1.0000
  H   H19       1.0  0.8634274418541854  0.40777839221441065  0.5028185381082793  1.0000
  H   H20       1.0  0.1365836584366918  0.5922545082630462  0.497138716844731  1.0000
  H   H21       1.0  0.7304318446449758  0.3752308178379876  0.8947497966403334  1.0000
  H   H22       1.0  0.26956624138934876  0.6247341279457358  0.10524789012971783  1.0000
  H   H23       1.0  0.3652396461558782  0.3855924691667383  0.8306509980397934  1.0000
  H   H24       1.0  0.6347569507954349  0.6143871447962539  0.16933901305117877  1.0000
  C   C1        1.0  0.36603076613631225  0.9937658122370293  0.18223404713932478  1.0000
  C   C2        1.0  0.6339724392875611  0.006225773287781101  0.8177850816338224  1.0000
  C   C3        1.0  0.41831941550722734  0.23200438880909488  0.26858337625625245  1.0000
  C   C4        1.0  0.5816864485616906  0.7679879414737485  0.7314137958095659  1.0000
  C   C5        1.0  0.5193779327212555  0.29332924181393577  0.374835667816889  1.0000
  C   C6        1.0  0.4806245860580208  0.7066829942776636  0.625150611913682  1.0000
  C   C7        1.0  0.5974926613746875  0.35013236652173413  0.5756691194921403  1.0000
  C   C8        1.0  0.40251340929008  0.6499229205219379  0.4243039928211729  1.0000
  C   C9        1.0  0.7349039070469776  0.3695746620114803  0.4865124396324277  1.0000
  C   C10       1.0  0.26510613628602914  0.6304552298258557  0.513455922157391  1.0000
  C   C11       1.0  0.46446841033884595  0.286638278942874  0.13237769821503062  1.0000
  C   C12       1.0  0.5355325981525569  0.7133371132428578  0.8676134476060826  1.0000
  C   C13       1.0  0.6144815337694072  0.3478616676443238  0.9535962745774146  1.0000
  C   C14       1.0  0.3855205435182969  0.6521032337157989  0.046399360132547016  1.0000
  C   C15       1.0  0.43720932742300533  0.3538592015346325  0.9205515820972467  1.0000
  C   C16       1.0  0.5627886589580272  0.6461194741449032  0.07944740251124931  1.0000
  C   C17       1.0  0.9979186293823193  0.10553558701339939  0.0233823520961209  1.0000
  C   C18       1.0  0.002112598971784531  0.894441998314484  0.9766240956351383  1.0000
  C   C19       1.0  0.8959886808073353  0.9856485602014475  0.07112617129085662  1.0000
  C   C20       1.0  0.10403904420130775  0.014323946129628996  0.928893516596503  1.0000
  C   C21       1.0  0.005304952584303603  0.0712026191624133  0.41815650058973136  1.0000
  C   C22       1.0  0.9946618364084474  0.9288199081515529  0.5818775757869616  1.0000
  C   C23       1.0  0.8622658975405388  0.0012587925911660004  0.4905941731965769  1.0000
  C   C24       1.0  0.13769837123923886  0.9987753264883849  0.5094383656425236  1.0000
  N   N1        1.0  0.46329770799582104  0.30277775641373944  0.503751638576354  1.0000
  N   N2        1.0  0.5367119883059601  0.6972545833002285  0.49624146390356577  1.0000
  N   N3        1.0  0.6843545641073449  0.33373262507993917  0.3625740884902414  1.0000
  N   N4        1.0  0.31563995103417153  0.6662805239332524  0.6373993504031504  1.0000
  N   N5        1.0  0.6289717120185899  0.3053888932851904  0.08599354514028332  1.0000
  N   N6        1.0  0.37103251064701254  0.6945811741713895  0.9139948333752841  1.0000
  N   N7        1.0  0.3459977444267752  0.3151913178101609  0.033714257606071406  1.0000
  N   N8        1.0  0.6539995934446597  0.6847936713413388  0.9662834249038073  1.0000
  N   N9        1.0  0.45748265856142484  0.0720647018772738  0.28007791373512714  1.0000
  N   N10       1.0  0.542516814825433  0.9279247106245733  0.71993541997211  1.0000
  Cl  Cl1       1.0  0.013935908121794715  0.49702098138607204  0.24095216140268869  1.0000
  Cl  Cl2       1.0  0.986062554328733  0.5029660703387862  0.759042415576154  1.0000
  O   O1        1.0  8.213372073131276e-05  0.23383908578392718  0.05083120928664901  1.0000
  O   O2        1.0  0.9999197519718311  0.7661270869559899  0.9491802738550916  1.0000
  O   O3        1.0  0.7731885227659492  0.9675814703600593  0.1530029452727604  1.0000
  O   O4        1.0  0.22681682907441578  0.03240257876043269  0.8470055905961617  1.0000
  O   O5        1.0  0.022529889575160705  0.15578907633778266  0.3204008753905114  1.0000
  O   O6        1.0  0.9774588735313973  0.8442140986763248  0.6796129346346689  1.0000
  O   O7        1.0  0.6960715793355453  0.9993139661927227  0.48203491499639756  1.0000
  O   O8        1.0  0.30389139862921877  0.0007200637752476013  0.517990689196566  1.0000
