data_image0
_chemical_formula_structural       Ba2H18C10N6O14
_chemical_formula_sum              "Ba2 H18 C10 N6 O14"
_cell_length_a       6.705815691100066
_cell_length_b       7.640417139155175
_cell_length_c       10.708181136582263
_cell_angle_alpha    74.12871559898352
_cell_angle_beta     79.67521685187162
_cell_angle_gamma    72.72760488719668

_space_group_name_H-M_alt    "P 1"
_space_group_IT_number       1

loop_
  _space_group_symop_operation_xyz
  'x, y, z'

loop_
  _atom_site_type_symbol
  _atom_site_label
  _atom_site_symmetry_multiplicity
  _atom_site_fract_x
  _atom_site_fract_y
  _atom_site_fract_z
  _atom_site_occupancy
  Ba  Ba1       1.0  0.24022578068160522  0.424922316193488  0.15358340867705783  1.0000
  Ba  Ba2       1.0  0.759774054653924  0.5750759229835513  0.8464174189975113  1.0000
  H   H1        1.0  0.8419048336137963  0.1852132765373682  0.28943431813314646  1.0000
  H   H2        1.0  0.15809915156920334  0.8147863510333978  0.7105657699243083  1.0000
  H   H3        1.0  0.8604914662871723  0.6770563307807225  0.39971081421101934  1.0000
  H   H4        1.0  0.13950948590330367  0.32294330936345983  0.6002905484078556  1.0000
  H   H5        1.0  0.7693510972821541  0.8911927804632784  0.4531398230418162  1.0000
  H   H6        1.0  0.23064904744361314  0.10880967952330421  0.5468610823134341  1.0000
  H   H7        1.0  0.5879341635830145  0.3936953740266206  0.39185448752047597  1.0000
  H   H8        1.0  0.4120663821477494  0.6063056778169907  0.6081457125620349  1.0000
  H   H9        1.0  0.7692766105595724  0.7248226476908215  0.09805225653596486  1.0000
  H   H10       1.0  0.2307258540361302  0.2751769888339838  0.9019470679453718  1.0000
  H   H11       1.0  0.5106382716805767  0.005553773027571701  0.23987335585908912  1.0000
  H   H12       1.0  0.4893607561902442  0.9944472859918606  0.7601270145518626  1.0000
  H   H13       1.0  0.42351480425862315  0.5892855041473767  0.35516009609745686  1.0000
  H   H14       1.0  0.5764846273445555  0.41071414495085196  0.6448405029452999  1.0000
  H   H15       1.0  0.7112722532359682  0.5437651693693513  0.18644787302882548  1.0000
  H   H16       1.0  0.28872909995950374  0.4562330626318528  0.8135527843173094  1.0000
  H   H17       1.0  0.35622229670251915  0.9537078637124669  0.36601903591841994  1.0000
  H   H18       1.0  0.6437763301632985  0.046294603449936696  0.6339820397652645  1.0000
  C   C1        1.0  0.31052874756566956  0.9034564603927393  0.9880303332610082  1.0000
  C   C2        1.0  0.6894672364031961  0.09654461831300412  0.011967576093155739  1.0000
  C   C3        1.0  0.16788300893036007  0.9435528357611747  0.10677427009402155  1.0000
  C   C4        1.0  0.8321133760435019  0.056446834801590705  0.89322293398741  1.0000
  C   C5        1.0  0.9495425438541291  0.0832663755315792  0.23930422675415747  1.0000
  C   C6        1.0  0.050458803886634394  0.916731860026083  0.7606945627828808  1.0000
  C   C7        1.0  0.908094940965249  0.7955695056453894  0.4134439568845495  1.0000
  C   C8        1.0  0.09190560476551465  0.20443154619821516  0.5865562431979684  1.0000
  C   C9        1.0  0.07310439033017242  0.7154254421323928  0.5112786530523223  1.0000
  C   C10       1.0  0.9268969683200085  0.28457278631236693  0.4887238721029092  1.0000
  N   N1        1.0  0.1236914367755944  0.8040291925233518  0.2044616024885357  1.0000
  N   N2        1.0  0.8763068725179225  0.1959690591641774  0.7955365938008256  1.0000
  N   N3        1.0  0.06406917585109538  0.11917318850352392  0.12492750240771501  1.0000
  N   N4        1.0  0.9359291334424144  0.8808250631839982  0.8750706938816394  1.0000
  N   N5        1.0  0.9846883067687173  0.8959810847638608  0.2879805671172591  1.0000
  N   N6        1.0  0.015311119379745686  0.10401856789081881  0.7120181641164012  1.0000
  O   O1        1.0  0.3888223996880029  0.7312572598233658  0.9848176158889786  1.0000
  O   O2        1.0  0.6111752019376341  0.2687381774193582  0.015182141896985997  1.0000
  O   O3        1.0  0.33959052462671485  0.044291443496000206  0.8982213998070635  1.0000
  O   O4        1.0  0.6604062722615678  0.9557068118108987  0.1017788346198216  1.0000
  O   O5        1.0  0.01356903631169351  0.6219276015681391  0.6203901182545054  1.0000
  O   O6        1.0  0.9864330245516585  0.3780734448778703  0.3796089775950194  1.0000
  O   O7        1.0  0.5082120252700476  0.4816636529202043  0.3187807058723067  1.0000
  O   O8        1.0  0.4917885204607161  0.518337398923407  0.681219494210211  1.0000
  O   O9        1.0  0.2556305919889821  0.7451467640057605  0.47846854052072973  1.0000
  O   O10       1.0  0.7443714716017242  0.2548542806620233  0.5215314892333538  1.0000
  O   O11       1.0  0.8101823570627432  0.5845153116803559  0.1109378367158841  1.0000
  O   O12       1.0  0.18981707181307428  0.41548433919609823  0.8890618284223207  1.0000
  O   O13       1.0  0.41830107145388956  0.05583858581105971  0.31331307394440705  1.0000
  O   O14       1.0  0.5816945115099728  0.9441639010376548  0.686685540682497  1.0000
