data_image0
_chemical_formula_structural       ZnH38C30N4O6
_chemical_formula_sum              "Zn1 H38 C30 N4 O6"
_cell_length_a       8.848740510671464
_cell_length_b       9.129807250601244
_cell_length_c       10.53497666426019
_cell_angle_alpha    93.45461032769657
_cell_angle_beta     114.82150072847965
_cell_angle_gamma    89.98225150158063

_space_group_name_H-M_alt    "P 1"
_space_group_IT_number       1

loop_
  _space_group_symop_operation_xyz
  'x, y, z'

loop_
  _atom_site_type_symbol
  _atom_site_label
  _atom_site_symmetry_multiplicity
  _atom_site_fract_x
  _atom_site_fract_y
  _atom_site_fract_z
  _atom_site_occupancy
  Zn  Zn1       1.0  0.8568347117070942  3.0142861099603874e-05  0.999864778427451  1.0000
  H   H1        1.0  0.14743796249856442  0.5976664298131595  0.6813815412386646  1.0000
  H   H2        1.0  0.4661551882771136  0.40243004553705924  0.31878171564259355  1.0000
  H   H3        1.0  0.5907261296925981  0.4930364813743822  0.7956724805961953  1.0000
  H   H4        1.0  0.795029963653626  0.5072022749247083  0.20417346044825993  1.0000
  H   H5        1.0  0.8189704861527005  0.6835445310048199  0.9162594479394028  1.0000
  H   H6        1.0  0.902528828699687  0.3166346186450326  0.08347744833747578  1.0000
  H   H7        1.0  0.4808584465205143  0.01291872417922241  0.8647182365364613  1.0000
  H   H8        1.0  0.6159496726284246  0.9874052681805096  0.13491818650347648  1.0000
  H   H9        1.0  0.2386137618322905  0.8374117055631346  0.7546862262488503  1.0000
  H   H10       1.0  0.4840461686473177  0.16301680431833895  0.2451671600218432  1.0000
  H   H11       1.0  0.9923381630381839  0.41190888768014833  0.5519004448491741  1.0000
  H   H12       1.0  0.4402004760248844  0.5879101609172608  0.44825688171834344  1.0000
  H   H13       1.0  0.993111658288626  0.21429399970311644  0.40132445532828603  1.0000
  H   H14       1.0  0.5909952755959011  0.7855752559494177  0.5989073562980352  1.0000
  H   H15       1.0  0.18648266272609254  0.154029279041751  0.5195854839615137  1.0000
  H   H16       1.0  0.6663315036863722  0.8459800726747062  0.48084755955134983  1.0000
  H   H17       1.0  0.8696414165892818  0.0242785893195574  0.4758694759812413  1.0000
  H   H18       1.0  0.39289414559966923  0.975687357046141  0.5242356911788804  1.0000
  H   H19       1.0  0.06082979011534921  0.9921729260734581  0.615386011845402  1.0000
  H   H20       1.0  0.44475379078435406  0.0076839171654939  0.38476378795294863  1.0000
  H   H21       1.0  0.2651911028085365  0.13353255142596507  0.8026920389378063  1.0000
  H   H22       1.0  0.46212776860415516  0.8662100871931601  0.19724414804633025  1.0000
  H   H23       1.0  0.19785042080260956  0.188291967794683  0.935138009440152  1.0000
  H   H24       1.0  0.2624287067232061  0.8112528455354848  0.06498091616595758  1.0000
  H   H25       1.0  0.3223723138153077  0.3098672445516755  0.891471550793426  1.0000
  H   H26       1.0  0.43060498082411414  0.6897001932902711  0.10869096659845211  1.0000
  H   H27       1.0  0.11263969978148218  0.4961775365048808  0.8643154873461684  1.0000
  H   H28       1.0  0.248587171755176  0.5036349066424178  0.1361104388688403  1.0000
  H   H29       1.0  0.9655439557895562  0.37764400398621223  0.8827239602556957  1.0000
  H   H30       1.0  0.08278970085054742  0.6218865311336685  0.117344180213955  1.0000
  H   H31       1.0  0.9060375125287761  0.47821246712349813  0.7302550358842409  1.0000
  H   H32       1.0  0.1757667025615035  0.5214748395560774  0.2700286550736379  1.0000
  H   H33       1.0  0.7074139513684373  0.28186301905709843  0.665455286918089  1.0000
  H   H34       1.0  0.0412007920808719  0.7180416952342057  0.3340125321603793  1.0000
  H   H35       1.0  0.6592087951507324  0.138226607908166  0.5334853241855483  1.0000
  H   H36       1.0  0.12434681378292109  0.8617288312187482  0.4659670804848375  1.0000
  H   H37       1.0  0.7502535789978708  0.30454833599665687  0.5166693166257375  1.0000
  H   H38       1.0  0.2323974052291575  0.6954316856501136  0.4831904781562244  1.0000
  C   C1        1.0  0.5622186172551338  0.6065697368961267  0.8109387326235903  1.0000
  C   C2        1.0  0.7511060460320492  0.39374331246950334  0.18884384613605917  1.0000
  C   C3        1.0  0.6881401853683189  0.712092662910223  0.8766763536632638  1.0000
  C   C4        1.0  0.8112769980536926  0.2881783433085586  0.12305028783310949  1.0000
  C   C5        1.0  0.4995056344018138  0.8963235960901057  0.8492577161883688  1.0000
  C   C6        1.0  0.6501320310791456  0.1039731551652849  0.15038337089452355  1.0000
  C   C7        1.0  0.3653457889783738  0.7989365856994651  0.7859344211666864  1.0000
  C   C8        1.0  0.5794069315402411  0.20144204714821967  0.2137933384425494  1.0000
  C   C9        1.0  0.3958658110947865  0.6502754273531082  0.7640872712835218  1.0000
  C   C10       1.0  0.6316617567305371  0.3500640226393229  0.23573769451504487  1.0000
  C   C11       1.0  0.25719488539612456  0.40897968702506665  0.6503368804598537  1.0000
  C   C12       1.0  0.606720725721388  0.5911603826490079  0.3499383598904302  1.0000
  C   C13       1.0  0.08933790121464111  0.33318180128030406  0.606124927355566  1.0000
  C   C14       1.0  0.4828447179415747  0.66676537794919  0.39409248806479263  1.0000
  C   C15       1.0  0.06536370970130892  0.1922115453823992  0.5115256056002337  1.0000
  C   C16       1.0  0.5532264125696573  0.8076799791605253  0.4887452675156609  1.0000
  C   C17       1.0  0.9771225291678932  0.0794531786101302  0.5623105771643964  1.0000
  C   C18       1.0  0.4141282035371177  0.9204478477361564  0.43787399076165906  1.0000
  C   C19       1.0  0.923857085439856  0.16279175511808563  0.6675297422046711  1.0000
  C   C20       1.0  0.25578099971100704  0.8371391764477778  0.33251066586077366  1.0000
  C   C21       1.0  0.0619957319443714  0.28876614885896146  0.7374170518869505  1.0000
  C   C22       1.0  0.3242184028706774  0.7111094765337215  0.26275320446411843  1.0000
  C   C23       1.0  0.2210766060082889  0.22629448015946008  0.8477551748462275  1.0000
  C   C24       1.0  0.3730523323550798  0.7733947001285558  0.1523712152797003  1.0000
  C   C25       1.0  0.008085270573751305  0.41815637348391027  0.8068908109929396  1.0000
  C   C26       1.0  0.2011382790631657  0.5815983642898954  0.19339165033380107  1.0000
  C   C27       1.0  0.7503264123322922  0.22654284756937673  0.5919821706487908  1.0000
  C   C28       1.0  0.157374744945038  0.7734081723399769  0.40771193872355843  1.0000
  C   C29       1.0  0.9217314151831675  0.0647707113886256  0.7802794576408445  1.0000
  C   C30       1.0  0.1411263738200859  0.9352659027208787  0.21969219415152  1.0000
  N   N1        1.0  0.6589031265868784  0.854773148683009  0.8952511217403654  1.0000
  N   N2        1.0  0.7636216492977397  0.1454771154067132  0.10448121217874728  1.0000
  N   N3        1.0  0.25999766977432864  0.5547630116687331  0.6987034404805995  1.0000
  N   N4        1.0  0.5613192417750383  0.44541957105930413  0.3014193488407456  1.0000
  O   O1        1.0  0.38187326872648  0.34904218059643444  0.650336142251973  1.0000
  O   O2        1.0  0.7313609201894168  0.6511809977855806  0.35000129235537264  1.0000
  O   O3        1.0  0.8687143062564289  0.1311250581914152  0.8663419585328711  1.0000
  O   O4        1.0  0.002244569651061606  0.8688778681195543  0.13336058268841103  1.0000
  O   O5        1.0  0.9686122642246245  0.9353028847258289  0.7886918444248606  1.0000
  O   O6        1.0  0.17951590255771782  0.0647892764714939  0.21152859447786906  1.0000
