data_image0
_chemical_formula_structural       Nd4H32C24N8O36
_chemical_formula_sum              "Nd4 H32 C24 N8 O36"
_cell_length_a       6.791119982
_cell_length_b       7.314552154881489
_cell_length_c       22.7
_cell_angle_alpha    90.0
_cell_angle_beta     90.0
_cell_angle_gamma    103.37280056462251

_space_group_name_H-M_alt    "P 1"
_space_group_IT_number       1

loop_
  _space_group_symop_operation_xyz
  'x, y, z'

loop_
  _atom_site_type_symbol
  _atom_site_label
  _atom_site_symmetry_multiplicity
  _atom_site_fract_x
  _atom_site_fract_y
  _atom_site_fract_z
  _atom_site_occupancy
  Nd  Nd1       1.0  0.7546995925608542  0.5090902279431332  0.37834229074889697  1.0000
  Nd  Nd2       1.0  0.24528817843879835  0.9909131853137649  0.8783392070484553  1.0000
  Nd  Nd3       1.0  0.2452912739816426  0.4909120475614657  0.6216590308370016  1.0000
  Nd  Nd4       1.0  0.7547049329999849  0.009086279711496599  0.1216577092511031  1.0000
  H   H1        1.0  0.09560936686515477  0.3786038878301951  0.21791806167400551  1.0000
  H   H2        1.0  0.904383967353226  0.1213888184840783  0.7179162995594695  1.0000
  H   H3        1.0  0.9043864117920178  0.6213885509967056  0.782084140969161  1.0000
  H   H4        1.0  0.09561391168207932  0.8786120517808483  0.2820819383259945  1.0000
  H   H5        1.0  0.19236430928870618  0.3645500858823709  0.3229325991189427  1.0000
  H   H6        1.0  0.807638837926653  0.1354524571096007  0.8229273127753274  1.0000
  H   H7        1.0  0.8076336420056761  0.635445163423874  0.6770709251101295  1.0000
  H   H8        1.0  0.192370398875873  0.8645526288743353  0.1770682819383254  1.0000
  H   H9        1.0  0.0298873387192273  0.3520715576055267  0.4627334801762117  1.0000
  H   H10       1.0  0.970108095877279  0.1479295801467728  0.9627352422907478  1.0000
  H   H11       1.0  0.9701068229086189  0.6479321231387445  0.5372643171806146  1.0000
  H   H12       1.0  0.02989125566919169  0.8520712901181537  0.0372665198237883  1.0000
  H   H13       1.0  0.8864191945986944  0.9442915487551105  0.3779541850220269  1.0000
  H   H14       1.0  0.1135833015126124  0.5557118645017879  0.877953303964759  1.0000
  H   H15       1.0  0.113582257325902  0.0557177529478423  0.6220462555066106  1.0000
  H   H16       1.0  0.886422012337597  0.4442833848044572  0.1220484581497772  1.0000
  H   H17       1.0  0.145226075489802  0.8136689003940987  0.3907035242290746  1.0000
  H   H18       1.0  0.8547646405321812  0.6863345128627996  0.8907057268722484  1.0000
  H   H19       1.0  0.8547617737712867  0.1863389960691819  0.6092942731277518  1.0000
  H   H20       1.0  0.14523029348079317  0.313666357402127  0.1092960352422878  1.0000
  H   H21       1.0  0.22487101333397416  0.6267790503739548  0.4052757709251082  1.0000
  H   H22       1.0  0.7751234200954613  0.8732215524035993  0.9052806167400861  1.0000
  H   H23       1.0  0.7751267934422543  0.3732274408496536  0.594719383259914  1.0000
  H   H24       1.0  0.22486976360239908  0.1267722916629737  0.0947242290748918  1.0000
  H   H25       1.0  0.7061085851415569  0.9319605706436958  0.4210762114537445  1.0000
  H   H26       1.0  0.2938880209250883  0.5680428426131954  0.9210762114537445  1.0000
  H   H27       1.0  0.29388522642327075  0.0680417048608959  0.5789233480176179  1.0000
  H   H28       1.0  0.7061076132139303  0.4319608381310687  0.0789277533039652  1.0000
  H   H29       1.0  0.04645212299693921  0.2142344087745442  0.4113330396475803  1.0000
  H   H30       1.0  0.9535334263435116  0.2857625132587386  0.9113334801762107  1.0000
  H   H31       1.0  0.9535435111420794  0.7857692719697198  0.5886660792951517  1.0000
  H   H32       1.0  0.04645898496922741  0.7142341412871787  0.08866651982378931  1.0000
  C   C1        1.0  0.7674288430665256  0.7122260537975789  0.2409568281938306  1.0000
  C   C2        1.0  0.2325671351331522  0.7877689280212934  0.7409577092510987  1.0000
  C   C3        1.0  0.2325657408834232  0.2877734112276755  0.7590396475770902  1.0000
  C   C4        1.0  0.767436706205892  0.21222632128495178  0.2590400881057278  1.0000
  C   C5        1.0  0.5961795635557294  0.4928653307038998  0.5172048458149803  1.0000
  C   C6        1.0  0.4038312962784758  0.0071386175277439  0.0172030837004371  1.0000
  C   C7        1.0  0.4038227330130653  0.507135539561034  0.482799559471367  1.0000
  C   C8        1.0  0.5961809578054584  0.9928608474975105  0.9827955947136573  1.0000
  C   C9        1.0  0.36639066628962513  0.6075132144870707  0.1399929515418492  1.0000
  C   C10       1.0  0.6336064343581995  0.8924803620921294  0.6399920704845812  1.0000
  C   C11       1.0  0.6336010448970695  0.3924806295795021  0.8600088105726869  1.0000
  C   C12       1.0  0.3663900444250174  0.10751488721411558  0.3600074889867813  1.0000
  C   C13       1.0  0.397446074608851  0.5557273221381678  0.2021176211453763  1.0000
  C   C14       1.0  0.6025579662726981  0.9442704701600488  0.7021158590308403  1.0000
  C   C15       1.0  0.6025539770636641  0.4442763586061033  0.7978828193832612  1.0000
  C   C16       1.0  0.3974499425368165  0.05572337390653099  0.2978845814977973  1.0000
  C   C17       1.0  0.5555935103382409  0.6017376794400207  0.2432599118942704  1.0000
  C   C18       1.0  0.4444094803542384  0.8982558971391867  0.74325947136564  1.0000
  C   C19       1.0  0.44440619127124836  0.3982645960645783  0.7567392070484615  1.0000
  C   C20       1.0  0.555598850777379  0.1017337312083768  0.2567414096916281  1.0000
  C   C21       1.0  0.2951190330347586  0.4376337906821561  0.2896885462555048  1.0000
  C   C22       1.0  0.7048793465840787  0.0623673470701434  0.7896894273127729  1.0000
  C   C23       1.0  0.7048799684486866  0.5623656743431056  0.7103105726872272  1.0000
  C   C24       1.0  0.2951225276626203  0.9376377389137927  0.2103105726872272  1.0000
  N   N1        1.0  0.2368075738443594  0.4514950747950833  0.2335925110132138  1.0000
  N   N2        1.0  0.7631938230558929  0.04850044199853439  0.7335925110132138  1.0000
  N   N3        1.0  0.7631925500872327  0.5485029849905061  0.7664079295154168  1.0000
  N   N4        1.0  0.23680812344988308  0.95149902302672  0.2664079295154167  1.0000
  N   N5        1.0  0.4877876710146082  0.5261962104559785  0.2972585903083669  1.0000
  N   N6        1.0  0.5122067624148272  0.9738043923215827  0.7972607929515406  1.0000
  N   N7        1.0  0.5122091578316271  0.4738004440899388  0.7027392070484595  1.0000
  N   N8        1.0  0.4877981291132798  0.026195072703679  0.202740528634358  1.0000
  O   O1        1.0  0.8386267937864174  0.803961504748102  0.19542643171806162  1.0000
  O   O2        1.0  0.16137507445792204  0.6960334770707701  0.69542334801762  1.0000
  O   O3        1.0  0.1613730523412258  0.1960295288391265  0.8045731277533008  1.0000
  O   O4        1.0  0.838636334981814  0.3039744193925102  0.3045731277533008  1.0000
  O   O5        1.0  0.9558638135548205  0.2893599268160257  0.4280079295154168  1.0000
  O   O6        1.0  0.044125730997023986  0.2106412109362736  0.9280079295154167  1.0000
  O   O7        1.0  0.0441277531137203  0.7106451591679104  0.5719911894273153  1.0000
  O   O8        1.0  0.9558703254640903  0.7893582540889879  0.0719920704845833  1.0000
  O   O9        1.0  0.7617602522825491  0.8597438987208079  0.3920889867841383  1.0000
  O   O10       1.0  0.23823782629526136  0.6402595145360904  0.8920885462555077  1.0000
  O   O11       1.0  0.2382412719011313  0.1402597820234632  0.6079118942731299  1.0000
  O   O12       1.0  0.7617634200844704  0.3597371400098267  0.1079118942731299  1.0000
  O   O13       1.0  0.5115350691765528  0.706731566684688  0.111101321585906  1.0000
  O   O14       1.0  0.4884738115605954  0.7932620098945122  0.6110986784140948  1.0000
  O   O15       1.0  0.4884632321808481  0.29326508786122213  0.8889008810572676  1.0000
  O   O16       1.0  0.511536197627052  0.20674026561008665  0.3888991189427315  1.0000
  O   O17       1.0  0.7616675368484067  0.5285612288219568  0.4890669603524245  1.0000
  O   O18       1.0  0.2383545852568574  0.9714618577903309  0.9890638766519828  1.0000
  O   O19       1.0  0.23835074056597694  0.471456504319022  0.5109361233480172  1.0000
  O   O20       1.0  0.7616645368017244  0.0285474439126219  0.0109334801762131  1.0000
  O   O21       1.0  0.5726442987887809  0.44656970974887134  0.5710132158590326  1.0000
  O   O22       1.0  0.4273711230970747  0.0534229965654021  0.0710136563876631  1.0000
  O   O23       1.0  0.42736557711307904  0.5534142976400034  0.4289859030836993  1.0000
  O   O24       1.0  0.5726412755050134  0.9465652265424893  0.9289867841409674  1.0000
  O   O25       1.0  0.1862721836500612  0.5496819810743219  0.1194185022026417  1.0000
  O   O26       1.0  0.813731157105444  0.9503130007445506  0.6194193832599098  1.0000
  O   O27       1.0  0.8137224725589646  0.450311862992251  0.8805841409691624  1.0000
  O   O28       1.0  0.18627660718591693  0.0496920852393856  0.38058193832598874  1.0000
  O   O29       1.0  0.10570864977681539  0.6743829494625118  0.3921638766519848  1.0000
  O   O30       1.0  0.8942854335895941  0.825616248075377  0.8921643171806153  1.0000
  O   O31       1.0  0.8942855118510307  0.3256207312817594  0.6078365638766527  1.0000
  O   O32       1.0  0.10571174531966679  0.1743818117102123  0.1078361233480152  1.0000
  O   O33       1.0  0.8714748545503425  0.7093172076789925  0.2879682819383262  1.0000
  O   O34       1.0  0.12852035126421407  0.7906805846192242  0.7879674008810582  1.0000
  O   O35       1.0  0.1285233745479815  0.29068506782560627  0.7120295154185001  1.0000
  O   O36       1.0  0.8714765498411053  0.20931044896801146  0.2120312775330362  1.0000
