data_image0
_chemical_formula_structural       Cu4H72C88N16O16
_chemical_formula_sum              "Cu4 H72 C88 N16 O16"
_cell_length_a       13.464632605811428
_cell_length_b       14.528254992557851
_cell_length_c       15.290970911907129
_cell_angle_alpha    113.90935396744376
_cell_angle_beta     116.12211489895962
_cell_angle_gamma    89.99115739659715

_space_group_name_H-M_alt    "P 1"
_space_group_IT_number       1

loop_
  _space_group_symop_operation_xyz
  'x, y, z'

loop_
  _atom_site_type_symbol
  _atom_site_label
  _atom_site_symmetry_multiplicity
  _atom_site_fract_x
  _atom_site_fract_y
  _atom_site_fract_z
  _atom_site_occupancy
  Cu  Cu1       1.0  0.553149185264175  0.15716113902734455  0.6182672016806164  1.0000
  Cu  Cu2       1.0  0.9348596894173581  0.34284208414472767  0.3817143463238678  1.0000
  Cu  Cu3       1.0  0.4468570020095869  0.8428383190760369  0.38173483510823997  1.0000
  Cu  Cu4       1.0  0.06514559932790583  0.6571596908039723  0.6182865164960987  1.0000
  H   H1        1.0  0.10221869102695527  0.8326158704748672  0.2632330895717129  1.0000
  H   H2        1.0  0.8388570178430186  0.6673504695372897  0.7368525111451162  1.0000
  H   H3        1.0  0.8977941517648916  0.16738743801117545  0.736775705385888  1.0000
  H   H4        1.0  0.16114246827915923  0.3326513078989349  0.2631466805407  1.0000
  H   H5        1.0  0.9021539246212528  0.8445681492639278  0.21976507345927823  1.0000
  H   H6        1.0  0.6822437341763745  0.6553902461414366  0.7802702664378173  1.0000
  H   H7        1.0  0.09785870395775495  0.15543670655966219  0.7802405650973654  1.0000
  H   H8        1.0  0.3177571578221787  0.3446092147830271  0.2197297794728783  1.0000
  H   H9        1.0  0.020867435171943838  0.1408263103994969  0.49984365772066036  1.0000
  H   H10       1.0  0.5211037620443193  0.35914906057296037  0.500126854020479  1.0000
  H   H11       1.0  0.9791364165580133  0.8591785497376844  0.5001589872773236  1.0000
  H   H12       1.0  0.4789007884958636  0.6408496290176511  0.4998725318826514  1.0000
  H   H13       1.0  0.22087331236362237  0.1292374894921693  0.5413738351639381  1.0000
  H   H14       1.0  0.6795823418141468  0.3708027566700877  0.4586339381460076  1.0000
  H   H15       1.0  0.7791329439665515  0.8707689058388011  0.458635724808367  1.0000
  H   H16       1.0  0.3204199727051531  0.6291990201046855  0.5413656022494634  1.0000
  H   H17       1.0  0.7728832128175399  0.9774031425161809  0.16197864256917435  1.0000
  H   H18       1.0  0.6107779675659515  0.522475075793757  0.8379119900785451  1.0000
  H   H19       1.0  0.2271177310531555  0.022574723072608494  0.8380088411984373  1.0000
  H   H20       1.0  0.3892253409159068  0.4775475283071059  0.1620968365690914  1.0000
  H   H21       1.0  0.683378758342549  0.03646477991557621  0.2154399362241861  1.0000
  H   H22       1.0  0.46780097487892663  0.4634563060285827  0.7844367411651588  1.0000
  H   H23       1.0  0.3166257315296406  0.9635215802281464  0.7845431943407774  1.0000
  H   H24       1.0  0.5322088411423921  0.5365601162186947  0.21557795301369953  1.0000
  H   H25       1.0  0.8253067471017701  0.06039693731703718  0.40157324088348656  1.0000
  H   H26       1.0  0.4236612750289481  0.4395116782672088  0.598306648990082  1.0000
  H   H27       1.0  0.17469686223113712  0.9396133388351229  0.5984180369671391  1.0000
  H   H28       1.0  0.5763459081464363  0.5604731147403398  0.40169619112820226  1.0000
  H   H29       1.0  0.7774810115960802  0.9291380062508094  0.3041443485488458  1.0000
  H   H30       1.0  0.47327058322430565  0.5707997404517542  0.6957647266557315  1.0000
  H   H31       1.0  0.22252741995448835  0.07086838924978169  0.6958649061622778  1.0000
  H   H32       1.0  0.5267186967495121  0.4291912508667223  0.3042191809973999  1.0000
  H   H33       1.0  0.6948328902114015  0.17255294116482384  0.517078326063931  1.0000
  H   H34       1.0  0.17763772130413  0.3273972815757844  0.48282093278539406  1.0000
  H   H35       1.0  0.305151892820362  0.8274295675785268  0.4828998778993918  1.0000
  H   H36       1.0  0.8223701739094195  0.6726199156688322  0.5171911949953197  1.0000
  H   H37       1.0  0.661815092795436  0.17082600734401854  0.3424307751521026  1.0000
  H   H38       1.0  0.3192565693919462  0.3291786375982395  0.6575337573851668  1.0000
  H   H39       1.0  0.33815803935664945  0.8291626760898652  0.6575479996086172  1.0000
  H   H40       1.0  0.6807462964988671  0.670830836594902  0.3424830783445783  1.0000
  H   H41       1.0  0.30612065132999794  0.15019654701076487  0.25294430967650067  1.0000
  H   H42       1.0  0.05305041087812859  0.3497455575798724  0.7469942774464328  1.0000
  H   H43       1.0  0.6938621173447076  0.8498044595607295  0.7470553416667086  1.0000
  H   H44       1.0  0.9469447241308374  0.650247736116597  0.25300018426442233  1.0000
  H   H45       1.0  0.3561478839016488  0.15523526134165871  0.4334873842195392  1.0000
  H   H46       1.0  0.9225146878800814  0.3448072736408604  0.5664551335094643  1.0000
  H   H47       1.0  0.6438450523314997  0.8447603420427611  0.5665120510726707  1.0000
  H   H48       1.0  0.07748444430655604  0.6551960434780353  0.4335473835524794  1.0000
  H   H49       1.0  0.72914364159616  0.12887154731013337  0.8024770973732557  1.0000
  H   H50       1.0  0.9266587659799085  0.3711361388077492  0.19755704556035877  1.0000
  H   H51       1.0  0.2708639279985546  0.8711279041390579  0.19753046196066013  1.0000
  H   H52       1.0  0.07334299636293913  0.6288648739488136  0.8024359635728259  1.0000
  H   H53       1.0  0.744703871570394  0.11417407998957425  0.9672341034649391  1.0000
  H   H54       1.0  0.7774203566214553  0.38583763972589935  0.03281289159745874  1.0000
  H   H55       1.0  0.25529673487660887  0.8858253744446358  0.032771450508000996  1.0000
  H   H56       1.0  0.22257207374116944  0.6141595133253259  0.9671814398640989  1.0000
  H   H57       1.0  0.3951212804329955  0.13798511266627855  0.8571442819517612  1.0000
  H   H58       1.0  0.5380140673750587  0.3620104615892501  0.142963715241855  1.0000
  H   H59       1.0  0.6048767991403706  0.8620104978811935  0.1428487150118371  1.0000
  H   H60       1.0  0.4619934102802361  0.6379928458904371  0.8570463297261312  1.0000
  H   H61       1.0  0.39331278580819884  0.14700564906442537  0.694961850604848  1.0000
  H   H62       1.0  0.6983600960052597  0.35298220288910176  0.3050968831890442  1.0000
  H   H63       1.0  0.6066933399926382  0.8529884129922247  0.3050346949178288  1.0000
  H   H64       1.0  0.3016514328496242  0.6470195660782138  0.6949085719096145  1.0000
  H   H65       1.0  0.6622893566778814  0.11580494617904688  0.07812233123428308  1.0000
  H   H66       1.0  0.5840973722618303  0.3841415935083531  0.9218598031064288  1.0000
  H   H67       1.0  0.3377019891276091  0.8841922023776191  0.9218758806038279  1.0000
  H   H68       1.0  0.41590120627098753  0.6158594095919695  0.07814160626788436  1.0000
  H   H69       1.0  0.3686219920699614  0.15492619599001498  0.12162622269620728  1.0000
  H   H70       1.0  0.24688412444017166  0.345039657495178  0.8783084181102722  1.0000
  H   H71       1.0  0.6313623312646897  0.8450755929058074  0.8783644094374238  1.0000
  H   H72       1.0  0.7531108563515188  0.6549590295852138  0.12169380204045402  1.0000
  C   C1        1.0  0.2946814201169233  0.9759609865304879  0.43348292750719236  1.0000
  C   C2        1.0  0.861263906625048  0.5241739225369314  0.5666560226023165  1.0000
  C   C3        1.0  0.7053280337129169  0.0240469508180823  0.5665277196331929  1.0000
  C   C4        1.0  0.1387373856149736  0.47582631238985573  0.43334212536389316  1.0000
  C   C5        1.0  0.1736156629657799  0.9809211105430575  0.40480642754192797  1.0000
  C   C6        1.0  0.7688019696500916  0.519130029346293  0.5952615724390354  1.0000
  C   C7        1.0  0.8263932372102475  0.01908451278694659  0.5952031119108199  1.0000
  C   C8        1.0  0.2311998762437426  0.4808725195990746  0.40473768321480447  1.0000
  C   C9        1.0  0.08343506340115417  0.9002874701636187  0.3141681261635154  1.0000
  C   C10       1.0  0.7692013276083574  0.5996518771480692  0.6859569644288469  1.0000
  C   C11       1.0  0.9165738679138047  0.09971738448967216  0.685838776886328  1.0000
  C   C12       1.0  0.23079931903843234  0.4003498997906475  0.3140425614838022  1.0000
  C   C13       1.0  0.9721682598901181  0.9074015560552691  0.2906960521662824  1.0000
  C   C14       1.0  0.6813846240375341  0.5925213747459137  0.7093809258616018  1.0000
  C   C15       1.0  0.027842232190927626  0.09260407210285138  0.7093092871659081  1.0000
  C   C16       1.0  0.31861630668344526  0.40747885868269407  0.2906185155634588  1.0000
  C   C17       1.0  0.9480583721232776  0.9942573181397306  0.35662211602247135  1.0000
  C   C18       1.0  0.5913891849880741  0.5056657518412492  0.64334613242125  1.0000
  C   C19       1.0  0.05194979132502906  0.005746769832541098  0.6433805229387842  1.0000
  C   C20       1.0  0.4086113766303612  0.49433293890831453  0.35665257054539257  1.0000
  C   C21       1.0  0.03877357927335376  0.07390616060498437  0.4472498608176068  1.0000
  C   C22       1.0  0.5915905885540127  0.4260590747118158  0.5527541985298398  1.0000
  C   C23       1.0  0.9612320474355229  0.92609792569948  0.552754376863689  1.0000
  C   C24       1.0  0.40841070368600907  0.5739411602149715  0.4472439494363769  1.0000
  C   C25       1.0  0.1500547375278458  0.0675241493081415  0.470989764115508  1.0000
  C   C26       1.0  0.6791193843119956  0.4325038454446854  0.5290203659322897  1.0000
  C   C27       1.0  0.8499535094714545  0.9324814748529278  0.5290191213664031  1.0000
  C   C28       1.0  0.32088100939953534  0.5674987063274343  0.4709766080650296  1.0000
  C   C29       1.0  0.8299546526436999  0.1400112667755877  0.2628433837503935  1.0000
  C   C30       1.0  0.566967512437671  0.35994148974345547  0.7369928639343967  1.0000
  C   C31       1.0  0.17003822735353674  0.8599766571630307  0.7371235254796812  1.0000
  C   C32       1.0  0.433050561741652  0.6400772200752484  0.26304472285115565  1.0000
  C   C33       1.0  0.772262868353927  0.03434149470231769  0.23564792594196868  1.0000
  C   C34       1.0  0.5364670100262359  0.46558656619268374  0.7642249007307739  1.0000
  C   C35       1.0  0.22774166782419047  0.9656471791264206  0.7643366320546289  1.0000
  C   C36       1.0  0.4635414533356865  0.5344275440317146  0.2357870580747772  1.0000
  C   C37       1.0  0.8277026722187628  0.003539926120254199  0.3288254353015603  1.0000
  C   C38       1.0  0.49878228565580673  0.49638039545301615  0.6710491920932637  1.0000
  C   C39       1.0  0.17230214937840319  0.9964641709993953  0.6711697192021261  1.0000
  C   C40       1.0  0.5012185213143994  0.5036159792822872  0.3289500308714324  1.0000
  C   C41       1.0  0.6098747117239541  0.16564520193161053  0.4550570474336268  1.0000
  C   C42       1.0  0.1546718465745515  0.3342666922303009  0.544822951487241  1.0000
  C   C43       1.0  0.39010823405102735  0.8343396179978768  0.544924836652207  1.0000
  C   C44       1.0  0.8453297531625878  0.6657451061294779  0.45518654824053323  1.0000
  C   C45       1.0  0.5908145123588397  0.16391294041756765  0.35760377757587486  1.0000
  C   C46       1.0  0.2330435486254743  0.3360161031760001  0.6422861868259843  1.0000
  C   C47       1.0  0.40916570521437023  0.8360780487242464  0.6423826445808486  1.0000
  C   C48       1.0  0.7669579805778853  0.6639872079558271  0.35772121329299694  1.0000
  C   C49       1.0  0.47952762258747583  0.1557354917495317  0.28067115852024926  1.0000
  C   C50       1.0  0.19864365923885444  0.34414080854951823  0.7191889515126562  1.0000
  C   C51       1.0  0.5204521194492031  0.8442632117825254  0.7193182874749054  1.0000
  C   C52       1.0  0.8013522124978321  0.6558540205046837  0.28081241068969115  1.0000
  C   C53       1.0  0.3934392547177056  0.15413631889705925  0.30862463142421587  1.0000
  C   C54       1.0  0.08461938797618983  0.3457452310205368  0.6912491507065609  1.0000
  C   C55       1.0  0.6065428456132765  0.8458616061437777  0.6913703021136184  1.0000
  C   C56       1.0  0.9153770685532338  0.6542511433755251  0.3087506827805129  1.0000
  C   C57       1.0  0.4199758401296804  0.1563399912554643  0.40826194540719724  1.0000
  C   C58       1.0  0.01154320919800964  0.34360428249800623  0.5916363027101069  1.0000
  C   C59       1.0  0.5800132765659997  0.8436533022657071  0.5917331123431991  1.0000
  C   C60       1.0  0.9884547161580813  0.6563967214333813  0.4083644526933624  1.0000
  C   C61       1.0  0.6575316270420188  0.12875464171400347  0.8179015561456281  1.0000
  C   C62       1.0  0.8396311772064494  0.37126776535274775  0.18214505042621448  1.0000
  C   C63       1.0  0.3424755513720825  0.8712471269140706  0.182104509475394  1.0000
  C   C64       1.0  0.16037192115142332  0.6287309270646161  0.8178520538203954  1.0000
  C   C65       1.0  0.6649987139927732  0.12026753726426158  0.9077871415509833  1.0000
  C   C66       1.0  0.7571567992531172  0.37978460917019413  0.09227363251699226  1.0000
  C   C67       1.0  0.335004252225893  0.8797326886790908  0.09221847638998053  1.0000
  C   C68       1.0  0.2428408876622755  0.6202117685558048  0.9077232943083615  1.0000
  C   C69       1.0  0.5694102509741512  0.12289964410953759  0.9231335027914368  1.0000
  C   C70       1.0  0.6462143549983352  0.3771707019223952  0.07691021775876554  1.0000
  C   C71       1.0  0.43058791215020864  0.8770975026267321  0.07686574069281688  1.0000
  C   C72       1.0  0.35378478409936776  0.6228256729768444  0.9230889907231086  1.0000
  C   C73       1.0  0.46956059938223416  0.13292125139623318  0.8458430970788412  1.0000
  C   C74       1.0  0.623757415836444  0.3671605506200564  0.15426958614756353  1.0000
  C   C75       1.0  0.5304407923807092  0.86707666868093  0.15415459717058158  1.0000
  C   C76       1.0  0.37624353696261187  0.6328358229506178  0.8457306105319801  1.0000
  C   C77       1.0  0.46849594387888516  0.1395312291656552  0.7575460764181087  1.0000
  C   C78       1.0  0.7109835753065922  0.36051830518423594  0.24255488147036894  1.0000
  C   C79       1.0  0.5315097208799884  0.8604651462424399  0.24245221628021346  1.0000
  C   C80       1.0  0.2890212357523439  0.6394811507538378  0.7574490882653534  1.0000
  C   C81       1.0  0.5796201515112287  0.12105624873555598  0.02096246076619219  1.0000
  C   C82       1.0  0.5585433512670761  0.3789322421178766  0.979011413615069  1.0000
  C   C83       1.0  0.42037119429426884  0.87894089982111  0.9790357510719188  1.0000
  C   C84       1.0  0.44145880836251916  0.6210664446403056  0.020990544722941575  1.0000
  C   C85       1.0  0.453413983118665  0.14882440999516428  0.17468633215432308  1.0000
  C   C86       1.0  0.2785728566164992  0.3511165748746946  0.8252073916133112  1.0000
  C   C87       1.0  0.5465665358455211  0.8511781513991392  0.8253039862720326  1.0000
  C   C88       1.0  0.7214290873228961  0.648882109220679  0.17479683389839099  1.0000
  N   N1        1.0  0.5260014785592517  0.1597019619171149  0.4792849626191398  1.0000
  N   N2        1.0  0.04657817417241734  0.3402607512170092  0.5206266202187777  1.0000
  N   N3        1.0  0.47398641613889214  0.8402859360548329  0.5207042696382513  1.0000
  N   N4        1.0  0.9534248017795406  0.6597510493080773  0.4793809465621307  1.0000
  N   N5        1.0  0.5609282732136621  0.1377238614624332  0.7439991023559287  1.0000
  N   N6        1.0  0.8169583936939091  0.36231363411954476  0.2560823829923962  1.0000
  N   N7        1.0  0.4390783363796302  0.8622725107853525  0.25600179174292487  1.0000
  N   N8        1.0  0.18304754064458711  0.6376865988172394  0.7439171018811377  1.0000
  N   N9        1.0  0.4963274141623444  0.1300605891814897  0.04295756373798549  1.0000
  N   N10       1.0  0.45323832275673936  0.369943779224478  0.9569753556636228  1.0000
  N   N11       1.0  0.5036624573827737  0.869940422059855  0.957037611189129  1.0000
  N   N12       1.0  0.5467595009266405  0.6300495061556717  0.04302593653396505  1.0000
  N   N13       1.0  0.5299911421448726  0.1339883162316013  0.1441316594836977  1.0000
  N   N14       1.0  0.38570300572052213  0.36596505561915643  0.855761146135357  1.0000
  N   N15       1.0  0.46999492502978063  0.8660134675082177  0.8558632017361419  1.0000
  N   N16       1.0  0.6142898530677741  0.6340290027569679  0.14423949812812958  1.0000
  O   O1        1.0  0.3084895665779612  0.8975521634932517  0.3633827836437077  1.0000
  O   O2        1.0  0.9451336899100582  0.6025856875253692  0.6367874912071655  1.0000
  O   O3        1.0  0.6915216712916601  0.10245809120382891  0.6366260645225877  1.0000
  O   O4        1.0  0.05486955427665661  0.3974130037273724  0.36321058675429185  1.0000
  O   O5        1.0  0.3725030695825282  0.045053782863462295  0.5213255560540729  1.0000
  O   O6        1.0  0.8512938261870814  0.455076695984715  0.47881914280794274  1.0000
  O   O7        1.0  0.6275027492611186  0.9549526159613888  0.4786810827736969  1.0000
  O   O8        1.0  0.14870575945801787  0.5449227666018714  0.5211795951610795  1.0000
  O   O9        1.0  0.8357868097530812  0.21654222432188416  0.3491783685031251  1.0000
  O   O10       1.0  0.4864808849401855  0.28337304326289814  0.6507154121861518  1.0000
  O   O11       1.0  0.16425406964093273  0.7834379433624221  0.6508173720609705  1.0000
  O   O12       1.0  0.5135619922447459  0.7166449368546423  0.3492847451529001  1.0000
  O   O13       1.0  0.8661075148842698  0.1490525797500979  0.203588236211445  1.0000
  O   O14       1.0  0.6624119726498635  0.3509503649830065  0.7962240236025622  1.0000
  O   O15       1.0  0.13382202528848108  0.850935398343253  0.7963376043231561  1.0000
  O   O16       1.0  0.3375732926928663  0.6490667367112547  0.20387056580066326  1.0000
