data_image0
_chemical_formula_structural       CoSi2H32C30S2N6
_chemical_formula_sum              "Co1 Si2 H32 C30 S2 N6"
_cell_length_a       9.812978607981124
_cell_length_b       9.820129013309378
_cell_length_c       10.381965558925724
_cell_angle_alpha    63.191852747538775
_cell_angle_beta     63.37482505203567
_cell_angle_gamma    79.80909938827165

_space_group_name_H-M_alt    "P 1"
_space_group_IT_number       1

loop_
  _space_group_symop_operation_xyz
  'x, y, z'

loop_
  _atom_site_type_symbol
  _atom_site_label
  _atom_site_symmetry_multiplicity
  _atom_site_fract_x
  _atom_site_fract_y
  _atom_site_fract_z
  _atom_site_occupancy
  Co  Co1       1.0  0.3027954086148625  0.6973214390341126  0.49989151745150917  1.0000
  Si  Si1       1.0  0.4672962619328375  0.0791664079592067  0.8420420422709821  1.0000
  Si  Si2       1.0  0.9208437690843495  0.5325995920923959  0.1579492605332503  1.0000
  H   H1        1.0  0.4507065685892472  0.8807367402966122  0.16041667094044956  1.0000
  H   H2        1.0  0.11864074770245739  0.5496940905425731  0.8399533552939643  1.0000
  H   H3        1.0  0.11213310031404689  0.08759953782030293  0.975381183679708  1.0000
  H   H4        1.0  0.9125672789576028  0.8877984663619783  0.02450127051783127  1.0000
  H   H5        1.0  0.9143272788385135  0.9664916672959692  0.2519912744830106  1.0000
  H   H6        1.0  0.0334448549201554  0.08624312154329059  0.7479070416818414  1.0000
  H   H7        1.0  0.9959811191333755  0.8063128112614351  0.47350834051270113  1.0000
  H   H8        1.0  0.19334664227778833  0.004838074759142299  0.5266600235768235  1.0000
  H   H9        1.0  0.34291191344645  0.35956647127601127  0.6495803176765164  1.0000
  H   H10       1.0  0.6409079144392037  0.6567882861774519  0.34976319841369713  1.0000
  H   H11       1.0  0.6119210537203159  0.2689952038195784  0.9133578959672659  1.0000
  H   H12       1.0  0.7309158193291553  0.3879952391861323  0.08677265453381  1.0000
  H   H13       1.0  0.6160763937981173  0.548705403900307  0.836291033160769  1.0000
  H   H14       1.0  0.4513391947610828  0.3835398972356714  0.16358390639758366  1.0000
  H   H15       1.0  0.4729324319898112  0.720486207726161  0.6749790906064559  1.0000
  H   H16       1.0  0.2799101395246382  0.5265856050933237  0.3245594887509924  1.0000
  H   H17       1.0  0.3867886646424593  0.9393501361897238  0.7382299719884954  1.0000
  H   H18       1.0  0.06072631503495529  0.6130411932614594  0.26185053138502906  1.0000
  H   H19       1.0  0.4270031340815876  0.13114122555894878  0.596115464301377  1.0000
  H   H20       1.0  0.8691860630240029  0.5725299992005048  0.4036892247742684  1.0000
  H   H21       1.0  0.6426695954644686  0.9353558670943017  0.5316521094146793  1.0000
  H   H22       1.0  0.06500852235208751  0.3566952751577687  0.46872076241282895  1.0000
  H   H23       1.0  0.702382276929022  0.1019750113665054  0.5179080327170027  1.0000
  H   H24       1.0  0.8983932351645906  0.2971249458587123  0.4821529955521767  1.0000
  H   H25       1.0  0.8124387316310616  0.8807785696954938  0.6798252105601249  1.0000
  H   H26       1.0  0.1194083432834034  0.1872595142046691  0.32070787128660067  1.0000
  H   H27       1.0  0.6299606852450735  0.7903314335784872  0.8064570661272228  1.0000
  H   H28       1.0  0.20957775932531317  0.3699993947356147  0.1939551054138776  1.0000
  H   H29       1.0  0.7421693093923522  0.07989228542687242  0.7770337480091313  1.0000
  H   H30       1.0  0.9201199033647072  0.2577013311115052  0.22311148182829751  1.0000
  H   H31       1.0  0.6586685861995393  0.9141105476131414  0.9513578301679856  1.0000
  H   H32       1.0  0.08561642512366768  0.341520217236841  0.048946575738746424  1.0000
  C   C1        1.0  0.3335528152148726  0.9030075623841399  0.17444274118099665  1.0000
  C   C2        1.0  0.09648877254883809  0.6668712624764054  0.825905094331354  1.0000
  C   C3        1.0  0.3014473089528095  0.9928358227085423  0.042585361938698545  1.0000
  C   C4        1.0  0.006968053838825496  0.6986866052835055  0.9575968554319089  1.0000
  C   C5        1.0  0.1467432504937847  0.0165900709549334  0.07179458241627398  1.0000
  C   C6        1.0  0.9833993424453024  0.8534174041152839  0.9282015535043299  1.0000
  C   C7        1.0  0.03511758983430009  0.949789471489794  0.22711797135238512  1.0000
  C   C8        1.0  0.050073575000524784  0.9654382231684123  0.7728779571658252  1.0000
  C   C9        1.0  0.0792508831524827  0.8615998523176175  0.3504895025750728  1.0000
  C   C10       1.0  0.13798108630131617  0.9214934855586348  0.649769435346343  1.0000
  C   C11       1.0  0.40312165463613064  0.39487297845352753  0.6964255063994994  1.0000
  C   C12       1.0  0.6056072508630593  0.5965178464643585  0.3029855969780825  1.0000
  C   C13       1.0  0.475264859162067  0.28885863151700863  0.7889553286933405  1.0000
  C   C14       1.0  0.7113677181068  0.5245025290103554  0.21078504089841488  1.0000
  C   C15       1.0  0.5524238283875037  0.34557513050399535  0.841475689607101  1.0000
  C   C16       1.0  0.6544677894661106  0.44737414725764063  0.15844244535405486  1.0000
  C   C17       1.0  0.5538343052768155  0.501698247197105  0.8001790635559513  1.0000
  C   C18       1.0  0.49839577623398407  0.445778786436314  0.19960225064023973  1.0000
  C   C19       1.0  0.47608892449269996  0.5977078873450878  0.7099500361804942  1.0000
  C   C20       1.0  0.4026919654688684  0.5234137567092105  0.28952129996887516  1.0000
  C   C21       1.0  0.464546790262652  0.038015223648564196  0.6819064521537611  1.0000
  C   C22       1.0  0.9621806872939587  0.5351794338793495  0.31808760483171755  1.0000
  C   C23       1.0  0.6316467494206107  0.996230307963053  0.6023482818958499  1.0000
  C   C24       1.0  0.004067173174384198  0.3678963378085882  0.3978516929906704  1.0000
  C   C25       1.0  0.6900458937682076  0.9027768601282204  0.7317456949818251  1.0000
  C   C26       1.0  0.0972903950137649  0.3097412341728827  0.2686302793005453  1.0000
  C   C27       1.0  0.655611493901901  0.9882601497595473  0.8360482865567177  1.0000
  C   C28       1.0  0.011647381992418096  0.34434235016638576  0.16414668927672696  1.0000
  C   C29       1.0  0.0570290321355031  0.4538953232753329  0.6835810875754543  1.0000
  C   C30       1.0  0.5462985045079236  0.9429800795201546  0.3163408150107898  1.0000
  S   S1        1.0  0.9280980241255248  0.3207529387697861  0.8175450442240187  1.0000
  S   S2        1.0  0.6794547936750915  0.07188116334366867  0.18243208904244315  1.0000
  N   N1        1.0  0.22681946335524827  0.8385443048909667  0.3249573249942728  1.0000
  N   N2        1.0  0.1607341566436347  0.7739318677646877  0.6755515746245989  1.0000
  N   N3        1.0  0.4020583120827297  0.5454309614713324  0.6580095572677037  1.0000
  N   N4        1.0  0.45528960511998656  0.597407714301127  0.34109210416053054  1.0000
  N   N5        1.0  0.1532149969135688  0.5506982014612377  0.585908679110254  1.0000
  N   N6        1.0  0.44950264768355197  0.8467712509887946  0.41393337571729916  1.0000
