data_image0
_chemical_formula_structural       K4H36C48S4N8O16
_chemical_formula_sum              "K4 H36 C48 S4 N8 O16"
_cell_length_a       6.935627466982611
_cell_length_b       13.161605267291868
_cell_length_c       14.5475
_cell_angle_alpha    96.24028757498029
_cell_angle_beta     103.10630178452321
_cell_angle_gamma    90.07649168618946

_space_group_name_H-M_alt    "P 1"
_space_group_IT_number       1

loop_
  _space_group_symop_operation_xyz
  'x, y, z'

loop_
  _atom_site_type_symbol
  _atom_site_label
  _atom_site_symmetry_multiplicity
  _atom_site_fract_x
  _atom_site_fract_y
  _atom_site_fract_z
  _atom_site_occupancy
  K   K1        1.0  0.15154023173452916  0.36416421348651806  0.49551805135831717  1.0000
  K   K2        1.0  0.6560626675829369  0.1367820686600396  0.5061594234526794  1.0000
  K   K3        1.0  0.8484442882285492  0.6358314033491581  0.5044803252430299  1.0000
  K   K4        1.0  0.3439716592164075  0.8632318983324225  0.4938420178930656  1.0000
  H   H1        1.0  0.7581606468168971  0.1965263561959603  0.28363346252185545  1.0000
  H   H2        1.0  0.46702814817535915  0.3054926455325315  0.7210525725273127  1.0000
  H   H3        1.0  0.24185908463397965  0.8034631439207871  0.7163736184394196  1.0000
  H   H4        1.0  0.5329458799376141  0.6945289673585862  0.2789499759570475  1.0000
  H   H5        1.0  0.6183269397499558  0.2141799716110171  0.1134356902253657  1.0000
  H   H6        1.0  0.4950409964118165  0.2860858255548351  0.8913156330262735  1.0000
  H   H7        1.0  0.3816704665689201  0.7858072347361329  0.8865811248776507  1.0000
  H   H8        1.0  0.504939231482588  0.7139411394653408  0.10868742464985807  1.0000
  H   H9        1.0  0.8044238297235327  0.1477294663607935  0.9915315643577143  1.0000
  H   H10       1.0  0.8027646517456689  0.3483463783396203  0.011437539468360602  1.0000
  H   H11       1.0  0.1955467307953214  0.8522539170370251  0.008486096939130086  1.0000
  H   H12       1.0  0.19721717577411377  0.6516828804501529  0.9885686663308275  1.0000
  H   H13       1.0  0.12594828563356944  0.0627001919577097  0.04247410870037529  1.0000
  H   H14       1.0  0.07493565239057891  0.4328542024541234  0.9590103385607449  1.0000
  H   H15       1.0  0.874029716595949  0.9372839560299795  0.9575272472192182  1.0000
  H   H16       1.0  0.9250532591437307  0.5671689396167281  0.04098984491578506  1.0000
  H   H17       1.0  0.5997504176048666  0.9249633549299645  0.043801263288258986  1.0000
  H   H18       1.0  0.5461150804165698  0.5710056515640929  0.9549206475843943  1.0000
  H   H19       1.0  0.4003173620808412  0.0750391432145037  0.9562253510360534  1.0000
  H   H20       1.0  0.4539047604016062  0.429014432147298  0.045048896086619494  1.0000
  H   H21       1.0  0.9054677046869343  0.8211794557048507  0.08469814106756958  1.0000
  H   H22       1.0  0.8106664200203612  0.6759647254131806  0.9132579729404922  1.0000
  H   H23       1.0  0.09460647350027782  0.17883221751801412  0.9153424405556051  1.0000
  H   H24       1.0  0.18937468270613783  0.32400871831637806  0.08667353763903658  1.0000
  H   H25       1.0  0.0303277994341897  0.784194714708832  0.2521210614695519  1.0000
  H   H26       1.0  0.7701559937686326  0.7159604213013324  0.7462800323220121  1.0000
  H   H27       1.0  0.9696880075088998  0.21580472507617537  0.7479216302850631  1.0000
  H   H28       1.0  0.2298324605669819  0.2839969660410446  0.2536435200690832  1.0000
  H   H29       1.0  0.8574702888524328  0.8474071818767328  0.3772980003875403  1.0000
  H   H30       1.0  0.4740262950533706  0.6548582221634689  0.6225933310735882  1.0000
  H   H31       1.0  0.1425143503426938  0.1525907287285406  0.6227301730234058  1.0000
  H   H32       1.0  0.5259209864771107  0.3451045173079663  0.3773517304449853  1.0000
  H   H33       1.0  0.4115830895614679  0.9899450830476866  0.3161272828518378  1.0000
  H   H34       1.0  0.0886818868501749  0.5112735974660225  0.6848889557297609  1.0000
  H   H35       1.0  0.5884209139790002  0.0100551213271842  0.683878463070414  1.0000
  H   H36       1.0  0.9112634176292858  0.4887365465771083  0.3150997359508095  1.0000
  C   C1        1.0  0.0163099202609871  0.11902446902321628  0.2587800356624327  1.0000
  C   C2        1.0  0.7507777316643072  0.381241328142643  0.7442748340142201  1.0000
  C   C3        1.0  0.9836934076312148  0.8809627373239337  0.7412257337577798  1.0000
  C   C4        1.0  0.2492077024111339  0.6187718742599486  0.2557253708283227  1.0000
  C   C5        1.0  0.8367428314743108  0.166963489028781  0.23006846349786506  1.0000
  C   C6        1.0  0.5989439324783918  0.3337901164715547  0.7738712129998576  1.0000
  C   C7        1.0  0.1632722203324803  0.8330214235487716  0.769941097417181  1.0000
  C   C8        1.0  0.4010312580757898  0.6662253797006343  0.2261370462479917  1.0000
  C   C9        1.0  0.7597373071827747  0.17736038202604476  0.1343521377279728  1.0000
  C   C10       1.0  0.6163820923457664  0.3221821131266154  0.869603006870683  1.0000
  C   C11       1.0  0.2402813810589421  0.8226375285792287  0.8656590945827246  1.0000
  C   C12       1.0  0.38359209474327116  0.6778425581239702  0.13040054697199815  1.0000
  C   C13       1.0  0.8644045807909536  0.1406883582852103  0.0664942122979113  1.0000
  C   C14       1.0  0.7885775370179147  0.3567950963584323  0.9365335951901198  1.0000
  C   C15       1.0  0.1356082256214606  0.8593103169099336  0.9335212711510008  1.0000
  C   C16       1.0  0.21140221394830414  0.643222693583354  0.0634733204443805  1.0000
  C   C17       1.0  0.043273550250340506  0.09290378543256142  0.09416320109101406  1.0000
  C   C18       1.0  0.9405947164064514  0.4043281191451769  0.9080236878943777  1.0000
  C   C19       1.0  0.9567328576605618  0.9070857146841859  0.9058424394790447  1.0000
  C   C20       1.0  0.0593781095212975  0.595698845874999  0.09197788216108188  1.0000
  C   C21       1.0  0.1203679420500379  0.0802008893995705  0.19008373317012678  1.0000
  C   C22       1.0  0.9227656997964148  0.41866953126091033  0.8121555016881956  1.0000
  C   C23       1.0  0.8796391911179028  0.9197740835097221  0.8099281185938593  1.0000
  C   C24       1.0  0.0772143293779095  0.5813536108099342  0.18784784594753745  1.0000
  C   C25       1.0  0.5566260265064926  0.9420978138260311  0.18632479520606177  1.0000
  C   C26       1.0  0.3621753183154723  0.5564639169034749  0.8135500800561601  1.0000
  C   C27       1.0  0.44340614425126296  0.0579031551387033  0.8136985065008487  1.0000
  C   C28       1.0  0.6378038762345215  0.4435431687801881  0.1864227273758416  1.0000
  C   C29       1.0  0.6588656061597646  0.906254605499889  0.11595906274480677  1.0000
  C   C30       1.0  0.5336628471879976  0.5912137617213062  0.8830613490884714  1.0000
  C   C31       1.0  0.3411568078696661  0.09372954248779311  0.8840615299488377  1.0000
  C   C32       1.0  0.4663602027456832  0.4087826197042403  0.11689727431842557  1.0000
  C   C33       1.0  0.8274341968383326  0.8496780137786217  0.13893131415022003  1.0000
  C   C34       1.0  0.6790990172230098  0.6485595308477272  0.8596532478834502  1.0000
  C   C35       1.0  0.1725888928393573  0.1503191322367883  0.8611036905154916  1.0000
  C   C36       1.0  0.3209340873766067  0.3514024440338446  0.1402838315841919  1.0000
  C   C37       1.0  0.8975823531718419  0.8284552928692861  0.2333070259693101  1.0000
  C   C38       1.0  0.6561015911634769  0.6713810091667725  0.765551244509453  1.0000
  C   C39       1.0  0.10243033400852401  0.1715410885562605  0.7667254040967035  1.0000
  C   C40       1.0  0.3439046278920942  0.32857637817560464  0.23438522685660249  1.0000
  C   C41       1.0  0.8006994586360747  0.8627440899979391  0.30408868641522696  1.0000
  C   C42       1.0  0.48957544047611623  0.638180223417372  0.6956123399809612  1.0000
  C   C43       1.0  0.1993112216140105  0.1372706415843865  0.6959453312937994  1.0000
  C   C44       1.0  0.5103733115829456  0.3618108058791023  0.30434322405795905  1.0000
  C   C45       1.0  0.6294188778696252  0.9197496166340073  0.28210275391245426  1.0000
  C   C46       1.0  0.34027744034504787  0.5806165461791579  0.7180845212214065  1.0000
  C   C47       1.0  0.37058844415363984  0.08025746904965561  0.7179218999821515  1.0000
  C   C48       1.0  0.6596867912955843  0.4193874811450442  0.281878118980913  1.0000
  S   S1        1.0  0.1174423927362511  0.1183294568350632  0.383802750035322  1.0000
  S   S2        1.0  0.7300700123426085  0.3823239873928372  0.6190259336789835  1.0000
  S   S3        1.0  0.882581342710445  0.8816516327931653  0.6162018744701284  1.0000
  S   S4        1.0  0.2699377468648336  0.6176915087793589  0.3809775976851668  1.0000
  N   N1        1.0  0.2964857264934295  0.028592602627284698  0.2205253496388124  1.0000
  N   N2        1.0  0.06866324041970981  0.4704475569834443  0.7808084514402862  1.0000
  N   N3        1.0  0.7035461660562137  0.9714030142083914  0.7795049570835386  1.0000
  N   N4        1.0  0.9313017066132048  0.529570232958342  0.21918792751618812  1.0000
  N   N5        1.0  0.3881037203309391  0.9966314214254695  0.15600214044436458  1.0000
  N   N6        1.0  0.22401011032648915  0.5012115948300391  0.8444261385610901  1.0000
  N   N7        1.0  0.611917690233348  0.0033619016406092  0.8440226830874663  1.0000
  N   N8        1.0  0.7759722834742605  0.4988000783928186  0.15555502732701137  1.0000
  O   O1        1.0  0.2953724076939679  0.1860835878067419  0.40371440347323767  1.0000
  O   O2        1.0  0.8869248864564695  0.3138266750714465  0.5981819539842803  1.0000
  O   O3        1.0  0.7046535632823564  0.8139120290289341  0.5963049520252284  1.0000
  O   O4        1.0  0.1130988391254704  0.686182704381814  0.40183645001471285  1.0000
  O   O5        1.0  0.1629707617407945  0.0130186716476288  0.40189456402393375  1.0000
  O   O6        1.0  0.7603159829589998  0.4875002047638546  0.6008226706056589  1.0000
  O   O7        1.0  0.8370216371171253  0.9869861202664367  0.5981035044497246  1.0000
  O   O8        1.0  0.239680260918675  0.5124931183022241  0.3991691864405168  1.0000
  O   O9        1.0  0.963940441800446  0.1629050460202848  0.42956865369778535  1.0000
  O   O10       1.0  0.5316376336670601  0.33876989026852306  0.5740307500108628  1.0000
  O   O11       1.0  0.0360792002976495  0.8371112147417676  0.5704437989395288  1.0000
  O   O12       1.0  0.4683688139878583  0.6612203744380878  0.425959159771267  1.0000
  O   O13       1.0  0.5341508198383309  0.9522959134581512  0.35049065415218184  1.0000
  O   O14       1.0  0.17770650804089877  0.5493448206615597  0.6504374345165402  1.0000
  O   O15       1.0  0.46583529975013244  0.0477019971471222  0.6495253060422214  1.0000
  O   O16       1.0  0.8222307983116792  0.4506538545335772  0.34954307798546574  1.0000
