data_image0
_chemical_formula_structural       CdH32C34Br4N4O6
_chemical_formula_sum              "Cd1 H32 C34 Br4 N4 O6"
_cell_length_a       9.109084420517403
_cell_length_b       9.425442569349327
_cell_length_c       11.791259276853344
_cell_angle_alpha    96.9524368820807
_cell_angle_beta     97.65157692603732
_cell_angle_gamma    117.13923215442777

_space_group_name_H-M_alt    "P 1"
_space_group_IT_number       1

loop_
  _space_group_symop_operation_xyz
  'x, y, z'

loop_
  _atom_site_type_symbol
  _atom_site_label
  _atom_site_symmetry_multiplicity
  _atom_site_fract_x
  _atom_site_fract_y
  _atom_site_fract_z
  _atom_site_occupancy
  Cd  Cd1       1.0  2.888985975001326e-07  9.819259432003322e-07  0.499998573837857  1.0000
  H   H1        1.0  0.7126480278227662  0.1410459508877935  0.9281409818538862  1.0000
  H   H2        1.0  0.28735826596744835  0.858956585254852  0.07185992990895333  1.0000
  H   H3        1.0  0.46450393027046744  0.17340282624320483  0.1262525918843309  1.0000
  H   H4        1.0  0.5355006376666721  0.8265984895403659  0.8737471861404627  1.0000
  H   H5        1.0  0.6172295707862931  0.3766040190614604  0.14628852554203323  1.0000
  H   H6        1.0  0.38277378919539007  0.6233948655370866  0.8537117487956606  1.0000
  H   H7        1.0  0.6727189154385796  0.6383448445782418  0.4920079181462995  1.0000
  H   H8        1.0  0.3272858673337211  0.3616613462013305  0.5079915022191415  1.0000
  H   H9        1.0  0.6336664353734633  0.8733865855130745  0.4126128453403197  1.0000
  H   H10       1.0  0.366335808067241  0.1266122970887906  0.5873864719473048  1.0000
  H   H11       1.0  0.6951486322930263  0.9248192053804797  0.558438808617879  1.0000
  H   H12       1.0  0.304848092455181  0.07517970047663877  0.44156082155253523  1.0000
  H   H13       1.0  0.5639976452647488  0.3459290367251597  0.3972272030142392  1.0000
  H   H14       1.0  0.43600384122827057  0.6540771757632484  0.6027735946452637  1.0000
  H   H15       1.0  0.6434563796023127  0.13094892153183932  0.7173373564856291  1.0000
  H   H16       1.0  0.35654871690118023  0.8690511889655567  0.2826649012789488  1.0000
  H   H17       1.0  0.6205647104327312  0.13836038595426456  0.3049696329026901  1.0000
  H   H18       1.0  0.379431539092785  0.8616397528878893  0.6950317659721961  1.0000
  H   H19       1.0  0.832691086827495  0.18024870053192635  0.3140224218177323  1.0000
  H   H20       1.0  0.16730628990772803  0.8197514458466842  0.6859807837960616  1.0000
  H   H21       1.0  0.05491955113858886  0.4856563672247986  0.3192362080062736  1.0000
  H   H22       1.0  0.9450808963720334  0.514338876909207  0.6807651282839657  1.0000
  H   H23       1.0  0.14283790760217127  0.7716269695926741  0.41634433164750106  1.0000
  H   H24       1.0  0.8571659596084017  0.2283706986401555  0.5836567230522717  1.0000
  H   H25       1.0  0.3824773796137606  0.34596233276671734  0.9773856428884073  1.0000
  H   H26       1.0  0.617526466259342  0.6540353243865623  0.022613712433667384  1.0000
  H   H27       1.0  0.8410418330410536  0.29031005198935833  0.1311955678976844  1.0000
  H   H28       1.0  0.15896389411199155  0.7096912879499798  0.8688085659325679  1.0000
  H   H29       1.0  0.6858121969214181  0.0848037111497604  0.1105911248526965  1.0000
  H   H30       1.0  0.314192910250803  0.9151964048874106  0.8894119826007341  1.0000
  H   H31       1.0  0.3150071512913613  0.315734554886788  0.7618695148658573  1.0000
  H   H32       1.0  0.6849955887094978  0.6842631058095918  0.23812973309500757  1.0000
  C   C1        1.0  0.08827152610625427  0.15228942962368558  0.07506499580582468  1.0000
  C   C2        1.0  0.9117175276132413  0.8477119191438902  0.9249307300954541  1.0000
  C   C3        1.0  0.62630066766215  0.18474969813939876  0.8964245200941788  1.0000
  C   C4        1.0  0.373706742669043  0.8152528399999213  0.10357734871872279  1.0000
  C   C5        1.0  0.5846071570838944  0.25268984294577024  0.10249587851374291  1.0000
  C   C6        1.0  0.4153974108532452  0.7473114728377935  0.8975038995110579  1.0000
  C   C7        1.0  0.06103592436760861  0.013271791642665698  0.11973713729656052  1.0000
  C   C8        1.0  0.9389492450979801  0.9867283715508957  0.880261488588502  1.0000
  C   C9        1.0  0.7534497076272828  0.5990043193613843  0.452620464507433  1.0000
  C   C10       1.0  0.2465532685461936  0.4009982274105396  0.5473801251717703  1.0000
  C   C11       1.0  0.11521624708181828  0.029267041820823198  0.2507237203762216  1.0000
  C   C12       1.0  0.884762536869097  0.9707270291104919  0.7492720006076182  1.0000
  C   C13       1.0  0.026610421477435878  0.13924482698199364  0.9567563887835603  1.0000
  C   C14       1.0  0.9733825485021586  0.8607577239789208  0.04323898620049253  1.0000
  C   C15       1.0  0.6939046389499879  0.4367884649145424  0.4003981728853319  1.0000
  C   C16       1.0  0.3060978726695254  0.5632153203821986  0.5996050351871887  1.0000
  C   C17       1.0  0.5526344019984677  0.24420710173865953  0.9727031416485801  1.0000
  C   C18       1.0  0.4473691621496414  0.7557966523161213  0.02729592534090131  1.0000
  C   C19       1.0  0.8006629930149955  0.3914633367328051  0.3490778791275845  1.0000
  C   C20       1.0  0.19933766933077376  0.6085367823972021  0.6509230995032951  1.0000
  C   C21       1.0  0.5869412743828589  0.17855259698425388  0.7769440199868284  1.0000
  C   C22       1.0  0.4130586765676014  0.8214438690552369  0.22305738563018446  1.0000
  C   C23       1.0  0.7412002374075258  0.2210908691193794  0.2847870307575561  1.0000
  C   C24       1.0  0.25879872042263236  0.7789080407310963  0.7152145135129827  1.0000
  C   C25       1.0  0.9655281127815981  0.5142720371604524  0.35593780822963333  1.0000
  C   C26       1.0  0.03447254956417108  0.48572808196954737  0.644063170401246  1.0000
  C   C27       1.0  0.015373671657286455  0.6733110139905418  0.4093659321693934  1.0000
  C   C28       1.0  0.9846314355149274  0.3266891020466289  0.5906371752840371  1.0000
  C   C29       1.0  0.4415528494847578  0.2955755408605965  0.9224147438484778  1.0000
  C   C30       1.0  0.5584522150125365  0.7044245530174749  0.07758496484955658  1.0000
  C   C31       1.0  0.7191409209155921  0.20959866928064488  0.15168178530029755  1.0000
  C   C32       1.0  0.2808636683590179  0.7904026575824757  0.8483196921022014  1.0000
  C   C33       1.0  0.4058759035600161  0.2815782309059145  0.8021150052491065  1.0000
  C   C34       1.0  0.594132580637229  0.718424287070988  0.1978844218584612  1.0000
  Br  Br1       1.0  0.058828921965257935  0.3277450253709943  0.8971154975012466  1.0000
  Br  Br2       1.0  0.9411762126090508  0.6722574866158696  0.10288105845613418  1.0000
  Br  Br3       1.0  0.2136319854582283  0.3597347076729989  0.17788857188102009  1.0000
  Br  Br4       1.0  0.7863635694053456  0.6402641684885707  0.8221058527950902  1.0000
  N   N1        1.0  0.9109409429590372  0.7165878165582669  0.45599196194902447  1.0000
  N   N2        1.0  0.08906363564683772  0.28341350476507904  0.5440086657646219  1.0000
  N   N3        1.0  0.47738975452281107  0.22449944172573313  0.7289251852080411  1.0000
  N   N4        1.0  0.5226152078912775  0.7754982174242284  0.2710751271640959  1.0000
  O   O1        1.0  0.2670695803534572  0.06971537189190968  0.2917845512775727  1.0000
  O   O2        1.0  0.7329080063107296  0.9302762733941633  0.7082125157080057  1.0000
  O   O3        1.0  0.7209544336791254  0.9553303811638043  0.4826496918336288  1.0000
  O   O4        1.0  0.2790473132014313  0.0446697233435529  0.5173496947807692  1.0000
  O   O5        1.0  0.9953985108943544  0.0008728836931623982  0.3038141968381751  1.0000
  O   O6        1.0  0.004579991331560604  0.9991272841396538  0.6961812358130715  1.0000
