data_image0
_chemical_formula_structural       Cd2H56C52N8O14
_chemical_formula_sum              "Cd2 H56 C52 N8 O14"
_cell_length_a       10.724434619528756
_cell_length_b       11.198756485106433
_cell_length_c       11.4719
_cell_angle_alpha    77.48341087673703
_cell_angle_beta     88.44839392484154
_cell_angle_gamma    75.80898181026159

_space_group_name_H-M_alt    "P 1"
_space_group_IT_number       1

loop_
  _space_group_symop_operation_xyz
  'x, y, z'

loop_
  _atom_site_type_symbol
  _atom_site_label
  _atom_site_symmetry_multiplicity
  _atom_site_fract_x
  _atom_site_fract_y
  _atom_site_fract_z
  _atom_site_occupancy
  Cd  Cd1       1.0  0.8153295104400158  0.1695891994142968  0.3881737898718072  1.0000
  Cd  Cd2       1.0  0.18467146697170012  0.8304091840891348  0.6118257428507546  1.0000
  H   H1        1.0  0.8720321644709588  0.9369924743115945  0.5579583135128202  1.0000
  H   H2        1.0  0.1279662395803882  0.063008739688371  0.44204155721859445  1.0000
  H   H3        1.0  0.9121174761639638  0.033152662321732904  0.6189270254889009  1.0000
  H   H4        1.0  0.08788209660487208  0.9668476081793858  0.3810730152673471  1.0000
  H   H5        1.0  0.5834373902295908  0.5779524813531438  0.03795744108603568  1.0000
  H   H6        1.0  0.41655962008832154  0.4220468456491346  0.962043735837554  1.0000
  H   H7        1.0  0.7206763450486235  0.40231168036415005  0.6089963321124046  1.0000
  H   H8        1.0  0.2793234636455963  0.5976876466381214  0.3910021588901386  1.0000
  H   H9        1.0  0.6518132546899409  0.40495536412035454  0.1839194756715513  1.0000
  H   H10       1.0  0.3481828228358665  0.5950439628819169  0.8160808531686853  1.0000
  H   H11       1.0  0.8871746476271127  0.4692548102250314  0.8778653432942959  1.0000
  H   H12       1.0  0.1128242173655565  0.530748290772614  0.12213760333270325  1.0000
  H   H13       1.0  0.05396652146937699  0.2786180386360684  0.9787199298866367  1.0000
  H   H14       1.0  0.9460341981980489  0.721388836356944  0.021283043053415347  1.0000
  H   H15       1.0  0.012130877301082409  0.1605665199851103  0.18317882576880604  1.0000
  H   H16       1.0  0.9878712470092242  0.8394384680102149  0.8168227674423675  1.0000
  H   H17       1.0  0.4795687663726013  0.7565228462475633  0.9346431216452443  1.0000
  H   H18       1.0  0.5204301095295205  0.24347648075470835  0.06535626466430947  1.0000
  H   H19       1.0  0.4795074740142695  0.7486842578654987  0.7821167057421828  1.0000
  H   H20       1.0  0.5204904690957477  0.2513150691367727  0.21788183248401785  1.0000
  H   H21       1.0  0.6421954486517193  0.8766519493493307  0.739934247313144  1.0000
  H   H22       1.0  0.35780598970132627  0.12334832115178783  0.2600657462194391  1.0000
  H   H23       1.0  0.4949678883893397  0.9587250266457803  0.7894840397570276  1.0000
  H   H24       1.0  0.505032853096985  0.0412743003564913  0.2105152993288613  1.0000
  H   H25       1.0  0.7303956681907947  0.8199986178628862  0.9558197061327361  1.0000
  H   H26       1.0  0.2696078716718375  0.1800007091393923  0.044178690422477  1.0000
  H   H27       1.0  0.5903728872147197  0.9227607377739134  0.9931217533157194  1.0000
  H   H28       1.0  0.4096297198558148  0.0772385892283651  0.006877538546518701  1.0000
  H   H29       1.0  0.7730332359242594  0.0242120672918276  0.9587667675009894  1.0000
  H   H30       1.0  0.22696796650339482  0.975789146708131  0.041233032394934734  1.0000
  H   H31       1.0  0.791547819831635  0.9936278793200302  0.8135320639544972  1.0000
  H   H32       1.0  0.208454079462733  0.0063742781787681  0.1864683903881215  1.0000
  H   H33       1.0  0.5519062558390715  0.166108632184951  0.8947134756917023  1.0000
  H   H34       1.0  0.44809355285514846  0.8338906948173275  0.10528763039639695  1.0000
  H   H35       1.0  0.577047551571205  0.1377178085204491  0.7493334027416125  1.0000
  H   H36       1.0  0.42295225712302204  0.8622815184818293  0.25066683165130127  1.0000
  H   H37       1.0  0.748558435770228  0.2526642724813044  0.8792881407436894  1.0000
  H   H38       1.0  0.2514397323557276  0.747337885017501  0.12070979296069587  1.0000
  H   H39       1.0  0.7704743863285232  0.2276558921665526  0.7321705480367128  1.0000
  H   H40       1.0  0.2295237817974326  0.7723462653322528  0.26782825736285776  1.0000
  H   H41       1.0  0.753823970340882  0.6105522533532693  0.5201610266079085  1.0000
  H   H42       1.0  0.24617631020412034  0.3894451866513222  0.4798387233631444  1.0000
  H   H43       1.0  0.6477070119324895  0.8398904039556925  0.440291686669461  1.0000
  H   H44       1.0  0.3522946732553933  0.16010514905121204  0.559708426963077  1.0000
  H   H45       1.0  0.4157191259576081  0.9201330934980305  0.4843529248119934  1.0000
  H   H46       1.0  0.584285110771738  0.0798671770030879  0.5156469978850992  1.0000
  H   H47       1.0  0.3843919662528635  0.5605902156566175  0.647279276851165  1.0000
  H   H48       1.0  0.6156055050063786  0.4394109983433411  0.35271800240652595  1.0000
  H   H49       1.0  0.7063056934814752  0.8505453363821047  0.18639685262855468  1.0000
  H   H50       1.0  0.2936943511381358  0.1494530471213267  0.8136027037058325  1.0000
  H   H51       1.0  0.7354805751169167  0.6333151064232823  0.15431498720185027  1.0000
  H   H52       1.0  0.2645217960282267  0.3666851640778361  0.8456849827189001  1.0000
  H   H53       1.0  0.9183083463691446  0.4596905624603452  0.2594212962720803  1.0000
  H   H54       1.0  0.0816937997600675  0.5403068775442463  0.7405757913897445  1.0000
  H   H55       1.0  0.06123683889119748  0.5059050227552717  0.40035267804493907  1.0000
  H   H56       1.0  0.9387639025951274  0.4940943042470068  0.5996484044313277  1.0000
  C   C1        1.0  0.7405562560782001  0.378831768173967  0.13681590071044517  1.0000
  C   C2        1.0  0.2594437885414179  0.6211666153294645  0.8631853990143127  1.0000
  C   C3        1.0  0.7563667490407227  0.45235863295661016  0.024063665718358596  1.0000
  C   C4        1.0  0.24363352059482685  0.5476425810433483  0.9759396445701397  1.0000
  C   C5        1.0  0.871663378434029  0.4153206424021718  0.9653847259544647  1.0000
  C   C6        1.0  0.12834038644454893  0.5846815150966265  0.03461916794523747  1.0000
  C   C7        1.0  0.9640011803512252  0.3093940273739761  0.022505353857844995  1.0000
  C   C8        1.0  0.035998617433548936  0.6906090736236693  0.9774958257669579  1.0000
  C   C9        1.0  0.9420533279800765  0.2433075944619318  0.13540526662804098  1.0000
  C   C10       1.0  0.05795089783982386  0.7566964500345534  0.8645956013009481  1.0000
  C   C11       1.0  0.6546572376780659  0.6453928351039266  0.8742042225572033  1.0000
  C   C12       1.0  0.34532997286804346  0.3546083788960317  0.12580203338249163  1.0000
  C   C13       1.0  0.5388552433716214  0.7577871346962866  0.8547762648804422  1.0000
  C   C14       1.0  0.46114221697816754  0.24221785329904585  0.14522195960913817  1.0000
  C   C15       1.0  0.581067181117632  0.8815968267819727  0.8183161770766886  1.0000
  C   C16       1.0  0.418932627576595  0.11840250022030571  0.1816823139258544  1.0000
  C   C17       1.0  0.6554486287765257  0.9060730737496527  0.9190550350583918  1.0000
  C   C18       1.0  0.3445530455019039  0.0939262532526257  0.08094340872048629  1.0000
  C   C19       1.0  0.7197918223803583  0.0155705613949451  0.8812638105783748  1.0000
  C   C20       1.0  0.28020915503135757  0.9844278221084866  0.1187365938393653  1.0000
  C   C21       1.0  0.626832570397589  0.1425447485977998  0.8301768461172969  1.0000
  C   C22       1.0  0.37316700237124667  0.8574555219033186  0.1698240663341437  1.0000
  C   C23       1.0  0.6974443136894308  0.2481166080612809  0.7988742817750492  1.0000
  C   C24       1.0  0.3025543262873001  0.7518836624398376  0.20112578259303143  1.0000
  C   C25       1.0  0.6075644090960424  0.3768768385726631  0.75613040159471  1.0000
  C   C26       1.0  0.39243539959818463  0.6231224884296083  0.24386983279819666  1.0000
  C   C27       1.0  0.5788732579974436  0.5691524676507456  0.5975842843335142  1.0000
  C   C28       1.0  0.42112561790467834  0.4308468593515258  0.40241684536641015  1.0000
  C   C29       1.0  0.6520275361135859  0.6481912526702729  0.5335145217234895  1.0000
  C   C30       1.0  0.3479741381648438  0.3518080743320056  0.4664891522265008  1.0000
  C   C31       1.0  0.5939164902167207  0.7750758074831055  0.48957615547946176  1.0000
  C   C32       1.0  0.40608425126960424  0.2249235195191659  0.510424926996805  1.0000
  C   C33       1.0  0.4648453302901175  0.8207420949506385  0.5123080352945235  1.0000
  C   C34       1.0  0.535152848745291  0.1792562885527929  0.4876898248731506  1.0000
  C   C35       1.0  0.4473070297945299  0.6204137032532843  0.608038815963809  1.0000
  C   C36       1.0  0.5526920820329836  0.37958468025014724  0.3919581488968547  1.0000
  C   C37       1.0  0.8459160023549899  0.9352460579544443  0.32336617390454586  1.0000
  C   C38       1.0  0.15408404226462122  0.0647523255489872  0.6766333824298414  1.0000
  C   C39       1.0  0.865702516130824  0.80096352871891  0.31158526561178945  1.0000
  C   C40       1.0  0.1342954269792003  0.1990357982833615  0.6884158876999676  1.0000
  C   C41       1.0  0.7840997858832354  0.7741728790909974  0.23293551950990826  1.0000
  C   C42       1.0  0.21589815722678202  0.2258264479112739  0.7670665054970343  1.0000
  C   C43       1.0  0.8013858521608128  0.6521058293670947  0.21461069864506743  1.0000
  C   C44       1.0  0.19861582211761697  0.3478934976351837  0.7853912319145522  1.0000
  C   C45       1.0  0.9024847316802962  0.5553547405805404  0.2735276021206872  1.0000
  C   C46       1.0  0.09751834724101369  0.44464269942405116  0.7264720770148685  1.0000
  C   C47       1.0  0.9832411820907155  0.5810981064934637  0.3530026281568084  1.0000
  C   C48       1.0  0.016762357771924013  0.4189012205088076  0.6469957683984049  1.0000
  C   C49       1.0  0.964054384076512  0.702335820734966  0.37542744687647184  1.0000
  C   C50       1.0  0.03594332310811409  0.2976644497661525  0.6245717694082484  1.0000
  C   C51       1.0  0.045061601532097526  0.7219181392074887  0.4709407198784276  1.0000
  C   C52       1.0  0.9549361056525284  0.2780821312936297  0.5290593681014852  1.0000
  N   N1        1.0  0.8311846665793824  0.2783274409926335  0.19118165691984493  1.0000
  N   N2        1.0  0.1688188732832572  0.721671886009645  0.80881586794019  1.0000
  N   N3        1.0  0.6577397710207152  0.5591928938711278  0.9808616940829323  1.0000
  N   N4        1.0  0.3422612063910009  0.4408054896323037  0.0191395820300002  1.0000
  N   N5        1.0  0.6376358674454822  0.4430717738515782  0.6491490948766199  1.0000
  N   N6        1.0  0.3623623115899264  0.5569266096518604  0.3508505086814252  1.0000
  N   N7        1.0  0.3932846663461191  0.7439026057325792  0.568959628035401  1.0000
  N   N8        1.0  0.6067149064227166  0.2560976647685393  0.4310395410256617  1.0000
  O   O1        1.0  0.7399136246455029  0.633895358211312  0.7999294371609549  1.0000
  O   O2        1.0  0.2600934213696108  0.36610113829443247  0.20006598268800954  1.0000
  O   O3        1.0  0.5147719788473424  0.41887385904238533  0.8162510696973868  1.0000
  O   O4        1.0  0.4852257283372907  0.5811264114587331  0.18374640319697014  1.0000
  O   O5        1.0  0.7327095470677706  0.9957526387129577  0.33999229753811006  1.0000
  O   O6        1.0  0.2672909584931702  0.0042476317881608  0.6600094629966832  1.0000
  O   O7        1.0  0.9429699424343099  0.9839881516479636  0.3143867168972675  1.0000
  O   O8        1.0  0.057028933467805104  0.016011175354307704  0.6856117977171009  1.0000
  O   O9        1.0  0.9920818999388318  0.7946552954591013  0.540009591608495  1.0000
  O   O10       1.0  0.007917908755395307  0.20534403154317  0.45999238617478255  1.0000
  O   O11       1.0  0.1634472298697176  0.664853442225791  0.4819161709058263  1.0000
  O   O12       1.0  0.836550005464133  0.33514871527301443  0.5180826581055767  1.0000
  O   O13       1.0  0.8383567252711046  0.0215297000830859  0.5754894495427578  1.0000
  O   O14       1.0  0.16164261157234  0.9784715139168725  0.42451039757682446  1.0000
