data_image0
_chemical_formula_structural       Cu2Mo2H80C64N16O8
_chemical_formula_sum              "Cu2 Mo2 H80 C64 N16 O8"
_cell_length_a       12.016079067774719
_cell_length_b       13.715069228866877
_cell_length_c       15.723590187630359
_cell_angle_alpha    105.01732032529577
_cell_angle_beta     109.55059857795912
_cell_angle_gamma    102.27648123896613

_space_group_name_H-M_alt    "P 1"
_space_group_IT_number       1

loop_
  _space_group_symop_operation_xyz
  'x, y, z'

loop_
  _atom_site_type_symbol
  _atom_site_label
  _atom_site_symmetry_multiplicity
  _atom_site_fract_x
  _atom_site_fract_y
  _atom_site_fract_z
  _atom_site_occupancy
  Cu  Cu1       1.0  0.9999996581826806  0.9999982449493671  0.499999924461683  1.0000
  Cu  Cu2       1.0  0.9999980000724665  0.49999751051660707  0.49999940792043435  1.0000
  Mo  Mo1       1.0  0.7856823807978658  0.17336256049362928  0.4141886520681197  1.0000
  Mo  Mo2       1.0  0.21431853943401794  0.826638440815202  0.5858104007351271  1.0000
  H   H1        1.0  0.1508524587560061  0.9941888724215456  0.1005442053485552  1.0000
  H   H2        1.0  0.8491467034102841  0.0058121372329438  0.899453756652285  1.0000
  H   H3        1.0  0.07161497384052501  0.03892552592904509  0.1730050091711135  1.0000
  H   H4        1.0  0.9283835648120515  0.9610738849923304  0.8269924308479374  1.0000
  H   H5        1.0  0.8505201344249755  0.8249841887143742  0.8909612875241419  1.0000
  H   H6        1.0  0.1494787055348894  0.17501602011424913  0.10903768243734649  1.0000
  H   H7        1.0  0.01656499622091448  0.8652400161894815  0.928835948570011  1.0000
  H   H8        1.0  0.9834323490296127  0.13475859917333108  0.07116100229482202  1.0000
  H   H9        1.0  0.5759037331525435  0.3883766344244748  0.40090614079987563  1.0000
  H   H10       1.0  0.4240951499831239  0.6116259748525293  0.5990946529225238  1.0000
  H   H11       1.0  0.6597306851783529  0.4704045741610585  0.5252446963947007  1.0000
  H   H12       1.0  0.3402711010243634  0.5295964211508204  0.4747564879991869  1.0000
  H   H13       1.0  0.5648407381684635  0.31141022900999354  0.568907357875119  1.0000
  H   H14       1.0  0.4351607846779899  0.6885923681133476  0.4310947548130172  1.0000
  H   H15       1.0  0.5124766190138388  0.2466275438682928  0.4443803128960866  1.0000
  H   H16       1.0  0.4875228287853801  0.7533742615044972  0.5556210824745093  1.0000
  H   H17       1.0  0.09721524927335426  0.8011908810076491  0.23065766979003402  1.0000
  H   H18       1.0  0.9027850422200245  0.19880852083841913  0.7693414955071914  1.0000
  H   H19       1.0  0.09391893203098788  0.8563900489596817  0.39473925835621054  1.0000
  H   H20       1.0  0.9060792203402175  0.1436061577688434  0.6052599037656563  1.0000
  H   H21       1.0  0.472226241806233  0.15945144572319242  0.6026309458747007  1.0000
  H   H22       1.0  0.52777492088277  0.8405479508555657  0.39736971653739767  1.0000
  H   H23       1.0  0.8066556974711221  0.9796613516315557  0.3005971850159526  1.0000
  H   H24       1.0  0.19334214314322656  0.02033405573040879  0.6994017161150267  1.0000
  H   H25       1.0  0.027220896913689698  0.8024352294093614  0.07025613025831484  1.0000
  H   H26       1.0  0.9727809049633791  0.19756576809146503  0.9297431507082548  1.0000
  H   H27       1.0  0.8615904705537575  0.7671765437400494  0.01662184274407967  1.0000
  H   H28       1.0  0.13841070258481383  0.2328228542980142  0.9833775507164687  1.0000
  H   H29       1.0  0.796268152958362  0.9266317151175372  0.13433931525619872  1.0000
  H   H30       1.0  0.20373093468340647  0.0733668897106696  0.8656606298383591  1.0000
  H   H31       1.0  0.5375011136216729  0.48467805916491347  0.6289686292069304  1.0000
  H   H32       1.0  0.46250009224313965  0.5153237378622179  0.3710338569660791  1.0000
  H   H33       1.0  0.3727809589575982  0.4159698595878965  0.5695528552596939  1.0000
  H   H34       1.0  0.6272205586640708  0.5840327368057954  0.4304498919042102  1.0000
  H   H35       1.0  0.23783708571074413  0.26119054169264183  0.393190901874533  1.0000
  H   H36       1.0  0.7621617333499844  0.7388096642173779  0.6068106059900487  1.0000
  H   H37       1.0  0.27901503059896277  0.04533515755449  0.6002263171543942  1.0000
  H   H38       1.0  0.7209881587366738  0.9546626295967967  0.39977387329009423  1.0000
  H   H39       1.0  0.0514463222182187  0.14260385781855686  0.4005061540086459  1.0000
  H   H40       1.0  0.9485538947506525  0.8573931392012141  0.5994949943823045  1.0000
  H   H41       1.0  0.01634861148713902  0.29741765990274155  0.18416572906226486  1.0000
  H   H42       1.0  0.9836528681835048  0.7025825367722262  0.815834559864953  1.0000
  H   H43       1.0  0.12194682385480606  0.3851164334871697  0.972350680330109  1.0000
  H   H44       1.0  0.8780519899811381  0.6148837716931936  0.02765146201024055  1.0000
  H   H45       1.0  0.17122376510533144  0.5272584249980667  0.009065829042441517  1.0000
  H   H46       1.0  0.8287768120209904  0.4727417725662945  0.9909367696245466  1.0000
  H   H47       1.0  0.24900086629275356  0.5292070972418371  0.17782521288899739  1.0000
  H   H48       1.0  0.7510021133120048  0.47079469362859766  0.8221764606591079  1.0000
  H   H49       1.0  0.18627996287983004  0.38695943930333937  0.13054760478971159  1.0000
  H   H50       1.0  0.8137179797604901  0.6130407711443339  0.8694530404357721  1.0000
  H   H51       1.0  0.0953255496030536  0.6281796951773799  0.120511299883411  1.0000
  H   H52       1.0  0.9046741995034537  0.37182290810266483  0.8794916254296226  1.0000
  H   H53       1.0  0.989711473237989  0.5538928081736001  0.15631619159681523  1.0000
  H   H54       1.0  0.01028946927056037  0.4461105906650074  0.8436872228704357  1.0000
  H   H55       1.0  0.1755527522906064  0.6381606928917731  0.4564423937995627  1.0000
  H   H56       1.0  0.8244445511616546  0.3618379166338314  0.5435596328714425  1.0000
  H   H57       1.0  0.2357699633857422  0.6333698877753802  0.3202720036091761  1.0000
  H   H58       1.0  0.7642288556749863  0.3666303181346392  0.6797295042554053  1.0000
  H   H59       1.0  0.9588530261128413  0.3182198670111091  0.3276268883945548  1.0000
  H   H60       1.0  0.04114519033331726  0.6817787430844006  0.6723715595851373  1.0000
  H   H61       1.0  0.5260091417536047  0.6269554550120517  0.22517099796435508  1.0000
  H   H62       1.0  0.4739914183208214  0.3730423457521894  0.7748266045628609  1.0000
  H   H63       1.0  0.648249373209559  0.6966819522263137  0.20229453707252537  1.0000
  H   H64       1.0  0.351750660152348  0.3033190521608731  0.7977049220431809  1.0000
  H   H65       1.0  0.961697549537739  0.6961649713502848  0.47712170347012517  1.0000
  H   H66       1.0  0.038301269522989415  0.3038352345597346  0.5228798043944494  1.0000
  H   H67       1.0  0.8161824654231893  0.748230417909262  0.35632670196140737  1.0000
  H   H68       1.0  0.1838190142474545  0.25176977876570555  0.6436735869658107  1.0000
  H   H69       1.0  0.47494296382901524  0.6410015518133817  0.03327849291217431  1.0000
  H   H70       1.0  0.5250597301428003  0.3589994433387531  0.9667197472661754  1.0000
  H   H71       1.0  0.3727156920167262  0.5711487541426193  0.07404004314430784  1.0000
  H   H72       1.0  0.6272861255346954  0.4288522455471692  0.925957334394944  1.0000
  H   H73       1.0  0.7537301879056173  0.3752071812688341  0.3344095278084395  1.0000
  H   H74       1.0  0.2462674586521985  0.6247922320012405  0.6655889529988385  1.0000
  H   H75       1.0  0.5928313782555393  0.41500162335211127  0.2069078802256357  1.0000
  H   H76       1.0  0.4071689289121991  0.5849977806829044  0.7930893816442788  1.0000
  H   H77       1.0  0.7017338645023444  0.5008874354331496  0.10553274424081854  1.0000
  H   H78       1.0  0.2982691516759033  0.4991143605448442  0.8944644879768829  1.0000
  H   H79       1.0  0.6742086071759417  0.5997525563145416  0.05371409757643878  1.0000
  H   H80       1.0  0.3257926352623599  0.4002492458201558  0.946283947266167  1.0000
  C   C1        1.0  0.0656275306066547  0.014737998499484197  0.09883146198990288  1.0000
  C   C2        1.0  0.9343709975963538  0.9852614109625789  0.901167246980691  1.0000
  C   C3        1.0  0.9381480185248777  0.8922224758399577  0.9365225946532902  1.0000
  C   C4        1.0  0.06185202006181362  0.10777852927687802  0.0634762299866409  1.0000
  C   C5        1.0  0.5689229368428245  0.44359067591524587  0.46200983629850606  1.0000
  C   C6        1.0  0.4310777043584438  0.5564119250160997  0.5379920482263072  1.0000
  C   C7        1.0  0.4852784479750767  0.291601104192182  0.4987778088274766  1.0000
  C   C8        1.0  0.5147221880014072  0.7084014960095145  0.5012247101731119  1.0000
  C   C9        1.0  0.029028032446817183  0.8380353637657053  0.2423830960096751  1.0000
  C   C10       1.0  0.9709698670177008  0.16196244623358783  0.7576157254548974  1.0000
  C   C11       1.0  0.37057860834389805  0.2198090499157956  0.4974033298657757  1.0000
  C   C12       1.0  0.6294214041188723  0.7801919515527798  0.502598667153016  1.0000
  C   C13       1.0  0.02886933016335997  0.8686745176457008  0.3338812146070821  1.0000
  C   C14       1.0  0.9711288222078451  0.13132168908282438  0.6661179475147918  1.0000
  C   C15       1.0  0.3808228156479744  0.1580456923965414  0.556009580614294  1.0000
  C   C16       1.0  0.619176583750658  0.8419537117982187  0.4439906254711588  1.0000
  C   C17       1.0  0.8677409772287563  0.9371471704672771  0.2824468072921321  1.0000
  C   C18       1.0  0.132255981740407  0.06284824070269218  0.7175518656755243  1.0000
  C   C19       1.0  0.9481467781705037  0.832834195936094  0.06954715442107347  1.0000
  C   C20       1.0  0.0518538303045162  0.16716600600618386  0.930451637391286  1.0000
  C   C21       1.0  0.8624270942192567  0.9077102135991165  0.189196803067169  1.0000
  C   C22       1.0  0.1375708052452538  0.09228759640018323  0.8108020183974034  1.0000
  C   C23       1.0  0.45318825961414433  0.4589558788174698  0.5599037754375473  1.0000
  C   C24       1.0  0.5468132580075249  0.541046717576222  0.440098971726357  1.0000
  C   C25       1.0  0.946041926453454  0.8589587222171459  0.16815930095108914  1.0000
  C   C26       1.0  0.05395748339474691  0.14104068343691978  0.8318396361828204  1.0000
  C   C27       1.0  0.2500213797630835  0.21285528770921047  0.43863957051976127  1.0000
  C   C28       1.0  0.7499780091859735  0.787144115026244  0.5613619045172412  1.0000
  C   C29       1.0  0.2735334993531069  0.09413077268453655  0.5552041873124479  1.0000
  C   C30       1.0  0.7264682332242316  0.9058678207196564  0.4447964422720716  1.0000
  C   C31       1.0  0.14704280079428142  0.1476882445897658  0.4417235098441309  1.0000
  C   C32       1.0  0.8529577279314468  0.8523095517965654  0.5582778995377139  1.0000
  C   C33       1.0  0.054100458582283274  0.3743286383510309  0.24328366893414702  1.0000
  C   C34       1.0  0.9458995643300555  0.6256723645768502  0.756717059133102  1.0000
  C   C35       1.0  0.09205959265855061  0.4550923170057787  0.9906771141758239  1.0000
  C   C36       1.0  0.9079407263362925  0.544909483099701  0.00932577830963777  1.0000
  C   C37       1.0  0.1635844821888384  0.4601216738863625  0.1547192181994248  1.0000
  C   C38       1.0  0.8364155354987162  0.5398793283118691  0.8452821443435993  1.0000
  C   C39       1.0  0.01820016365711296  0.5520906808112399  0.0966068722477118  1.0000
  C   C40       1.0  0.9818004670945871  0.4479119186608004  0.9033962812286446  1.0000
  C   C41       1.0  0.14160679129110323  0.5641786164170739  0.3946421373326032  1.0000
  C   C42       1.0  0.8583896409655409  0.4358199983758269  0.605358392223536  1.0000
  C   C43       1.0  0.1754566213760924  0.5600945882586925  0.31782035299672623  1.0000
  C   C44       1.0  0.8245425094414925  0.43990641701788746  0.68218141585875  1.0000
  C   C45       1.0  0.022204810278672875  0.38382361700141127  0.32169227638997455  1.0000
  C   C46       1.0  0.9777942773631025  0.6161749878267884  0.6783076687045833  1.0000
  C   C47       1.0  0.5999722554994946  0.6166869488760581  0.2002536164212002  1.0000
  C   C48       1.0  0.4000301162659028  0.3833132454502105  0.7997456317177978  1.0000
  C   C49       1.0  0.8785012173798139  0.6363874594854834  0.41640499282568305  1.0000
  C   C50       1.0  0.12149787026196174  0.3636111453427231  0.5835949522688748  1.0000
  C   C51       1.0  0.13169100332285663  0.4641693299810611  0.24007810203726618  1.0000
  C   C52       1.0  0.8683087078326253  0.5358308735802594  0.7599223650390882  1.0000
  C   C53       1.0  0.7965786756830014  0.6644597889782062  0.34846731861448893  1.0000
  C   C54       1.0  0.2034228039876353  0.3355404076967615  0.6515329703127292  1.0000
  C   C55       1.0  0.438939339075354  0.5632608953709236  0.040600186395238234  1.0000
  C   C56       1.0  0.5610639247848043  0.4367392966066461  0.9593980209555324  1.0000
  C   C57       1.0  0.6913361621998746  0.585619650750054  0.2716268094689979  1.0000
  C   C58       1.0  0.30866470963140813  0.41437894938074743  0.7283710540491126  1.0000
  C   C59       1.0  0.7603064610662572  0.45629213360570015  0.3351515630461036  1.0000
  C   C60       1.0  0.23969294878193637  0.5437072720483654  0.6648473740878059  1.0000
  C   C61       1.0  0.6735405256149819  0.479380598199917  0.26578743551122835  1.0000
  C   C62       1.0  0.326460082860045  0.5206196037423609  0.7342113563011309  1.0000
  C   C63       1.0  0.6282084771910378  0.5235597509481877  0.05935109596902784  1.0000
  C   C64       1.0  0.3717945337624188  0.4764420443001568  0.9406467707244417  1.0000
  N   N1        1.0  0.15845884607571747  0.08979588340600489  0.4996392109927043  1.0000
  N   N2        1.0  0.841541693099579  0.9102019144396322  0.5003609294375977  1.0000
  N   N3        1.0  0.950749893456319  0.9189001126301264  0.3538866310577618  1.0000
  N   N4        1.0  0.04924737726970111  0.0810960979064035  0.6461123029007894  1.0000
  N   N5        1.0  0.9519678358524715  0.9230326036959297  0.036549192649715755  1.0000
  N   N6        1.0  0.0480315792205062  0.0769668026877923  0.9634491100084188  1.0000
  N   N7        1.0  0.46700056494324116  0.3869785749365631  0.48025813971711523  1.0000
  N   N8        1.0  0.5330003827900996  0.6130248246316939  0.519744640274368  1.0000
  N   N9        1.0  0.06532455128008509  0.4777911737576801  0.3957330463139214  1.0000
  N   N10       1.0  0.9346730848281696  0.5222082380530821  0.6042667034448995  1.0000
  N   N11       1.0  0.8608838047311026  0.5339527450988157  0.4093367413563129  1.0000
  N   N12       1.0  0.13911621818123623  0.46604825782906534  0.5906639867109362  1.0000
  N   N13       1.0  0.05918234131112138  0.45952045870151886  0.0726369947356957  1.0000
  N   N14       1.0  0.9408179776837219  0.540481341403968  0.9273658977497661  1.0000
  N   N15       1.0  0.5397260805306275  0.5369688948867477  0.10288079949385323  1.0000
  N   N16       1.0  0.46027542003915306  0.4630313047068241  0.8971169515302787  1.0000
  O   O1        1.0  0.9093545314998652  0.12218154977618668  0.4619881279127824  1.0000
  O   O2        1.0  0.09064331956405884  0.8778138590450836  0.538009504266647  1.0000
  O   O3        1.0  0.8573954588443727  0.302960505564343  0.4132613937936044  1.0000
  O   O4        1.0  0.14261459619856245  0.697043652371839  0.5867464667250599  1.0000
  O   O5        1.0  0.6829126170634583  0.0810100840021803  0.2977411912132554  1.0000
  O   O6        1.0  0.3170911507783886  0.9189981174429035  0.7022551347018859  1.0000
  O   O7        1.0  0.7092271519897582  0.19053524377176242  0.49275665822825937  1.0000
  O   O8        1.0  0.29077106968117766  0.8094633670533966  0.5072411552756648  1.0000
