data_image0
_chemical_formula_structural       Al2H3C24S6O12F3
_chemical_formula_sum              "Al2 H3 C24 S6 O12 F3"
_cell_length_a       3.9622630870059847
_cell_length_b       20.158729116600377
_cell_length_c       20.158762818964057
_cell_angle_alpha    120.00013047544132
_cell_angle_beta     89.99983938477979
_cell_angle_gamma    90.00017733293068

_space_group_name_H-M_alt    "P 1"
_space_group_IT_number       1

loop_
  _space_group_symop_operation_xyz
  'x, y, z'

loop_
  _atom_site_type_symbol
  _atom_site_label
  _atom_site_symmetry_multiplicity
  _atom_site_fract_x
  _atom_site_fract_y
  _atom_site_fract_z
  _atom_site_occupancy
  Al  Al1       1.0  0.0025267186443755996  0.5000001251011313  0.49999956688473896  1.0000
  Al  Al2       1.0  0.0023855185373448996  0.16666815396237672  0.8333333997106819  1.0000
  H   H1        1.0  0.4776231138942321  0.17755555559634223  0.6149023344517843  1.0000
  H   H2        1.0  0.4776225092950099  0.9373489125972225  0.8224428137179768  1.0000
  H   H3        1.0  0.477621010732264  0.3850982314987447  0.06265130686660565  1.0000
  C   C1        1.0  0.5019638750872276  0.4400116709089231  0.3825015560437847  1.0000
  C   C2        1.0  0.5019601304222832  0.4424907967389515  0.559988052166112  1.0000
  C   C3        1.0  0.5019589813264814  0.6174985300029546  0.5575085528972606  1.0000
  C   C4        1.0  0.501863567623637  0.2258648840259027  0.7749087688483911  1.0000
  C   C5        1.0  0.5018647254038484  0.049046401490684885  0.7741352027610803  1.0000
  C   C6        1.0  0.5018623316209768  0.2250925969580066  0.9509539133622127  1.0000
  C   C7        1.0  0.48925180158962434  0.42858165637059636  0.6797241964482906  1.0000
  C   C8        1.0  0.48734249991267126  0.23875541295842592  0.6552268851011718  1.0000
  C   C9        1.0  0.4982318380686407  0.399411192080386  0.6015733715490014  1.0000
  C   C10       1.0  0.49834347748825547  0.26918573857211925  0.7335326249628338  1.0000
  C   C11       1.0  0.5041718546963239  0.29737145993437497  0.6360877088726012  1.0000
  C   C12       1.0  0.5052698347469473  0.3713356117366046  0.7006463515829964  1.0000
  C   C13       1.0  0.48925506018254344  0.7511453432766828  0.5714170435436329  1.0000
  C   C14       1.0  0.48734196806377383  0.9164731798356274  0.7612429106423307  1.0000
  C   C15       1.0  0.4982417645923434  0.7021640895786235  0.6005873718794136  1.0000
  C   C16       1.0  0.4983387930521417  0.9643495696860427  0.7308142006133949  1.0000
  C   C17       1.0  0.504170540945914  0.8387178761168882  0.7026273283793072  1.0000
  C   C18       1.0  0.5052738898365946  0.8293126634801595  0.6286632114036051  1.0000
  C   C19       1.0  0.4892590196154032  0.32027521180618373  0.24885471308474644  1.0000
  C   C20       1.0  0.4873372213936448  0.34477510556303764  0.08352764649358589  1.0000
  C   C21       1.0  0.4982390002350385  0.3984255805660197  0.29783556823578994  1.0000
  C   C22       1.0  0.4983407610207635  0.2664686071600926  0.035651393549635174  1.0000
  C   C23       1.0  0.5041630691889908  0.36391486968901887  0.16128289251899017  1.0000
  C   C24       1.0  0.5052679316062977  0.2993541566710789  0.17068716443699827  1.0000
  S   S1        1.0  0.5186742763543677  0.2999791377463196  0.551928316283707  1.0000
  S   S2        1.0  0.5209269466600687  0.368704867142611  0.7845420882728218  1.0000
  S   S3        1.0  0.518674223414223  0.7519503281985322  0.7000189609207296  1.0000
  S   S4        1.0  0.5209272134444235  0.9158401215802455  0.6312943940587346  1.0000
  S   S5        1.0  0.518669976733406  0.44807289821757473  0.24805051229174768  1.0000
  S   S6        1.0  0.5209256039442353  0.21545852256424072  0.08416016041742579  1.0000
  O   O1        1.0  0.7377405357285837  0.5845680579595296  0.5733436132904401  1.0000
  O   O2        1.0  0.7377408960750601  0.48877769008189625  0.41543228759876166  1.0000
  O   O3        1.0  0.7377422687787742  0.42665590427121464  0.5112226367724588  1.0000
  O   O4        1.0  0.26864795044559026  0.5835794271643236  0.5084927821642395  1.0000
  O   O5        1.0  0.26864677104068596  0.49150746989245414  0.5750856564753022  1.0000
  O   O6        1.0  0.2686448393000731  0.4249136572525173  0.4164201271278144  1.0000
  O   O7        1.0  0.7374926797803951  0.17632981956090532  0.9173869900213134  1.0000
  O   O8        1.0  0.7374938366237629  0.24106044966554663  0.8236716297820407  1.0000
  O   O9        1.0  0.7374930599569752  0.08261468713203612  0.7589412067282026  1.0000
  O   O10       1.0  0.26924815092933585  0.24096379486937988  0.9173395831579539  1.0000
  O   O11       1.0  0.26924505409045446  0.08266095005222952  0.8236221780894225  1.0000
  O   O12       1.0  0.2692437084220245  0.1763789043416963  0.7590373104959552  1.0000
  F   F1        1.0  0.4816477852474748  0.504138110924309  0.7315688143518669  1.0000
  F   F2        1.0  0.4816435925892932  0.7274317947679592  0.49586141078423646  1.0000
  F   F3        1.0  0.4816567355017014  0.2684306589725338  0.27256638133727756  1.0000
