data_image0
_chemical_formula_structural       Zn8H80C80O26
_chemical_formula_sum              "Zn8 H80 C80 O26"
_cell_length_a       17.784660082323082
_cell_length_b       18.677281108651343
_cell_length_c       23.361731110802296
_cell_angle_alpha    66.58303907299806
_cell_angle_beta     69.80433515869035
_cell_angle_gamma    89.94356189801864

_space_group_name_H-M_alt    "P 1"
_space_group_IT_number       1

loop_
  _space_group_symop_operation_xyz
  'x, y, z'

loop_
  _atom_site_type_symbol
  _atom_site_label
  _atom_site_symmetry_multiplicity
  _atom_site_fract_x
  _atom_site_fract_y
  _atom_site_fract_z
  _atom_site_occupancy
  Zn  Zn1       1.0  0.1178766840966645  0.530664795293383  0.9422284453435242  1.0000
  Zn  Zn2       1.0  0.9717488630570088  0.5591383736446572  0.05181241834213069  1.0000
  Zn  Zn3       1.0  0.9758110002924099  0.389056688647905  0.05135538290299726  1.0000
  Zn  Zn4       1.0  0.9379795120949481  0.5300458010588969  0.9354923627763299  1.0000
  Zn  Zn5       1.0  0.38476526889669327  0.9769178049702562  0.050347767313027605  1.0000
  Zn  Zn6       1.0  0.5288841613431856  0.11538895982126719  0.9375102558891585  1.0000
  Zn  Zn7       1.0  0.5231423034244359  0.9459522387855798  0.9378177325710196  1.0000
  Zn  Zn8       1.0  0.5671875599910762  0.9723099442476408  0.05168877253545658  1.0000
  H   H1        1.0  0.4963299896789408  0.866901597644393  0.2643798104001221  1.0000
  H   H2        1.0  0.2610770463880456  0.8747294277880044  0.25278631227743625  1.0000
  H   H3        1.0  0.24949666052319236  0.6313298161659874  0.7381182796549696  1.0000
  H   H4        1.0  0.015051207441793208  0.636957410731455  0.7249413815249853  1.0000
  H   H5        1.0  0.6288770579990698  0.019518434886933295  0.7305993327338384  1.0000
  H   H6        1.0  0.6255181700627191  0.24833821495280967  0.7315638357666502  1.0000
  H   H7        1.0  0.8685970226882204  0.25618992588876915  0.25834091450280994  1.0000
  H   H8        1.0  0.8675797051288257  0.4852829268944133  0.2588513257529784  1.0000
  H   H9        1.0  0.19754848997372676  0.3014753707334847  0.9111966114919171  1.0000
  H   H10       1.0  0.12573858699244062  0.2299489872655016  0.9875101595524429  1.0000
  H   H11       1.0  0.21489888096287052  0.1381290047884889  0.9850064584311016  1.0000
  H   H12       1.0  0.28643098109270676  0.21033304390897456  0.908948681552822  1.0000
  H   H13       1.0  0.21491003871625483  0.1239757853743555  0.09619857186692117  1.0000
  H   H14       1.0  0.28691329296390217  0.18471363053971146  0.10039053565387952  1.0000
  H   H15       1.0  0.1266260510763146  0.21690501609058535  0.09886643093533112  1.0000
  H   H16       1.0  0.19990880731275243  0.2777321336797698  0.1016321336272341  1.0000
  H   H17       1.0  0.3020695329668045  0.39067694011123416  0.9144309681195681  1.0000
  H   H18       1.0  0.30304679817925273  0.382001050732768  0.9918463261556455  1.0000
  H   H19       1.0  0.39140693526512393  0.2893908926813181  0.9909111184904449  1.0000
  H   H20       1.0  0.3912222399013388  0.29898136922229657  0.9131117095688526  1.0000
  H   H21       1.0  0.8902817004216673  0.8001376106303367  0.9052770449973055  1.0000
  H   H22       1.0  0.8877683826670761  0.7871409056889149  0.9852101780498331  1.0000
  H   H23       1.0  0.7987794638911013  0.8793859987965362  0.986797548343077  1.0000
  H   H24       1.0  0.8015297406092544  0.8913903682838651  0.9070081930974823  1.0000
  H   H25       1.0  0.6956211809337844  0.7761664129061216  0.09232656847340337  1.0000
  H   H26       1.0  0.6232997277232997  0.714971796022766  0.08884297673846221  1.0000
  H   H27       1.0  0.7832420169520731  0.6826082643355987  0.09099519372932016  1.0000
  H   H28       1.0  0.7110889328011467  0.6229411230148968  0.08587698756517172  1.0000
  H   H29       1.0  0.788588752574043  0.7130248760397394  0.897342604452163  1.0000
  H   H30       1.0  0.715789640894819  0.6401365199161121  0.9707358673701875  1.0000
  H   H31       1.0  0.6262927572057323  0.7314703015122603  0.9735617416899701  1.0000
  H   H32       1.0  0.6987039198139657  0.8040355419801345  0.8998598529610932  1.0000
  H   H33       1.0  0.1617369724906581  0.792791376235165  0.9372201680685563  1.0000
  H   H34       1.0  0.24610629730870673  0.7567511073873732  0.8964841435897738  1.0000
  H   H35       1.0  0.3331278003823996  0.8524237385299712  0.8942722661679456  1.0000
  H   H36       1.0  0.2482362641509894  0.887106466040855  0.9359998593521155  1.0000
  H   H37       1.0  0.39369239888326757  0.7437899233501425  0.9612952584941257  1.0000
  H   H38       1.0  0.3528219316014046  0.7025948535984271  0.0500684792034462  1.0000
  H   H39       1.0  0.3054188279224236  0.6480497961123959  0.9643145423879887  1.0000
  H   H40       1.0  0.2645171215949631  0.6081547916138702  0.05309112020277242  1.0000
  H   H41       1.0  0.10152433028824957  0.7349499082737977  0.06523575419326735  1.0000
  H   H42       1.0  0.1428563426406271  0.6591900775101607  0.11263977376216866  1.0000
  H   H43       1.0  0.23160794058940581  0.7533072293205052  0.11048664653009152  1.0000
  H   H44       1.0  0.1895096053194081  0.8290188805434582  0.06379884355601459  1.0000
  H   H45       1.0  0.8990227628925853  0.26729818778897396  0.9299624890660142  1.0000
  H   H46       1.0  0.8543191649478955  0.3429440753839613  0.8847700303068395  1.0000
  H   H47       1.0  0.7684196146332171  0.24706232664862432  0.8861717922870868  1.0000
  H   H48       1.0  0.8122070046841829  0.17187543555530743  0.9328168448240673  1.0000
  H   H49       1.0  0.6485770521059847  0.29712559949768297  0.9460845702339499  1.0000
  H   H50       1.0  0.6059561987827494  0.2562292083428162  0.03478796296085566  1.0000
  H   H51       1.0  0.7352994763143172  0.3916650859169549  0.9459826240380097  1.0000
  H   H52       1.0  0.6929537934688881  0.34927066755373193  0.03471719896995744  1.0000
  H   H53       1.0  0.8394174802899386  0.20536818406238674  0.057870423526260636  1.0000
  H   H54       1.0  0.7562973364228397  0.2391598101353338  0.10124312327830153  1.0000
  H   H55       1.0  0.6671447150297071  0.14637607441797226  0.10239784868503686  1.0000
  H   H56       1.0  0.7503917169103218  0.1110972273375239  0.0607463157075329  1.0000
  H   H57       1.0  0.14454274157714767  0.7673819353836534  0.3696652521631592  1.0000
  H   H58       1.0  0.14724638664247178  0.7814664001104036  0.43982466185271113  1.0000
  H   H59       1.0  0.1440965354403403  0.8628391981153598  0.3681713954144429  1.0000
  H   H60       1.0  0.488783279062794  0.8534473140975933  0.3882052269342965  1.0000
  H   H61       1.0  0.41566622424302574  0.7711732426837442  0.45365296218832907  1.0000
  H   H62       1.0  0.49127613332669995  0.7598980109641927  0.38584560561547226  1.0000
  H   H63       1.0  0.022647837701931888  0.7463811143321522  0.6017756760020492  1.0000
  H   H64       1.0  0.09663045116759149  0.7304983041455556  0.5358490996855068  1.0000
  H   H65       1.0  0.021535855692356186  0.651027141380581  0.6030104076583171  1.0000
  H   H66       1.0  0.3673587931051898  0.6422432280895193  0.6207182594372469  1.0000
  H   H67       1.0  0.36423535941270313  0.7263583237821578  0.5509229460719638  1.0000
  H   H68       1.0  0.3668232759531521  0.7358510671760853  0.62296542785748  1.0000
  H   H69       1.0  0.7446597225264  0.3588229437976266  0.6146614116420254  1.0000
  H   H70       1.0  0.7287645299344873  0.358805316642389  0.5437244162148219  1.0000
  H   H71       1.0  0.6470127677541555  0.36517906116849014  0.6108745562408873  1.0000
  H   H72       1.0  0.6493420945118373  0.026438148681400295  0.6069383748642494  1.0000
  H   H73       1.0  0.7343612263588855  0.09779417593908588  0.542782048488384  1.0000
  H   H74       1.0  0.7445632921086583  0.0245220616413064  0.6154343096567986  1.0000
  H   H75       1.0  0.7622442549996082  0.4807427658556663  0.3772545913787795  1.0000
  H   H76       1.0  0.7768553049186905  0.40700352217913155  0.44754405849858603  1.0000
  H   H77       1.0  0.8601895223094261  0.47793884314554447  0.38063681047230347  1.0000
  H   H78       1.0  0.8608880653029518  0.1420506414539062  0.38173185905743173  1.0000
  H   H79       1.0  0.7743893854938905  0.14607150418679984  0.44671021442912473  1.0000
  H   H80       1.0  0.7650014964305994  0.1427809734535757  0.37446027751299493  1.0000
  C   C1        1.0  0.1414237832038197  0.6348030979548938  0.003673805056266043  1.0000
  C   C2        1.0  0.9078139606522697  0.41170598710400713  0.17655279933973833  1.0000
  C   C3        1.0  0.1443789802275219  0.36390689184447206  0.0013887554601340292  1.0000
  C   C4        1.0  0.8604186809598673  0.3656153272156216  0.9908467735968145  1.0000
  C   C5        1.0  0.08997078198236612  0.5926816667576559  0.8138947596984353  1.0000
  C   C6        1.0  0.8607172938820895  0.6431719179177761  0.9893398507881772  1.0000
  C   C7        1.0  0.36026022127882135  0.14175969706334976  0.9973466504631787  1.0000
  C   C8        1.0  0.5820890457953567  0.09290702056232902  0.8126913640908172  1.0000
  C   C9        1.0  0.3553814201553466  0.8629942474022557  0.9985649020116724  1.0000
  C   C10       1.0  0.6437875349372959  0.8649523075502826  0.9930405001544645  1.0000
  C   C11       1.0  0.4195702961264729  0.9125164319532358  0.17611395873368005  1.0000
  C   C12       1.0  0.6468979884937414  0.1392419752551035  0.9926490627437802  1.0000
  C   C13       1.0  0.3823934613007508  0.8745408501262514  0.25124094988554907  1.0000
  C   C14       1.0  0.4304847647534091  0.8544673691521041  0.2900021539483149  1.0000
  C   C15       1.0  0.3958086655464187  0.8194535870701217  0.3601611860426955  1.0000
  C   C16       1.0  0.3096020961232071  0.8034605096247773  0.3928069257812368  1.0000
  C   C17       1.0  0.26041406742999135  0.8235381067443512  0.3534520091718108  1.0000
  C   C18       1.0  0.2978587513834867  0.85882273932976  0.2835738917651014  1.0000
  C   C19       1.0  0.2725417807710214  0.7676876689280403  0.46429719785466983  1.0000
  C   C20       1.0  0.2397785575526683  0.7369562107234059  0.5258788389675503  1.0000
  C   C21       1.0  0.20228565278415536  0.7012762616289051  0.5973479069122832  1.0000
  C   C22       1.0  0.2510013181091253  0.6816924739371331  0.6371246468296264  1.0000
  C   C23       1.0  0.21308806053561818  0.6466813164288607  0.7070040740473403  1.0000
  C   C24       1.0  0.128504430075985  0.6304186881172312  0.7388458429482085  1.0000
  C   C25       1.0  0.08092148382043969  0.6498174180799693  0.6996536867338536  1.0000
  C   C26       1.0  0.11604294627974102  0.6849156848793497  0.6295581519902101  1.0000
  C   C27       1.0  0.622683794974826  0.130439129447538  0.7379998498565074  1.0000
  C   C28       1.0  0.6435506857419783  0.0835731188430557  0.7025233527328114  1.0000
  C   C29       1.0  0.6823919051280215  0.11726116756900501  0.6327717263906651  1.0000
  C   C30       1.0  0.7009146212527497  0.20114284597774204  0.5972936492629657  1.0000
  C   C31       1.0  0.6808435042771067  0.24909346877511504  0.6333584282951179  1.0000
  C   C32       1.0  0.6416664908398673  0.2127071951103474  0.7030767320730719  1.0000
  C   C33       1.0  0.738495017314179  0.23697442395535256  0.52595689864863  1.0000
  C   C34       1.0  0.7691668123168967  0.26796004090267894  0.4643146276592135  1.0000
  C   C35       1.0  0.8037964005231971  0.3036978627734895  0.3928604739701385  1.0000
  C   C36       1.0  0.8210827236863594  0.2556482134124352  0.35681530109400234  1.0000
  C   C37       1.0  0.8547314508324675  0.2919747200364142  0.28678342851821276  1.0000
  C   C38       1.0  0.8714242871392486  0.37428264170686987  0.2515212189081664  1.0000
  C   C39       1.0  0.8541842238600311  0.42121017531620447  0.2870994001660846  1.0000
  C   C40       1.0  0.8208529727433388  0.38759113450383603  0.35714931853596005  1.0000
  C   C41       1.0  0.18918899097641884  0.2593764507459895  0.9626425306134294  1.0000
  C   C42       1.0  0.24832047869993096  0.1984648713191532  0.9611474902970799  1.0000
  C   C43       1.0  0.30346077762543905  0.20266661859195517  0.9988836852120286  1.0000
  C   C44       1.0  0.2486007133521397  0.1841633051631248  0.07225366318401427  1.0000
  C   C45       1.0  0.1902299414705624  0.24565384760627748  0.07352121787283043  1.0000
  C   C46       1.0  0.20426145765534906  0.30554480618434343  0.0010622881545856002  1.0000
  C   C47       1.0  0.2925656503551153  0.3476755853468346  0.9657082527456567  1.0000
  C   C48       1.0  0.3512681868267508  0.2866987165356604  0.9648317367113537  1.0000
  C   C49       1.0  0.8494380419966348  0.7862053339355339  0.957282142413206  1.0000
  C   C50       1.0  0.7902875761049729  0.8472495011434659  0.9584392710298745  1.0000
  C   C51       1.0  0.7015161418552296  0.8046476527104501  0.9914145719800019  1.0000
  C   C52       1.0  0.6868749727249508  0.7442955376136311  0.06389258712945904  1.0000
  C   C53       1.0  0.745308074576613  0.682975342028662  0.06250449119695387  1.0000
  C   C54       1.0  0.8011597388201963  0.7019572379274592  0.9891464795032334  1.0000
  C   C55       1.0  0.7488898223744727  0.7002174918182078  0.9492830806500268  1.0000
  C   C56       1.0  0.6896391238353133  0.7607091944818122  0.9509468614910473  1.0000
  C   C57       1.0  0.21848452154040388  0.770929356670173  0.93985032070583  1.0000
  C   C58       1.0  0.276324329514715  0.8339544303730904  0.9386121928313217  1.0000
  C   C59       1.0  0.296518392771759  0.8001590968918392  0.0028491048279733755  1.0000
  C   C60       1.0  0.3367014972778009  0.7261774832143644  0.005288205890629188  1.0000
  C   C61       1.0  0.2782043518395625  0.6631595173249066  0.007139053636031218  1.0000
  C   C62       1.0  0.1982635993591941  0.6942569240029142  0.00533810025202539  1.0000
  C   C63       1.0  0.15889735949895112  0.7137841481027535  0.06610048068144893  1.0000
  C   C64       1.0  0.2173397577900644  0.7762428248989862  0.06484061529732099  1.0000
  C   C65       1.0  0.8408453287923762  0.2876023322731384  0.9303255496108849  1.0000
  C   C66       1.0  0.7831758338346335  0.2242469322579339  0.9315462527369435  1.0000
  C   C67       1.0  0.7034381207992624  0.1991107932492042  0.9942775583695539  1.0000
  C   C68       1.0  0.6636460893577975  0.2734976409150462  0.9912414337544677  1.0000
  C   C69       1.0  0.7213850068265089  0.335787905333376  0.9909939026130348  1.0000
  C   C70       1.0  0.801170859549913  0.30465847667992557  0.9930039767796263  1.0000
  C   C71       1.0  0.7823539757105351  0.2269581406906553  0.05660778508667621  1.0000
  C   C72       1.0  0.7237073906378201  0.1648809624865208  0.05778617924057972  1.0000
  C   C73       1.0  0.1692487906668418  0.8078031990349074  0.38485532887276  1.0000
  C   C74       1.0  0.45040598228522555  0.7997545636015957  0.39936291046955563  1.0000
  C   C75       1.0  0.061734184258504896  0.7044017720753998  0.5901151680877493  1.0000
  C   C76       1.0  0.34218087331777985  0.6975810066823911  0.6059002581099551  1.0000
  C   C77       1.0  0.701444178260708  0.33767112870734906  0.5984379832841356  1.0000
  C   C78       1.0  0.7039205287638809  0.0640586932964027  0.5972225630644274  1.0000
  C   C79       1.0  0.8039417023157541  0.4407778245982498  0.3928881745583583  1.0000
  C   C80       1.0  0.8042217124134227  0.1669374583705192  0.39216382392255866  1.0000
  O   O1        1.0  0.0005083570778551983  0.5028172967335749  0.9941134373180489  1.0000
  O   O2        1.0  0.1716120264355325  0.6064809312677825  0.9605403791525265  1.0000
  O   O3        1.0  0.918829701449951  0.4871583657320924  0.14746439770947725  1.0000
  O   O4        1.0  0.0704621748783154  0.33477644643864574  0.04000283966851733  1.0000
  O   O5        1.0  0.06780250917762488  0.6191293674838859  0.0442607446389474  1.0000
  O   O6        1.0  0.17179873549385857  0.43666813033031804  0.9624608034771216  1.0000
  O   O7        1.0  0.9252494316715314  0.3653868273502425  0.14733078606620606  1.0000
  O   O8        1.0  0.9002472988819434  0.3391901189876592  0.028917048899351996  1.0000
  O   O9        1.0  0.012427719799049415  0.5791694158195355  0.8402537540647688  1.0000
  O   O10       1.0  0.8669527042197913  0.43782218644221865  0.9505664738920531  1.0000
  O   O11       1.0  0.1380465794846799  0.576917922407084  0.8456886872619549  1.0000
  O   O12       1.0  0.9007930259938277  0.6358070572130927  0.026881342182477334  1.0000
  O   O13       1.0  0.866516941760402  0.6063810156047251  0.952633628309478  1.0000
  O   O14       1.0  0.5012916478477366  0.001889375830636202  0.9957136249657168  1.0000
  O   O15       1.0  0.32825636196718483  0.0689890869342733  0.0313303761703096  1.0000
  O   O16       1.0  0.5622741459473132  0.13910729762767457  0.8418472440897846  1.0000
  O   O17       1.0  0.42684590463538546  0.878723377196053  0.9539070589851593  1.0000
  O   O18       1.0  0.4353160419313582  0.16791579134867624  0.9618991349015577  1.0000
  O   O19       1.0  0.3292106840575144  0.8957130064433727  0.038716668412746416  1.0000
  O   O20       1.0  0.5705962973064729  0.017433473538886805  0.8417660710365811  1.0000
  O   O21       1.0  0.602414010503999  0.8762272152030021  0.9561756330591539  1.0000
  O   O22       1.0  0.4968897278135884  0.9219241857686528  0.14831792645551903  1.0000
  O   O23       1.0  0.6412879459759111  0.8994998042669095  0.03106346284040022  1.0000
  O   O24       1.0  0.370299850527438  0.9326393206718251  0.1456815011020822  1.0000
  O   O25       1.0  0.6181800962346103  0.1657266826200754  0.946350463880819  1.0000
  O   O26       1.0  0.6328410546647731  0.06799098012538  0.036631815499234215  1.0000
