data_image0
_chemical_formula_structural       H28Pb5C20N4Cl2O18
_chemical_formula_sum              "H28 Pb5 C20 N4 Cl2 O18"
_cell_length_a       7.590594088818201
_cell_length_b       8.905199863148184
_cell_length_c       13.348806335991094
_cell_angle_alpha    73.22220806345756
_cell_angle_beta     80.84412841666364
_cell_angle_gamma    75.23086104278264

_space_group_name_H-M_alt    "P 1"
_space_group_IT_number       1

loop_
  _space_group_symop_operation_xyz
  'x, y, z'

loop_
  _atom_site_type_symbol
  _atom_site_label
  _atom_site_symmetry_multiplicity
  _atom_site_fract_x
  _atom_site_fract_y
  _atom_site_fract_z
  _atom_site_occupancy
  H   H1        1.0  0.8232806457299163  0.2637885661258466  0.6997336069701345  1.0000
  H   H2        1.0  0.1766986088161245  0.7362423489690286  0.3002604699873003  1.0000
  H   H3        1.0  0.7007273775788503  0.4124506181856945  0.6003096688708849  1.0000
  H   H4        1.0  0.29922424206377946  0.5875467528756391  0.3996812828899791  1.0000
  H   H5        1.0  0.6911182254337404  0.5327849068236433  0.7483221389470811  1.0000
  H   H6        1.0  0.3088560814342856  0.4672184009642067  0.2516491995251826  1.0000
  H   H7        1.0  0.49023962307906976  0.5302972183472577  0.8353377083750926  1.0000
  H   H8        1.0  0.5097399421281492  0.46973851078315937  0.1646351913972595  1.0000
  H   H9        1.0  0.2014974944182908  0.9964040825722126  0.969394349154271  1.0000
  H   H10       1.0  0.7984735997773811  0.0036472648659966003  0.030649715702274687  1.0000
  H   H11       1.0  0.38288199646172677  0.9984186219162935  0.8669277906332266  1.0000
  H   H12       1.0  0.6170972549707728  0.0015786317218768999  0.13311169672375905  1.0000
  H   H13       1.0  0.6557232766152692  0.2479812433534576  0.8926845151099413  1.0000
  H   H14       1.0  0.34425120611511056  0.7520472837400902  0.1073134356843468  1.0000
  H   H15       1.0  0.588901250143088  0.11971737348726212  0.8334097862327281  1.0000
  H   H16       1.0  0.4110661770388686  0.8802907460137916  0.16660393505718932  1.0000
  H   H17       1.0  0.022729187852121385  0.268053801589943  0.9990055993105712  1.0000
  H   H18       1.0  0.9772337675051618  0.7319891873663736  0.00098384908708477  1.0000
  H   H19       1.0  0.9366840548323482  0.24907671725973302  0.8892352267658621  1.0000
  H   H20       1.0  0.06330157651335357  0.7508796746663577  0.11077782429885019  1.0000
  H   H21       1.0  0.38333958043828187  0.18038709785177082  0.995428181654077  1.0000
  H   H22       1.0  0.6166174190234269  0.8196631125157982  0.004580632131855136  1.0000
  H   H23       1.0  0.3224005479698988  0.38275067678463165  0.9248871112678926  1.0000
  H   H24       1.0  0.677566674861893  0.6172910938974215  0.0751066905413395  1.0000
  H   H25       1.0  0.6144548040076145  0.8233635577827699  0.7519300061966586  1.0000
  H   H26       1.0  0.3855208709492928  0.17669861890109934  0.24804041130018104  1.0000
  H   H27       1.0  0.7527483953648896  0.7323058405311331  0.8413097076598459  1.0000
  H   H28       1.0  0.2471248762932206  0.26770622092438867  0.15868381421952898  1.0000
  Pb  Pb1       1.0  0.22676839133944057  0.37244156667946277  0.666346317524976  1.0000
  Pb  Pb2       1.0  0.7733421367948664  0.6274579224588024  0.33365842842833615  1.0000
  Pb  Pb3       1.0  0.00795759561122363  0.8476509902180498  0.6716374289229918  1.0000
  Pb  Pb4       1.0  0.9923238943809096  0.1523715980143336  0.32850173804859384  1.0000
  Pb  Pb5       1.0  0.5005962566786836  0.9997892015854575  0.49993517701593493  1.0000
  C   C1        1.0  0.6513254249814293  0.1800073330130445  0.6259615069723522  1.0000
  C   C2        1.0  0.34869688006987315  0.8199573447013295  0.37404373567700583  1.0000
  C   C3        1.0  0.44509045888145227  0.6605882196132455  0.6780458877628063  1.0000
  C   C4        1.0  0.5548836471823291  0.33939466628199  0.32191889651227257  1.0000
  C   C5        1.0  0.6883166948288776  0.30889096006956157  0.6681617532707022  1.0000
  C   C6        1.0  0.31166589734571193  0.6911051001564703  0.33183197188073166  1.0000
  C   C7        1.0  0.5489356394280663  0.5183275803031933  0.7565741603013973  1.0000
  C   C8        1.0  0.4510377202875515  0.4816793326308898  0.24340331233538143  1.0000
  C   C9        1.0  0.2390635022076424  0.0541405119288356  0.8863318920798803  1.0000
  C   C10       1.0  0.7609206064435481  0.9458747472389889  0.11370746136947218  1.0000
  C   C11       1.0  0.9761258056715223  0.48212011382167935  0.8704723433534409  1.0000
  C   C12       1.0  0.023795115489093504  0.5178833802971428  0.12949915622921535  1.0000
  C   C13       1.0  0.5488391010944723  0.23963755370087367  0.8482175190607036  1.0000
  C   C14       1.0  0.45113519860289114  0.7603753510287206  0.151788687530896  1.0000
  C   C15       1.0  0.12916307275260414  0.012442257513392004  0.8158066538883375  1.0000
  C   C16       1.0  0.8708464887563491  0.9875452725339927  0.1842462679700461  1.0000
  C   C17       1.0  0.03715587551945985  0.29992125336355013  0.912466111782443  1.0000
  C   C18       1.0  0.9628012022674423  0.700091718285478  0.08752436529232448  1.0000
  C   C19       1.0  0.3668486461731105  0.26005670526796376  0.9152862634764531  1.0000
  C   C20       1.0  0.6331213260533844  0.739979044063972  0.08471744102608614  1.0000
  N   N1        1.0  0.5416868176261714  0.36083077192569146  0.7455801031935534  1.0000
  N   N2        1.0  0.4582896854804016  0.6391629058186299  0.2544153630837087  1.0000
  N   N3        1.0  0.22009131765632614  0.22793002739015833  0.8690426080110922  1.0000
  N   N4        1.0  0.779887122421762  0.7720876687715832  0.1309638141866571  1.0000
  Cl  Cl1       1.0  0.8377607228151189  0.7126189201848021  0.5414425271485754  1.0000
  Cl  Cl2       1.0  0.1621697496214694  0.2875671833613397  0.45849311590108494  1.0000
  O   O1        1.0  0.7797932478576755  0.09953743385814562  0.5771127364290364  1.0000
  O   O2        1.0  0.2202706841911349  0.9004367092814363  0.4228952733705852  1.0000
  O   O3        1.0  0.36067592499614415  0.6380918619338232  0.6110640996396624  1.0000
  O   O4        1.0  0.6392814415679808  0.3618502201178941  0.38892721047169937  1.0000
  O   O5        1.0  0.06828777011870099  0.551275522473162  0.7881239198569432  1.0000
  O   O6        1.0  0.9316539673244006  0.4487351038203685  0.21185711803099141  1.0000
  O   O7        1.0  0.0901443485057669  0.11325116953808843  0.7281603611715538  1.0000
  O   O8        1.0  0.9097572325897757  0.886735526699731  0.2719141963939364  1.0000
  O   O9        1.0  0.4461353056374546  0.8000275296313292  0.6868547382785337  1.0000
  O   O10       1.0  0.5538403871835057  0.1999769933925961  0.3130735444530685  1.0000
  O   O11       1.0  0.48738590978335594  0.15893393481166385  0.6391060616138301  1.0000
  O   O12       1.0  0.5126749358037157  0.8409669291386167  0.36089904124246885  1.0000
  O   O13       1.0  0.7122137554454754  0.8385719731701117  0.7881372271165432  1.0000
  O   O14       1.0  0.28772385987610954  0.16146508919224806  0.21186981834637916  1.0000
  O   O15       1.0  0.8338491624255224  0.5512928589555132  0.9157197846779395  1.0000
  O   O16       1.0  0.16603634233188555  0.4486927435891703  0.08423503497374439  1.0000
  O   O17       1.0  0.0881495827942515  0.876089244389469  0.846797381261929  1.0000
  O   O18       1.0  0.9119967013338197  0.12383173443841147  0.15323606016242758  1.0000
