data_image0
_chemical_formula_structural       La2H30C44O20
_chemical_formula_sum              "La2 H30 C44 O20"
_cell_length_a       8.782149158861278
_cell_length_b       9.953996343265194
_cell_length_c       13.048587298741268
_cell_angle_alpha    108.29291273356395
_cell_angle_beta     104.44400818922118
_cell_angle_gamma    93.64351561349119

_space_group_name_H-M_alt    "P 1"
_space_group_IT_number       1

loop_
  _space_group_symop_operation_xyz
  'x, y, z'

loop_
  _atom_site_type_symbol
  _atom_site_label
  _atom_site_symmetry_multiplicity
  _atom_site_fract_x
  _atom_site_fract_y
  _atom_site_fract_z
  _atom_site_occupancy
  La  La1       1.0  0.12223571485604622  0.7961974400439827  0.07937283329655997  1.0000
  La  La2       1.0  0.8777605590875838  0.2038010184880577  0.9206277565350618  1.0000
  H   H1        1.0  0.3191367427816516  0.8950203115218185  0.9367550828618716  1.0000
  H   H2        1.0  0.6808616869539321  0.10497703959179455  0.06324485629587431  1.0000
  H   H3        1.0  0.43394460119549183  0.8046390191476858  0.9857421898545055  1.0000
  H   H4        1.0  0.5660538242054045  0.19535834586081782  0.014258518191965684  1.0000
  H   H5        1.0  0.22224197608249344  0.9482926394838954  0.3881221366695796  1.0000
  H   H6        1.0  0.7777605938418547  0.05170779250833137  0.6118738549437878  1.0000
  H   H7        1.0  0.23272079153079517  0.5362164535931553  0.888589379210252  1.0000
  H   H8        1.0  0.7672756785595282  0.46378307570070365  0.11141149003346125  1.0000
  H   H9        1.0  0.18873825313692552  0.49005328394703446  0.9841825317018476  1.0000
  H   H10       1.0  0.8112607607040375  0.5099472933469257  0.01581901458089163  1.0000
  H   H11       1.0  0.815268380782463  0.8155179151462376  0.6229110706171355  1.0000
  H   H12       1.0  0.1847341501297421  0.18448264190003974  0.3770918409947441  1.0000
  H   H13       1.0  0.9552794175659829  0.7619346340387024  0.47588792258569873  1.0000
  H   H14       1.0  0.04471962102655169  0.2380723097325513  0.5241112569124979  1.0000
  H   H15       1.0  0.509514305413461  0.47337730740017026  0.33943852901222016  1.0000
  H   H16       1.0  0.49049251540922273  0.5266211042837197  0.6605669256955193  1.0000
  H   H17       1.0  0.7760670302656579  0.3347892776840665  0.6539944560813851  1.0000
  H   H18       1.0  0.2239423733198009  0.665210056945881  0.34600475566687544  1.0000
  H   H19       1.0  0.6721239313886612  0.6927953343415538  0.1397279235899375  1.0000
  H   H20       1.0  0.3278664735451001  0.3072031810947848  0.8602716721743349  1.0000
  H   H21       1.0  0.8364494957197836  0.12620123125533672  0.2209755192923097  1.0000
  H   H22       1.0  0.16354836599261796  0.8737992879450184  0.7790219837333437  1.0000
  H   H23       1.0  0.5177916185554992  0.23355921325322973  0.49396842082398956  1.0000
  H   H24       1.0  0.4822167857012687  0.7664412729938658  0.506034715966514  1.0000
  H   H25       1.0  0.6105629916110759  0.9450453173886967  0.20176503053905737  1.0000
  H   H26       1.0  0.38943487443600583  0.054955187916753793  0.7982317035978709  1.0000
  H   H27       1.0  0.8900540238922973  0.36576949943744796  0.3687869498484631  1.0000
  H   H28       1.0  0.10994540825013388  0.6342331360107848  0.6312105419261157  1.0000
  H   H29       1.0  0.4659601593074071  0.5272816890076298  0.16196951978916724  1.0000
  H   H30       1.0  0.5340390259286778  0.472713592570848  0.8380346726902059  1.0000
  C   C1        1.0  0.7351384515972866  0.6143505789262134  0.4210725519257678  1.0000
  C   C2        1.0  0.2648642754616048  0.38565104888188256  0.5789306390981963  1.0000
  C   C3        1.0  0.8319997666676783  0.5598570997640662  0.7455758295277448  1.0000
  C   C4        1.0  0.1680023892898816  0.44014126017900407  0.254423447705058  1.0000
  C   C5        1.0  0.8078509710852232  0.7091411616413267  0.6294669620955345  1.0000
  C   C6        1.0  0.19215391610029534  0.2908593448534518  0.3705348093658286  1.0000
  C   C7        1.0  0.8472567990967191  0.7093448546736735  0.40796989616742246  1.0000
  C   C8        1.0  0.1527396784064408  0.29066109667705586  0.5920316818466418  1.0000
  C   C9        1.0  0.8617392370435157  0.5284629120462793  0.8534040205172457  1.0000
  C   C10       1.0  0.1382644850093939  0.4715375780395661  0.14659601435320008  1.0000
  C   C11       1.0  0.7637773669306822  0.589571111354061  0.5301518698236832  1.0000
  C   C12       1.0  0.23622654693424044  0.4104304633884935  0.46984921334757956  1.0000
  C   C13       1.0  0.9000102665207804  0.8355351988473954  0.8343492819649468  1.0000
  C   C14       1.0  0.09998579827211529  0.16446223060751208  0.16565333512075137  1.0000
  C   C15       1.0  0.7078751770001688  0.31618067959105634  0.4419126317401946  1.0000
  C   C16       1.0  0.2921299106667234  0.6838208837706361  0.5580886502445422  1.0000
  C   C17       1.0  0.5984823746337398  0.5470535580684626  0.33063571246047724  1.0000
  C   C18       1.0  0.4015199557970917  0.45294594211089395  0.6693676886280286  1.0000
  C   C19       1.0  0.5487022748995968  0.08000166821689449  0.34509878265870236  1.0000
  C   C20       1.0  0.45130164330000605  0.9199998926307699  0.6549015316238422  1.0000
  C   C21       1.0  0.7840363153531201  0.44063415382768756  0.6464700018484208  1.0000
  C   C22       1.0  0.2159685805017659  0.5593663248772953  0.3535302318354993  1.0000
  C   C23       1.0  0.8425358726268968  0.6974771578142692  0.7366386726392448  1.0000
  C   C24       1.0  0.1574652970060058  0.3025223120612636  0.2633622229696257  1.0000
  C   C25       1.0  0.8267237477321102  0.7357021268125051  0.30658974660035193  1.0000
  C   C26       1.0  0.173267834081777  0.2643028131947318  0.6934115256364635  1.0000
  C   C27       1.0  0.40903557084011055  0.9765691847010057  0.3300756340415702  1.0000
  C   C28       1.0  0.5909695385001966  0.0234323091862265  0.6699218034995411  1.0000
  C   C29       1.0  0.6884701292454807  0.6701261565402276  0.21793695241039043  1.0000
  C   C30       1.0  0.3115220335956367  0.3298755736955953  0.7820644492923492  1.0000
  C   C31       1.0  0.762111924161168  0.1514885660520306  0.27790517977026497  1.0000
  C   C32       1.0  0.2378877041279495  0.848515140158021  0.7220925914164054  1.0000
  C   C33       1.0  0.7500806850245497  0.45176788834287146  0.5391974952181684  1.0000
  C   C34       1.0  0.24992655843428932  0.5482325676004008  0.46080313609269286  1.0000
  C   C35       1.0  0.5861698459387129  0.211848198679391  0.4330499438344191  1.0000
  C   C36       1.0  0.41383309460559997  0.7881544443109474  0.5669504510467432  1.0000
  C   C37       1.0  0.6385516718833983  0.04912498673934349  0.26815287093159407  1.0000
  C   C38       1.0  0.3614487292449553  0.9508765943559961  0.7318460780218102  1.0000
  C   C39       1.0  0.7940790896777301  0.2856694887013162  0.36221614592930235  1.0000
  C   C40       1.0  0.20592248525260004  0.7143320810131683  0.637783001837576  1.0000
  C   C41       1.0  0.9582615492549564  0.8281916559477905  0.2945507767312562  1.0000
  C   C42       1.0  0.04173280097741379  0.17180241975868424  0.7054423455287377  1.0000
  C   C43       1.0  0.5745152298535033  0.5765873105867457  0.23047906206435437  1.0000
  C   C44       1.0  0.4254835748367185  0.4234122376300744  0.7695245114724683  1.0000
  O   O1        1.0  0.0327722984967593  0.846758670854335  0.907353657839046  1.0000
  O   O2        1.0  0.967228093962234  0.1532429380307931  0.09264682889180881  1.0000
  O   O3        1.0  0.8800872776525922  0.40094925455824887  0.8465227926491748  1.0000
  O   O4        1.0  0.11991271384365382  0.5990502405930299  0.15347867303494667  1.0000
  O   O5        1.0  0.8631552625996192  0.6256108192797497  0.9461391582035359  1.0000
  O   O6        1.0  0.13684473756599402  0.37438864808174793  0.05386076970314239  1.0000
  O   O7        1.0  0.9454663516651891  0.8441998778092025  0.1992419418617074  1.0000
  O   O8        1.0  0.05452174034208209  0.1557985492296936  0.8007511051658367  1.0000
  O   O9        1.0  0.3642880373001844  0.8745972332662287  0.005654461422764611  1.0000
  O   O10       1.0  0.6357101962887128  0.12539904708556548  0.9943451983228896  1.0000
  O   O11       1.0  0.33822894974631607  0.012301078563318395  0.4091762066346262  1.0000
  O   O12       1.0  0.661773210545924  0.9876972674848545  0.5908223017094513  1.0000
  O   O13       1.0  0.8200739874600346  0.936516438805519  0.8346158668397478  1.0000
  O   O14       1.0  0.17991697682753477  0.0634789363338655  0.16538770283406729  1.0000
  O   O15       1.0  0.36108808842814  0.8648128741792075  0.24455460992751898  1.0000
  O   O16       1.0  0.6389146646388468  0.1351886702595237  0.7554439677641084  1.0000
  O   O17       1.0  0.22730806604976553  0.5743082289454263  0.9659861927692716  1.0000
  O   O18       1.0  0.7726886001872515  0.4256923711102516  0.03401495588652642  1.0000
  O   O19       1.0  0.07698426352761352  0.8814066145943754  0.3811948601684847  1.0000
  O   O20       1.0  0.923010107121641  0.11859384148429088  0.6187966641956919  1.0000
