data_image0
_chemical_formula_structural       Cu2H18C18N8O6
_chemical_formula_sum              "Cu2 H18 C18 N8 O6"
_cell_length_a       7.978033144832577
_cell_length_b       7.96033068860095
_cell_length_c       8.626446566644846
_cell_angle_alpha    102.3475887561589
_cell_angle_beta     105.89186342290667
_cell_angle_gamma    96.7901011082598

_space_group_name_H-M_alt    "P 1"
_space_group_IT_number       1

loop_
  _space_group_symop_operation_xyz
  'x, y, z'

loop_
  _atom_site_type_symbol
  _atom_site_label
  _atom_site_symmetry_multiplicity
  _atom_site_fract_x
  _atom_site_fract_y
  _atom_site_fract_z
  _atom_site_occupancy
  Cu  Cu1       1.0  0.018107808290430703  0.20415976270477643  0.13757328872348745  1.0000
  Cu  Cu2       1.0  0.9818921587883623  0.7958426247867295  0.862425604109532  1.0000
  H   H1        1.0  0.2004230278588679  0.5920972321126285  0.4058669282988987  1.0000
  H   H2        1.0  0.7995727607317988  0.4079038310239511  0.5941271862890075  1.0000
  H   H3        1.0  0.4306647577063032  0.8613953524687189  0.5392161273391665  1.0000
  H   H4        1.0  0.5693294913824187  0.1386044094648184  0.46077966791469277  1.0000
  H   H5        1.0  0.7183003578083459  0.8900654532379589  0.4785593571799679  1.0000
  H   H6        1.0  0.2816970929151026  0.1099304087752415  0.521443431180046  1.0000
  H   H7        1.0  0.7840999607814397  0.6491224220059307  0.2811723852397704  1.0000
  H   H8        1.0  0.21590059476402954  0.35087605995118315  0.7188316886216412  1.0000
  H   H9        1.0  0.7319686728080939  0.38404698621640415  0.04069556088160902  1.0000
  H   H10       1.0  0.2680325589055315  0.6159619612142961  0.9593084049063305  1.0000
  H   H11       1.0  0.5964799657091788  0.17264884104408654  0.94302115412097  1.0000
  H   H12       1.0  0.40352410240861764  0.8273614038199782  0.05698029447741244  1.0000
  H   H13       1.0  0.7388324483930974  0.055418517065206216  0.17796482734915736  1.0000
  H   H14       1.0  0.2611664579286526  0.9445851747842013  0.8220328961568127  1.0000
  H   H15       1.0  0.9426829664550597  0.43746724497695766  0.34670170217935237  1.0000
  H   H16       1.0  0.05732198436012233  0.5625338487699382  0.653301658951534  1.0000
  H   H17       1.0  0.9770675581327312  0.24024762375765352  0.4269055646609131  1.0000
  H   H18       1.0  0.022931432092669034  0.7597495394585821  0.5730955430331405  1.0000
  C   C1        1.0  0.3635216910105187  0.4676393279113001  0.2681258356774591  1.0000
  C   C2        1.0  0.6364751777007882  0.5323604440207461  0.7318729333624884  1.0000
  C   C3        1.0  0.3255202346272839  0.6038676816772934  0.37847402307092176  1.0000
  C   C4        1.0  0.6744761230664624  0.396129462771512  0.6215217874203987  1.0000
  C   C5        1.0  0.4548583849495387  0.7540301295524403  0.45104062131727557  1.0000
  C   C6        1.0  0.5451371868595344  0.2459696461492769  0.5489589842462832  1.0000
  C   C7        1.0  0.6186100971855738  0.7709838693516103  0.41596850271873337  1.0000
  C   C8        1.0  0.3813886568946359  0.2290119932763872  0.5840346108259948  1.0000
  C   C9        1.0  0.6581545140842734  0.6371744377967301  0.3075238573852842  1.0000
  C   C10       1.0  0.34184499361321485  0.36282535728721393  0.692481370565737  1.0000
  C   C11       1.0  0.5275733689887262  0.4851389259983208  0.23525094889564702  1.0000
  C   C12       1.0  0.4724276717561721  0.5148621659041979  0.7647514366810879  1.0000
  C   C13       1.0  0.660643811148347  0.26935710207803965  0.06299583900020161  1.0000
  C   C14       1.0  0.33935901815274866  0.7306466003846737  0.9370051834765716  1.0000
  C   C15       1.0  0.7843456371970419  0.1924478862193126  0.18415339512114304  1.0000
  C   C16       1.0  0.21565871869693606  0.807557108677514  0.8158436232730178  1.0000
  C   C17       1.0  0.9200360724797252  0.2951664723389841  0.32317482366466516  1.0000
  C   C18       1.0  0.07996548573200364  0.704830665800067  0.676819964148862  1.0000
  N   N1        1.0  0.26846526242115226  0.30306755223031695  0.17766460587265698  1.0000
  N   N2        1.0  0.7315315998356199  0.6969322153172754  0.8223330014589577  1.0000
  N   N3        1.0  0.3637077379941617  0.22042357036389862  0.09455188581771518  1.0000
  N   N4        1.0  0.6362930407874288  0.7795762034125316  0.9054478587763765  1.0000
  N   N5        1.0  0.519236365822529  0.3283633105681148  0.12722990794870975  1.0000
  N   N6        1.0  0.48076362061985384  0.6716390900767665  0.8727724700092947  1.0000
  N   N7        1.0  0.9733060111750903  0.1857370413481902  0.7939692447757166  1.0000
  N   N8        1.0  0.026691905384197426  0.8142614174570256  0.20602837017463566  1.0000
  O   O1        1.0  0.018855405500651998  0.347900434830116  0.8558876695558197  1.0000
  O   O2        1.0  0.9811234652702367  0.6521006378519942  0.14410686446408494  1.0000
  O   O3        1.0  0.9374605937220295  0.08699807119104008  0.8886975446826495  1.0000
  O   O4        1.0  0.06254310536738222  0.9129964713855829  0.11130306690996856  1.0000
  O   O5        1.0  0.9599024676157769  0.11310718569295372  0.6465540575407756  1.0000
  O   O6        1.0  0.04010954326817281  0.8868899749022817  0.3534479785837874  1.0000
