data_image0
_chemical_formula_structural       Zr6H28C52O42F2
_chemical_formula_sum              "Zr6 H28 C52 O42 F2"
_cell_length_a       14.78533253052768
_cell_length_b       14.77243140112239
_cell_length_c       14.778940247350128
_cell_angle_alpha    60.095116428202964
_cell_angle_beta     60.05049535437518
_cell_angle_gamma    60.11824271668228

_space_group_name_H-M_alt    "P 1"
_space_group_IT_number       1

loop_
  _space_group_symop_operation_xyz
  'x, y, z'

loop_
  _atom_site_type_symbol
  _atom_site_label
  _atom_site_symmetry_multiplicity
  _atom_site_fract_x
  _atom_site_fract_y
  _atom_site_fract_z
  _atom_site_occupancy
  Zr  Zr1       1.0  0.8796541692681997  0.8833627057736633  0.6197161265518221  1.0000
  Zr  Zr2       1.0  0.1204425865856535  0.11833748474013099  0.38463269101171704  1.0000
  Zr  Zr3       1.0  0.11864639105605335  0.8793650004037514  0.6238519346566919  1.0000
  Zr  Zr4       1.0  0.8812348951790695  0.12166909772977871  0.38170233430847844  1.0000
  Zr  Zr5       1.0  0.11937976087824592  0.8815377720728604  0.38331588907738734  1.0000
  Zr  Zr6       1.0  0.8811178490829901  0.1199034488025035  0.6215989419222866  1.0000
  H   H1        1.0  0.09370662990976804  0.7181007504377704  0.5946053153374322  1.0000
  H   H2        1.0  0.09769340652535162  0.09279727784971208  0.2201641843868458  1.0000
  H   H3        1.0  0.09434465861640012  0.09372753214039162  0.5982129449099673  1.0000
  H   H4        1.0  0.718250317731588  0.09613175412062698  0.5949818455058421  1.0000
  H   H5        1.0  0.14453126888007256  0.58677814207212  0.35792098712514797  1.0000
  H   H6        1.0  0.8310282553830319  0.4417517529355593  0.6167318764426782  1.0000
  H   H7        1.0  0.590708187344873  0.1405350050124667  0.9212983206427269  1.0000
  H   H8        1.0  0.41953266059901057  0.8507003925629487  0.09302358365969352  1.0000
  H   H9        1.0  0.8381855952496198  0.12547131281610271  0.10725560597527563  1.0000
  H   H10       1.0  0.13826217931348594  0.8497043240674528  0.9223230750433801  1.0000
  H   H11       1.0  0.5918531886610837  0.41912478949961235  0.3532459141576325  1.0000
  H   H12       1.0  0.41941226819522387  0.5929277287349277  0.6410809141020266  1.0000
  H   H13       1.0  0.9739803361816401  0.5782124660749516  0.7451241529243832  1.0000
  H   H14       1.0  0.960409165628299  0.4165677468386589  0.7506123763261314  1.0000
  H   H15       1.0  0.9773908581544007  0.24126608248866435  0.07978532383852877  1.0000
  H   H16       1.0  0.9617393539978353  0.2472306931494187  0.9194817075622339  1.0000
  H   H17       1.0  0.5941287295271919  0.8503650802835666  0.6391500059747344  1.0000
  H   H18       1.0  0.42039740763902955  0.13609404802386396  0.3512414256849469  1.0000
  H   H19       1.0  0.15569662573429352  0.34879819536135404  0.3469238931619928  1.0000
  H   H20       1.0  0.8209093139636605  0.6793095673362758  0.6283181727810077  1.0000
  H   H21       1.0  0.3536684195420747  0.15013193948457368  0.15969947268455803  1.0000
  H   H22       1.0  0.6557107552596829  0.841961777586732  0.8537101688868561  1.0000
  H   H23       1.0  0.8286546748519611  0.13650634860450575  0.868188781170744  1.0000
  H   H24       1.0  0.1501490799219738  0.8407010536128396  0.1591511768445884  1.0000
  H   H25       1.0  0.3528493302410709  0.6558554989827311  0.3433196920535124  1.0000
  H   H26       1.0  0.6574525141961658  0.3551284207538218  0.6517313583623549  1.0000
  H   H27       1.0  0.35625384889503686  0.8371500330719992  0.6522480934319931  1.0000
  H   H28       1.0  0.6572016080435573  0.15042962871048363  0.3394176256434279  1.0000
  C   C1        1.0  0.9929107048077911  0.7036119805721056  0.49301935401738467  1.0000
  C   C2        1.0  0.3102040018046564  0.995311850785413  0.20159102349500568  1.0000
  C   C3        1.0  0.9942856168142458  0.31192558108440227  0.4961842353644813  1.0000
  C   C4        1.0  0.6972508690911499  0.9988258166145696  0.8100114994395686  1.0000
  C   C5        1.0  0.9938611792360703  0.7008577167118233  0.808323685728148  1.0000
  C   C6        1.0  0.6989169937719811  0.997787731129868  0.4964649888321517  1.0000
  C   C7        1.0  0.9996180179446839  0.3059105009181806  0.20157902184369195  1.0000
  C   C8        1.0  0.31002197676686194  0.9943214622760621  0.49943552348406683  1.0000
  C   C9        1.0  0.3084936961749206  0.6980767217472276  0.49951893913203815  1.0000
  C   C10       1.0  0.9932524907815081  0.9925046705702413  0.8151769458688137  1.0000
  C   C11       1.0  0.6991608943727315  0.3104799596616274  0.49814648619048546  1.0000
  C   C12       1.0  0.9945168901281533  0.994964366090393  0.2025933988912244  1.0000
  C   C13       1.0  0.9905518695742402  0.4174338690793818  0.4880279811417766  1.0000
  C   C14       1.0  0.9870769050482554  0.6087341222027048  0.48917926009005447  1.0000
  C   C15       1.0  0.07925462774672107  0.46044540627212865  0.4115664056993965  1.0000
  C   C16       1.0  0.8957489713086916  0.568928349759034  0.5618994256982717  1.0000
  C   C17       1.0  0.07575029981746431  0.5551534794090642  0.41435160657958653  1.0000
  C   C18       1.0  0.899694080102961  0.4735812397298175  0.5600616278176034  1.0000
  C   C19       1.0  0.4106081317328648  0.9962503996494758  0.10256468024563516  1.0000
  C   C20       1.0  0.5992928155879367  0.9953525745598597  0.9114397010088809  1.0000
  C   C21       1.0  0.4596120828317893  0.0794762869262868  0.053689716710444195  1.0000
  C   C22       1.0  0.5506017540695178  0.9118361047235197  0.9605822503979768  1.0000
  C   C23       1.0  0.5532237685969931  0.07703792045978734  0.9589907810807861  1.0000
  C   C24       1.0  0.4570804397062531  0.9141501331814439  0.0553789159514012  1.0000
  C   C25       1.0  0.9876765235544552  0.989455920237944  0.9192414777820591  1.0000
  C   C26       1.0  0.9909855152339732  0.9878840500321144  0.10836460096334109  1.0000
  C   C27       1.0  0.9002000564921885  0.0674164602737763  0.973165958783987  1.0000
  C   C28       1.0  0.07600919395817124  0.9071018281797052  0.057067830402239436  1.0000
  C   C29       1.0  0.9038211107643548  0.06503854645175977  0.0667567657105792  1.0000
  C   C30       1.0  0.07261101658011886  0.9099350801974281  0.96304444323809  1.0000
  C   C31       1.0  0.4101161317443455  0.6003755733423048  0.49623451226572274  1.0000
  C   C32       1.0  0.6006318062919576  0.4114022522738167  0.49841765465690485  1.0000
  C   C33       1.0  0.45956326940869735  0.5511795326351104  0.4131045527568631  1.0000
  C   C34       1.0  0.5517856900479431  0.4611172781493165  0.5809974116928275  1.0000
  C   C35       1.0  0.5540008527209326  0.4574707310918739  0.416089781998828  1.0000
  C   C36       1.0  0.45733498419215846  0.554814316652873  0.5780395516699954  1.0000
  C   C37       1.0  0.9951958904202839  0.5975515832730735  0.9069531392698171  1.0000
  C   C38       1.0  0.9857860280686592  0.50427002967303  0.9094482573579583  1.0000
  C   C39       1.0  0.007637299067866164  0.5913439156081849  0.996659487396741  1.0000
  C   C40       1.0  0.9769716289844583  0.5043339910988109  0.8180087864466189  1.0000
  C   C41       1.0  0.9687947234522484  0.4137351281580523  0.8213074179463291  1.0000
  C   C42       1.0  0.9996513228731769  0.40423229660922994  0.09796701913567317  1.0000
  C   C43       1.0  0.010059547966655232  0.4953619428631696  0.09130196758827228  1.0000
  C   C44       1.0  0.9874760937541469  0.40659028401839237  0.00625624944542852  1.0000
  C   C45       1.0  0.9791648753791479  0.31474606042178976  0.00641164099519639  1.0000
  C   C46       1.0  0.9696582948787907  0.31832902594727824  0.916384473860937  1.0000
  C   C47       1.0  0.41221805087693075  0.9911341735144814  0.49765694155195217  1.0000
  C   C48       1.0  0.6017206680427096  0.9959850723487519  0.49333978199074136  1.0000
  C   C49       1.0  0.46228207146671696  0.9083028740148649  0.5798930754125353  1.0000
  C   C50       1.0  0.5528223668094866  0.07766280818645298  0.40997284615824736  1.0000
  C   C51       1.0  0.5561699077929632  0.9127324704936726  0.5759798013626778  1.0000
  C   C52       1.0  0.45875527133890864  0.07342429559088966  0.41406182135437325  1.0000
  O   O1        1.0  0.9166769374363567  0.7429412022014288  0.5722378913617663  1.0000
  O   O2        1.0  0.2683314928931253  0.07334498229734261  0.2424335363314256  1.0000
  O   O3        1.0  0.07549355134398886  0.2665614474848964  0.4229652630427411  1.0000
  O   O4        1.0  0.736926824610947  0.9230219723469588  0.7670167243677498  1.0000
  O   O5        1.0  0.071885831875633  0.738354570257073  0.7693419406893443  1.0000
  O   O6        1.0  0.7386312716474567  0.07672481058641974  0.4204408999994485  1.0000
  O   O7        1.0  0.9214363665626166  0.2674390512143033  0.24343670868949369  1.0000
  O   O8        1.0  0.2673832275656095  0.9183274855555723  0.5785158654701804  1.0000
  O   O9        1.0  0.266120117152255  0.7378909268010431  0.4231506010359781  1.0000
  O   O10       1.0  0.9177548840341315  0.07215091715357849  0.7722286838093525  1.0000
  O   O11       1.0  0.739286570458532  0.2683312286913022  0.5767498791380775  1.0000
  O   O12       1.0  0.0748405779660785  0.9207464344332834  0.24069560505864748  1.0000
  O   O13       1.0  0.071808085785058  0.9198249309808301  0.771214553739803  1.0000
  O   O14       1.0  0.7392654592659439  0.2683805459505423  0.423310912182899  1.0000
  O   O15       1.0  0.9215200943998881  0.07383078117363337  0.24051493870295812  1.0000
  O   O16       1.0  0.265916255693483  0.7380097183184092  0.5766150538103147  1.0000
  O   O17       1.0  0.916525663651782  0.7424413907471248  0.7689817218162034  1.0000
  O   O18       1.0  0.26721934147600723  0.07174960057702859  0.42530511214902583  1.0000
  O   O19       1.0  0.07722917451630454  0.26671620240664845  0.23954349616298742  1.0000
  O   O20       1.0  0.7384741861319881  0.9236425306745202  0.5738461247203546  1.0000
  O   O21       1.0  0.737652222215786  0.07548631475112443  0.7682828969223082  1.0000
  O   O22       1.0  0.07256858703464537  0.7406186289962803  0.42156478681253173  1.0000
  O   O23       1.0  0.26789441421886556  0.92045217296873  0.24175166500499057  1.0000
  O   O24       1.0  0.9207267460489066  0.2687871478820652  0.5747875320779984  1.0000
  O   O25       1.0  0.7985023019994983  0.06928760109377674  0.568246804703378  1.0000
  O   O26       1.0  0.0673849187294663  0.06689399729077652  0.5715726536989152  1.0000
  O   O27       1.0  0.0686973555345318  0.067625388402611  0.30043116853558866  1.0000
  O   O28       1.0  0.06596376318645261  0.7983738151813283  0.5695574744479687  1.0000
  O   O29       1.0  0.14889514166561893  0.9498046524683305  0.4543140908076355  1.0000
  O   O30       1.0  0.9505747694717431  0.9522639015466294  0.45134081357623046  1.0000
  O   O31       1.0  0.9516840781250622  0.14904121178293642  0.4529374498633346  1.0000
  O   O32       1.0  0.9501699061914337  0.9511856724418025  0.6506178402415513  1.0000
  O   O33       1.0  0.16849677542062852  0.41320053737575785  0.33771015930884124  1.0000
  O   O34       1.0  0.8054444655185407  0.6182654710630897  0.6340264371636123  1.0000
  O   O35       1.0  0.41989061511765163  0.16160491433559085  0.09382061237568003  1.0000
  O   O36       1.0  0.5900307437292156  0.8300022775866438  0.9201341590192273  1.0000
  O   O37       1.0  0.8141940693288134  0.14533318219066152  0.937056334979502  1.0000
  O   O38       1.0  0.16138362289198227  0.82844060592501  0.09352009008506455  1.0000
  O   O39       1.0  0.4193605683564743  0.5902945837818833  0.3312115856479069  1.0000
  O   O40       1.0  0.5920705824629948  0.42177767329124555  0.6629140359843505  1.0000
  O   O41       1.0  0.4230685149881806  0.8256657886339837  0.6624732418069501  1.0000
  O   O42       1.0  0.5923594101323387  0.16006526484854788  0.32713614637130217  1.0000
  F   F1        1.0  0.018195130024295767  0.498211971423423  0.1768720412631097  1.0000
  F   F2        1.0  0.01375172108984666  0.678139277187462  0.9994217069592254  1.0000
