data_image0
_chemical_formula_structural       Zn2H24C12S6N4O16
_chemical_formula_sum              "Zn2 H24 C12 S6 N4 O16"
_cell_length_a       4.944981279205648
_cell_length_b       9.919041794361048
_cell_length_c       13.886090399184491
_cell_angle_alpha    90.00091343572778
_cell_angle_beta     95.21722461468917
_cell_angle_gamma    89.99959709288957

_space_group_name_H-M_alt    "P 1"
_space_group_IT_number       1

loop_
  _space_group_symop_operation_xyz
  'x, y, z'

loop_
  _atom_site_type_symbol
  _atom_site_label
  _atom_site_symmetry_multiplicity
  _atom_site_fract_x
  _atom_site_fract_y
  _atom_site_fract_z
  _atom_site_occupancy
  Zn  Zn1       1.0  0.4761821783081714  0.0365324407126977  0.6274325279515692  1.0000
  Zn  Zn2       1.0  0.523826865852435  0.5365476626974442  0.3725601803632016  1.0000
  H   H1        1.0  0.34561059596396865  0.8485801010915068  0.7397618372272914  1.0000
  H   H2        1.0  0.6543938194237457  0.3485895191092965  0.2602322529028739  1.0000
  H   H3        1.0  0.37230035741455236  0.7720352783749573  0.6388477396317352  1.0000
  H   H4        1.0  0.6276986212596967  0.2720510066610302  0.36115031311591383  1.0000
  H   H5        1.0  0.2543416564042502  0.1956101789615659  0.7599123930626203  1.0000
  H   H6        1.0  0.7456640857863519  0.6956276726566343  0.2400943335149534  1.0000
  H   H7        1.0  0.04578519826286251  0.0710056497366338  0.7421199686111422  1.0000
  H   H8        1.0  0.954239853901122  0.5710286949470386  0.2578859002046911  1.0000
  H   H9        1.0  0.6345410753738251  0.28834121923922845  0.6754471878063767  1.0000
  H   H10       1.0  0.36547405058754384  0.7883631359141318  0.3245609344682093  1.0000
  H   H11       1.0  0.8772426645593756  0.20016351249763886  0.6445785224098158  1.0000
  H   H12       1.0  0.12277321323659153  0.7001861063901841  0.355433622187796  1.0000
  H   H13       1.0  0.9218904616307172  0.8869048613035772  0.6170784364662791  1.0000
  H   H14       1.0  0.0781136242192204  0.38691833245182033  0.38291321577563747  1.0000
  H   H15       1.0  0.9045664124448012  0.9807164409488323  0.5288964685312576  1.0000
  H   H16       1.0  0.09544300128589363  0.4807226575538903  0.4711000635411934  1.0000
  H   H17       1.0  0.8799536230425816  0.09305125564697647  0.35421654276250786  1.0000
  H   H18       1.0  0.12003668204495453  0.5930246414930094  0.6457776765019145  1.0000
  H   H19       1.0  0.05027042231866831  0.9438476158110941  0.3289289027886326  1.0000
  H   H20       1.0  0.9497108710725399  0.44382528483974676  0.671067016811129  1.0000
  H   H21       1.0  0.9472418248595177  0.03951210055233641  0.9584205948921888  1.0000
  H   H22       1.0  0.05276113704906751  0.5395242234541869  0.041580596482702986  1.0000
  H   H23       1.0  0.12231115923559341  0.9152812560581297  0.8983604236541393  1.0000
  H   H24       1.0  0.8776785281235605  0.4153054853625021  0.10164406778693547  1.0000
  C   C1        1.0  0.2929051071097462  0.0806961749827337  0.4215606915808009  1.0000
  C   C2        1.0  0.7070914096747246  0.5806807638553835  0.5784379005619085  1.0000
  C   C3        1.0  0.07739010103667712  0.053033782005236695  0.3375636377171673  1.0000
  C   C4        1.0  0.9225903856776939  0.5530101910549517  0.662430515504276  1.0000
  C   C5        1.0  0.36899164130770157  0.012826011657601603  0.18288618200774204  1.0000
  C   C6        1.0  0.6310054444444901  0.5128089847726757  0.8171130660150536  1.0000
  C   C7        1.0  0.6777699882653323  0.8862757097381644  0.09374985175160327  1.0000
  C   C8        1.0  0.3222138507841379  0.38627417572268286  0.9062548302558466  1.0000
  C   C9        1.0  0.9272900847446411  0.9374463280300132  0.92753362694431  1.0000
  C   C10       1.0  0.07270550782278921  0.43746425121472754  0.07247059466851619  1.0000
  C   C11       1.0  0.7005869835870514  0.9346180258193967  0.8449494368117311  1.0000
  C   C12       1.0  0.2994593445287209  0.4346246669988503  0.1550426859916243  1.0000
  S   S1        1.0  0.1436484863060912  0.1276716912666984  0.22409590145159794  1.0000
  S   S2        1.0  0.8563598045831571  0.6276447649832803  0.7758985804349549  1.0000
  S   S3        1.0  0.5186655542434196  0.041974538236623  0.07558245015168548  1.0000
  S   S4        1.0  0.4813251947059528  0.5419705260492834  0.9244162204533095  1.0000
  S   S5        1.0  0.910847446693062  0.8159269349476546  0.022656787301166006  1.0000
  S   S6        1.0  0.0891390383438022  0.3159359740618939  0.9773550688784238  1.0000
  N   N1        1.0  0.44095302038166306  0.8967897101178436  0.22399206658873536  1.0000
  N   N2        1.0  0.5590286979745402  0.3967662366441828  0.7760119518589261  1.0000
  N   N3        1.0  0.6159335904454295  0.8253907691909673  0.17304513607117394  1.0000
  N   N4        1.0  0.3840466954510689  0.3253771916621559  0.8269594327916888  1.0000
  O   O1        1.0  0.2157447404346584  0.0450345009741184  0.5038127677904214  1.0000
  O   O2        1.0  0.784258164222841  0.545032122326802  0.49618560639071047  1.0000
  O   O3        1.0  0.5187702406580215  0.13006524782171877  0.4085795763907852  1.0000
  O   O4        1.0  0.48119947935451535  0.6300369531107889  0.5914216257382134  1.0000
  O   O5        1.0  0.487079637518626  0.8672975378707973  0.8524948371220588  1.0000
  O   O6        1.0  0.5129104337007534  0.36731622347568305  0.14750549840406524  1.0000
  O   O7        1.0  0.7530748352465937  0.0040978109700873  0.7716068821346481  1.0000
  O   O8        1.0  0.24691624222956687  0.5041292540102302  0.22839495200360455  1.0000
  O   O9        1.0  0.28437370800122613  0.8509597357923084  0.6684847548071173  1.0000
  O   O10       1.0  0.7156388275204225  0.35096840859871037  0.33151394320535826  1.0000
  O   O11       1.0  0.17690094437338644  0.1290459137817308  0.7096578795558128  1.0000
  O   O12       1.0  0.8231134642402369  0.6290631510151314  0.2903461757729885  1.0000
  O   O13       1.0  0.6833282400890681  0.22170612659235897  0.6261166462345498  1.0000
  O   O14       1.0  0.3166914973049018  0.7217262827727706  0.3738901149616253  1.0000
  O   O15       1.0  0.78562374408574  0.9284802289355337  0.5697150884922519  1.0000
  O   O16       1.0  0.2143820015454949  0.4285011988977274  0.430270627010337  1.0000
