data_image0
_chemical_formula_structural       Dy2CuH28C20O22
_chemical_formula_sum              "Dy2 Cu1 H28 C20 O22"
_cell_length_a       6.965167374112479
_cell_length_b       10.017115816392929
_cell_length_c       11.361504690858952
_cell_angle_alpha    108.04640498789986
_cell_angle_beta     101.53397308298372
_cell_angle_gamma    98.49884145508325

_space_group_name_H-M_alt    "P 1"
_space_group_IT_number       1

loop_
  _space_group_symop_operation_xyz
  'x, y, z'

loop_
  _atom_site_type_symbol
  _atom_site_label
  _atom_site_symmetry_multiplicity
  _atom_site_fract_x
  _atom_site_fract_y
  _atom_site_fract_z
  _atom_site_occupancy
  Dy  Dy1       1.0  0.6338396668098341  0.7151409685297878  0.0975227486469238  1.0000
  Dy  Dy2       1.0  0.3661597346778578  0.28485712346575554  0.9024775851940986  1.0000
  Cu  Cu1       1.0  0.9999998835816442  2.635454983101936e-06  0.4999990565762502  1.0000
  H   H1        1.0  0.431495937295118  0.5898794097487325  0.34239181507996364  1.0000
  H   H2        1.0  0.5685045414197489  0.4101218793730794  0.6576113268006765  1.0000
  H   H3        1.0  0.6096641528432443  0.5909292201808042  0.4784774247356438  1.0000
  H   H4        1.0  0.39033627274893956  0.40907636815574483  0.521527834949886  1.0000
  H   H5        1.0  0.5141895948134376  0.6485413038647465  0.6749877979804211  1.0000
  H   H6        1.0  0.48580380108651167  0.35146546756461566  0.3250134825076501  1.0000
  H   H7        1.0  0.32358966871072437  0.7575034681310769  0.7013314982036505  1.0000
  H   H8        1.0  0.6764080681351317  0.2425033349180552  0.29866764423770314  1.0000
  H   H9        1.0  0.9861421008326942  0.5350283372656861  0.19634509095970293  1.0000
  H   H10       1.0  0.01385842046212101  0.4649644238060944  0.8036503069158982  1.0000
  H   H11       1.0  0.8936659469807466  0.4713815970486053  0.30670976082132034  1.0000
  H   H12       1.0  0.10633744698803582  0.52861544912804  0.6932880836923161  1.0000
  H   H13       1.0  0.03888465353652761  0.9029118306343308  0.14498374311557444  1.0000
  H   H14       1.0  0.9611124872514409  0.09708846553814253  0.8550152102559919  1.0000
  H   H15       1.0  0.06661839424109679  0.8541375946963969  0.2669129014920274  1.0000
  H   H16       1.0  0.9333841806363167  0.14586591262725795  0.7330875989712595  1.0000
  H   H17       1.0  0.1641391770332703  0.17227571831275415  0.25959991353703776  1.0000
  H   H18       1.0  0.8358609904231074  0.827720211750517  0.7403998821592311  1.0000
  H   H19       1.0  0.006910189459894403  0.267595567022596  0.3548288157210706  1.0000
  H   H20       1.0  0.9930899461637708  0.7324003982303964  0.6451692257775719  1.0000
  H   H21       1.0  0.5248243165229028  0.0044395919073636  0.14367606334889163  1.0000
  H   H22       1.0  0.4751689008230214  0.9955574332744065  0.856324138643977  1.0000
  H   H23       1.0  0.6671145225203933  0.015988854302378303  0.2771806700215508  1.0000
  H   H24       1.0  0.33288590844540505  0.984012487604026  0.7228198405626428  1.0000
  H   H25       1.0  0.2410639084913626  0.5655457242106365  0.10823613272636129  1.0000
  H   H26       1.0  0.7589366074298312  0.4344512832912956  0.8917640142505691  1.0000
  H   H27       1.0  0.2998805893044789  0.7130601870070592  0.23287827612344364  1.0000
  H   H28       1.0  0.7001209401784648  0.2869400880005983  0.7671211704978518  1.0000
  C   C1        1.0  0.6866770488623148  0.7680610047567031  0.4209555817041279  1.0000
  C   C2        1.0  0.3133259594353177  0.23193924560115414  0.579044906432557  1.0000
  C   C3        1.0  0.5269496241488483  0.6587253418907864  0.4376549331281012  1.0000
  C   C4        1.0  0.47305265001281077  0.3412770352096147  0.5623478473509637  1.0000
  C   C5        1.0  0.40553779629750153  0.7256239576249685  0.525884793917335  1.0000
  C   C6        1.0  0.5944625656292571  0.27438170109103777  0.4741169573729421  1.0000
  C   C7        1.0  0.26731140293561134  0.8107943821541069  0.4797380465215326  1.0000
  C   C8        1.0  0.7326892597069018  0.1892124067851455  0.5202614247529667  1.0000
  C   C9        1.0  0.4142662223214728  0.709398406621368  0.6394828865078424  1.0000
  C   C10       1.0  0.5857333577202438  0.2906094316217676  0.3605185258283683  1.0000
  C   C11       1.0  0.7104910050897004  0.3784777762152061  0.11527649624291306  1.0000
  C   C12       1.0  0.28950917828302647  0.6215181362532008  0.8847241765521687  1.0000
  C   C13       1.0  0.9171760207609623  0.4369007010555634  0.20980801066593813  1.0000
  C   C14       1.0  0.08282524521256825  0.5630941621089606  0.7901907210674253  1.0000
  C   C15       1.0  0.04629436410910868  0.3284026282481988  0.1959924566832285  1.0000
  C   C16       1.0  0.9537018480725054  0.6715900660140833  0.8040068334367093  1.0000
  C   C17       1.0  0.1446451832085032  0.3026541291954531  0.08786396582673466  1.0000
  C   C18       1.0  0.8553528085035467  0.6973396706402825  0.9121340857928146  1.0000
  C   C19       1.0  0.0741728306701077  0.2529635506317618  0.2743882463761977  1.0000
  C   C20       1.0  0.9258237299763296  0.7470302210691885  0.7256113950244014  1.0000
  O   O1        1.0  0.7328924370915219  0.7451878046082357  0.31550897839408526  1.0000
  O   O2        1.0  0.2671084272944952  0.2548102803323645  0.6844915198635135  1.0000
  O   O3        1.0  0.7751768614416791  0.8774278178838134  0.5216221596048174  1.0000
  O   O4        1.0  0.2248268437855927  0.12257458735137312  0.4783790310931906  1.0000
  O   O5        1.0  0.23097092279186174  0.8003225522892805  0.36343127264530756  1.0000
  O   O6        1.0  0.7690391823375365  0.19968638438739825  0.6365681334923466  1.0000
  O   O7        1.0  0.18890522330076465  0.8896220666638258  0.5619597131533851  1.0000
  O   O8        1.0  0.8110907021819427  0.11038366600158159  0.43803891359072367  1.0000
  O   O9        1.0  0.6400997662448661  0.2452349696435192  0.05767920884099455  1.0000
  O   O10       1.0  0.3598989542295359  0.754760949879824  0.9423212995375111  1.0000
  O   O11       1.0  0.6063073303746478  0.4695435314432359  0.0945988012884555  1.0000
  O   O12       1.0  0.3936931537138337  0.5304535112484247  0.9053995914908484  1.0000
  O   O13       1.0  0.14839239010441932  0.39312894220999084  0.027737090381791143  1.0000
  O   O14       1.0  0.8516063144536332  0.6068669949082093  0.9722625408979014  1.0000
  O   O15       1.0  0.22656954639007412  0.19629634405559673  0.05599472312217564  1.0000
  O   O16       1.0  0.7734306051499473  0.8036996036025316  0.94400419547528  1.0000
  O   O17       1.0  0.9668733293994479  0.8718157582109428  0.20036510562954404  1.0000
  O   O18       1.0  0.0331259871328484  0.1281866681890591  0.799635591818742  1.0000
  O   O19       1.0  0.5781282583908052  0.9485795497249184  0.1935566069421243  1.0000
  O   O20       1.0  0.4218725900788557  0.05141855281054572  0.8064430142166614  1.0000
  O   O21       1.0  0.3298084841567785  0.664263316257191  0.1505531151642074  1.0000
  O   O22       1.0  0.6701919999317028  0.33573372643446925  0.8494452776150965  1.0000
