data_image0
_chemical_formula_structural       Cu2H52C40N4O12
_chemical_formula_sum              "Cu2 H52 C40 N4 O12"
_cell_length_a       9.700370507692293
_cell_length_b       10.945190974536581
_cell_length_c       11.115797841646252
_cell_angle_alpha    105.77170952172226
_cell_angle_beta     96.75407399819083
_cell_angle_gamma    108.29554003053363

_space_group_name_H-M_alt    "P 1"
_space_group_IT_number       1

loop_
  _space_group_symop_operation_xyz
  'x, y, z'

loop_
  _atom_site_type_symbol
  _atom_site_label
  _atom_site_symmetry_multiplicity
  _atom_site_fract_x
  _atom_site_fract_y
  _atom_site_fract_z
  _atom_site_occupancy
  Cu  Cu1       1.0  0.7861415134981514  0.5053034653507495  0.39097235168338773  1.0000
  Cu  Cu2       1.0  0.2138566080545417  0.494697813862409  0.6090290190361856  1.0000
  H   H1        1.0  0.9898307789525804  0.27320055633691703  0.6874700856216478  1.0000
  H   H2        1.0  0.010171508892561486  0.7268007514221252  0.3125308302186339  1.0000
  H   H3        1.0  0.7555838456834537  0.3286899844585847  0.8401479926834481  1.0000
  H   H4        1.0  0.24442047542223116  0.6713032108263163  0.15985004667484756  1.0000
  H   H5        1.0  0.7038235242056459  0.42579282901427723  0.749731970248888  1.0000
  H   H6        1.0  0.29618187263650236  0.5742084861635843  0.25027197261677964  1.0000
  H   H7        1.0  0.895868131305825  0.4579976981380796  0.8080221257873673  1.0000
  H   H8        1.0  0.10414114109627796  0.5419975550369996  0.1919778881640183  1.0000
  H   H9        1.0  0.6368364130128157  0.0830201114685494  0.5017000951884683  1.0000
  H   H10       1.0  0.3631598913962009  0.9169791396582098  0.4982969388676395  1.0000
  H   H11       1.0  0.549674335578203  0.20138324210351038  0.5604544393801802  1.0000
  H   H12       1.0  0.4503257342360242  0.7986150154353308  0.4395427214256954  1.0000
  H   H13       1.0  0.5961630148514843  0.10776106460896528  0.6567673813488071  1.0000
  H   H14       1.0  0.40383577568729834  0.8922392247899468  0.3432283945472819  1.0000
  H   H15       1.0  0.7096855830604909  0.5883615252404653  0.9739963011329279  1.0000
  H   H16       1.0  0.2903130453415487  0.41163570396081184  0.02600133047617704  1.0000
  H   H17       1.0  0.8864655127876305  0.6966551817952435  0.07785024705139414  1.0000
  H   H18       1.0  0.11353350811639727  0.3033430620781771  0.9221485992938979  1.0000
  H   H19       1.0  0.7833278763165269  0.7619934569417522  0.9844280225554556  1.0000
  H   H20       1.0  0.2166711403948796  0.2380047832008357  0.015571721972463568  1.0000
  H   H21       1.0  0.7798588465374082  0.9467826109936935  0.1845558966031858  1.0000
  H   H22       1.0  0.22014186710716643  0.05321463434593449  0.8154410584749527  1.0000
  H   H23       1.0  0.8942675763973681  0.892408600355651  0.27957498230475136  1.0000
  H   H24       1.0  0.10573352974919462  0.10758965965612076  0.7204231875095813  1.0000
  H   H25       1.0  0.72230447212754  0.8996062558205579  0.316724711741834  1.0000
  H   H26       1.0  0.2776984721258202  0.1003940509317616  0.6832733038228369  1.0000
  H   H27       1.0  0.6071587839729276  0.502057098858124  0.5912980907218852  1.0000
  H   H28       1.0  0.3928389492703985  0.49794316941371614  0.4087011670788741  1.0000
  H   H29       1.0  0.5589760156626581  0.669066210396842  0.7633737553146175  1.0000
  H   H30       1.0  0.44101898431515707  0.33093505020502795  0.23662728292745774  1.0000
  H   H31       1.0  0.8441276069452996  0.9876969975809188  0.6464599965329753  1.0000
  H   H32       1.0  0.15587444634196856  0.012306351972789297  0.35353874704073  1.0000
  H   H33       1.0  0.8894537214745669  0.8046291766447097  0.48342993468963147  1.0000
  H   H34       1.0  0.1105536152438731  0.1953691093971699  0.5165715946275782  1.0000
  H   H35       1.0  0.6241949615896232  0.010094853801966496  0.7840647357243427  1.0000
  H   H36       1.0  0.37580549653396395  0.9899044146781932  0.21593453800035428  1.0000
  H   H37       1.0  0.597536612612231  0.9016073287680229  0.8784787843191069  1.0000
  H   H38       1.0  0.4024652953088007  0.09839297551135927  0.12151822223710698  1.0000
  H   H39       1.0  0.8972087238324846  0.10019400401908025  0.8673888121514323  1.0000
  H   H40       1.0  0.10279083074713917  0.8998082960699917  0.13261388413017264  1.0000
  H   H41       1.0  0.8802925445470534  0.9881260943381277  0.9574275338332113  1.0000
  H   H42       1.0  0.11970596950762062  0.011876199547181398  0.042575051622556294  1.0000
  H   H43       1.0  0.6060257352137626  0.16876670747812034  0.9426772039763591  1.0000
  H   H44       1.0  0.3939713667770872  0.8312345841854093  0.05731956500425624  1.0000
  H   H45       1.0  0.6076272560755029  0.35142918150042846  0.12694374647577428  1.0000
  H   H46       1.0  0.3923663150679955  0.648571061956353  0.8730550680216494  1.0000
  H   H47       1.0  0.013202386974484191  0.17640887688260418  0.15831539686645607  1.0000
  H   H48       1.0  0.9867994065991752  0.8235964920808027  0.8416865635364275  1.0000
  H   H49       1.0  0.9895836047632613  0.354350271661076  0.34103763502619694  1.0000
  H   H50       1.0  0.010413224936108561  0.6456530282196765  0.6589650453314704  1.0000
  H   H51       1.0  0.4856228493904523  0.6456386938726338  0.12538910589992006  1.0000
  H   H52       1.0  0.5143736769985594  0.3543585042669762  0.8746127949706446  1.0000
  C   C1        1.0  0.8347562206054278  0.34505365419745704  0.5487987791635403  1.0000
  C   C2        1.0  0.1652452570800022  0.654945601832331  0.45120509630011435  1.0000
  C   C3        1.0  0.7849663219359612  0.2712472705031814  0.6460411777974925  1.0000
  C   C4        1.0  0.21503437913074916  0.7287499636439634  0.3539584718285269  1.0000
  C   C5        1.0  0.7846532352080261  0.37835365026831613  0.7682633383408726  1.0000
  C   C6        1.0  0.21535033610518878  0.6216456293614809  0.2317380642265689  1.0000
  C   C7        1.0  0.6323398997292173  0.1590368849326254  0.5875434301625971  1.0000
  C   C8        1.0  0.36765848153707736  0.8409623748708338  0.41245472372780495  1.0000
  C   C9        1.0  0.6806699506272056  0.6287299597955992  0.22425389098891194  1.0000
  C   C10       1.0  0.3193260898755669  0.3712713070100336  0.7757472580789937  1.0000
  C   C11       1.0  0.6960652716349073  0.7296531548160485  0.14808623730275625  1.0000
  C   C12       1.0  0.3039316640265853  0.2703450729190138  0.8519132855734951  1.0000
  C   C13       1.0  0.7744917685892504  0.6916352739302097  0.03973927055059789  1.0000
  C   C14       1.0  0.22550581090258964  0.3083619416056465  0.9602600465979235  1.0000
  C   C15       1.0  0.7789141164940787  0.8759642822563047  0.23833287584900373  1.0000
  C   C16       1.0  0.2210873821544723  0.12403499242761735  0.7616665087015235  1.0000
  C   C17       1.0  0.6578488012259384  0.6105200195379508  0.6068018870613372  1.0000
  C   C18       1.0  0.34215532053337216  0.3894833312308065  0.3931997727119094  1.0000
  C   C19       1.0  0.6315565124295189  0.7059997511560849  0.7033483171194702  1.0000
  C   C20       1.0  0.3684459207818662  0.29400460187729033  0.296654335738303  1.0000
  C   C21       1.0  0.6985809052249792  0.8446580474600508  0.7213423316021731  1.0000
  C   C22       1.0  0.3014169733845904  0.1553452660861154  0.2786586632160705  1.0000
  C   C23       1.0  0.7913609964358487  0.8811279849778657  0.6390935388739649  1.0000
  C   C24       1.0  0.20864311274559813  0.11887535459840852  0.3609108154471627  1.0000
  C   C25       1.0  0.8149116862665196  0.7802317887166266  0.5464405980633842  1.0000
  C   C26       1.0  0.18509202622031043  0.2197705324566712  0.4535634397041761  1.0000
  C   C27       1.0  0.6757045671746625  0.9509511371769648  0.8269312258183205  1.0000
  C   C28       1.0  0.3242978702293442  0.049053219587236185  0.17307052885682586  1.0000
  C   C29       1.0  0.8235435984153554  0.047637596286577384  0.9205916610660482  1.0000
  C   C30       1.0  0.1764551753529345  0.9523626781890255  0.07940770756054144  1.0000
  C   C31       1.0  0.811294649806598  0.1545110995014909  0.032476962918025286  1.0000
  C   C32       1.0  0.18870332218723024  0.8454871307065164  0.9675235689666833  1.0000
  C   C33       1.0  0.6959107399609722  0.20533969665398638  0.0270999794159579  1.0000
  C   C34       1.0  0.3040862040857633  0.7946585385427268  0.9728977470950395  1.0000
  C   C35       1.0  0.694315735475776  0.30821300984631955  0.13219158354433347  1.0000
  C   C36       1.0  0.30568135393720297  0.6917882706247269  0.8678078799841626  1.0000
  C   C37       1.0  0.9200784763011143  0.21097925502245818  0.14707110026020587  1.0000
  C   C38       1.0  0.07991964944419998  0.7890220279215256  0.8529293722767477  1.0000
  C   C39       1.0  0.910041728873125  0.3116834203002767  0.24930342833759764  1.0000
  C   C40       1.0  0.08995510921148749  0.6883198870421336  0.7506974556548157  1.0000
  N   N1        1.0  0.7485795025193627  0.6465175168923453  0.5296263383455369  1.0000
  N   N2        1.0  0.2514255102060403  0.3534827910750167  0.47037459341868265  1.0000
  N   N3        1.0  0.798259485512233  0.3596284134384575  0.24234725207222138  1.0000
  N   N4        1.0  0.20173446974800419  0.6403728372288243  0.7576545735266507  1.0000
  O   O1        1.0  0.7361637423706142  0.37997858084244734  0.49332714915906445  1.0000
  O   O2        1.0  0.26383472808731767  0.6200155918920129  0.5066714399804225  1.0000
  O   O3        1.0  0.9648524878908588  0.3680850487280409  0.5330365671099456  1.0000
  O   O4        1.0  0.035146188300551245  0.6319203053549031  0.46696416263281276  1.0000
  O   O5        1.0  0.8878841629883142  0.20837756055405518  0.6759393366255465  1.0000
  O   O6        1.0  0.11211785928007598  0.7916176790412875  0.3240527160840044  1.0000
  O   O7        1.0  0.8030893476234766  0.6247368245361143  0.2790505264503124  1.0000
  O   O8        1.0  0.19690460763676038  0.3752644261311672  0.7209512991485596  1.0000
  O   O9        1.0  0.5523574873316122  0.5579323511826431  0.22748220970313324  1.0000
  O   O10       1.0  0.4476450392640245  0.44206691851255897  0.7725199802211051  1.0000
  O   O11       1.0  0.548061162340737  0.7162219641209971  0.09457321675764518  1.0000
  O   O12       1.0  0.4519368054604628  0.28377626235617726  0.9054282133096904  1.0000
