data_image0
_chemical_formula_structural       Zn4H34C76N16Cl5F5
_chemical_formula_sum              "Zn4 H34 C76 N16 Cl5 F5"
_cell_length_a       14.629658028563677
_cell_length_b       16.862491402697056
_cell_length_c       19.03592416608246
_cell_angle_alpha    105.74212163934263
_cell_angle_beta     115.2057202368713
_cell_angle_gamma    97.85019271387533

_space_group_name_H-M_alt    "P 1"
_space_group_IT_number       1

loop_
  _space_group_symop_operation_xyz
  'x, y, z'

loop_
  _atom_site_type_symbol
  _atom_site_label
  _atom_site_symmetry_multiplicity
  _atom_site_fract_x
  _atom_site_fract_y
  _atom_site_fract_z
  _atom_site_occupancy
  Zn  Zn1       1.0  0.6209147339267389  0.10810690425729771  0.00590525610498821  1.0000
  Zn  Zn2       1.0  0.3567173116992209  0.909987423802676  0.0038061987284267037  1.0000
  Zn  Zn3       1.0  0.6263224522605384  0.9821252657381478  0.11216541011504691  1.0000
  Zn  Zn4       1.0  0.3663266582741187  0.0211102031001076  0.8904963642645852  1.0000
  H   H1        1.0  0.6607843886728587  0.9951523695785198  0.8679550643064216  1.0000
  H   H2        1.0  0.30908819371433793  0.037427007038139906  0.1298903231941608  1.0000
  H   H3        1.0  0.8376958565190266  0.10617712190269661  0.29372594754636344  1.0000
  H   H4        1.0  0.11304939377446026  0.009097208124494202  0.789638387171493  1.0000
  H   H5        1.0  0.09086474133397358  0.8514405664851168  0.9302789503331114  1.0000
  H   H6        1.0  0.808986352456657  0.2756692766118504  0.15584224952890213  1.0000
  H   H7        1.0  0.2866855988219613  0.1658524836973996  0.9754298803678837  1.0000
  H   H8        1.0  0.6509779162043545  0.12982550426850287  0.2644256827497955  1.0000
  H   H9        1.0  0.30889758459853317  0.08913763908479673  0.2576676415445363  1.0000
  H   H10       1.0  0.6491419085600755  0.182323634534427  0.38529115764981736  1.0000
  H   H11       1.0  0.7507729364431269  0.22615826359182728  0.5377386005130019  1.0000
  H   H12       1.0  0.7567753535301803  0.22756339193958303  0.6698207988860004  1.0000
  H   H13       1.0  0.3251015795841212  0.10316389900930288  0.6198253612569147  1.0000
  H   H14       1.0  0.2141128869254133  0.0841311629286992  0.33880163865239155  1.0000
  H   H15       1.0  0.8040426299755482  0.37110007002652884  0.2986439706471701  1.0000
  H   H16       1.0  0.038143849848353235  0.2417489763481839  0.3910559370926022  1.0000
  H   H17       1.0  0.19923209470450576  0.3171106199836586  0.5288269115002463  1.0000
  H   H18       1.0  0.3112926505651218  0.4495891500620175  0.6530865275148017  1.0000
  H   H19       1.0  0.34219451368415593  0.6035473839516785  0.7333642033992974  1.0000
  H   H20       1.0  0.9379391581939276  0.6523595858233905  0.5098340650897839  1.0000
  H   H21       1.0  0.8279335509741443  0.5207088567639957  0.3839655895074189  1.0000
  H   H22       1.0  0.3512572703543455  0.6071712629890912  0.038139852124842825  1.0000
  H   H23       1.0  0.2632220537280006  0.45218050520224307  0.9783703434101411  1.0000
  H   H24       1.0  0.6436979557590022  0.5745295043306131  0.2775860970893973  1.0000
  H   H25       1.0  0.27829052692195677  0.3060620093775767  0.9688385449645479  1.0000
  H   H26       1.0  0.5736530098777521  0.4119887647882265  0.1994720532106129  1.0000
  H   H27       1.0  0.9549676320976064  0.6712195338128525  0.7793553157869227  1.0000
  H   H28       1.0  0.3295708719894889  0.061576388788267905  0.7218535705374406  1.0000
  H   H29       1.0  0.8605676988396596  0.8363086048689894  0.6400272534482169  1.0000
  H   H30       1.0  0.7927568259019468  0.6498836688076394  0.8248695324673534  1.0000
  H   H31       1.0  0.9079097907635755  0.9458887903618985  0.7728994240879173  1.0000
  H   H32       1.0  0.705827513119175  0.7310280065456282  0.8939671211310979  1.0000
  H   H33       1.0  0.6675439387857908  0.17922130706929806  0.8690673417472964  1.0000
  H   H34       1.0  0.6236591156310853  0.29118550338732513  0.1246473495712479  1.0000
  C   C1        1.0  0.6633010163745257  0.9629072564838098  0.9105934833970438  1.0000
  C   C2        1.0  0.29539639908082177  0.755924967220686  0.7700532929888196  1.0000
  C   C3        1.0  0.5004754146680669  0.7553422304064625  0.14131234250988456  1.0000
  C   C4        1.0  0.49851011502794057  0.1302159809049428  0.7648047859584821  1.0000
  C   C5        1.0  0.5444018587400451  0.24748747187991424  0.08417525730131806  1.0000
  C   C6        1.0  0.39337820669448587  0.053736472149715594  0.1514983553868632  1.0000
  C   C7        1.0  0.8196826423138577  0.1359348846507302  0.24727164974716234  1.0000
  C   C8        1.0  0.12638204360430202  0.9746891728161983  0.832165695764708  1.0000
  C   C9        1.0  0.11495669258522409  0.893641840425154  0.9032536353321204  1.0000
  C   C10       1.0  0.8032189409292771  0.22228088433790563  0.17688410864509754  1.0000
  C   C11       1.0  0.3723567467806889  0.18430745456071665  0.006938490668204588  1.0000
  C   C12       1.0  0.33037432196710625  0.7675978124041478  0.8542346338017736  1.0000
  C   C13       1.0  0.5675652881809157  0.10051807208500212  0.22007740581773305  1.0000
  C   C14       1.0  0.44659727239935887  0.2645444088316395  0.06351259535988872  1.0000
  C   C15       1.0  0.4789740559299888  0.10266856674779491  0.23155895994427314  1.0000
  C   C16       1.0  0.8514964381403873  0.22286667515621167  0.2585186503945778  1.0000
  C   C17       1.0  0.05267608457782564  0.9212043041027653  0.8405523260889892  1.0000
  C   C18       1.0  0.38467628661062053  0.11496605373687882  0.3150884774725641  1.0000
  C   C19       1.0  0.47894707819235555  0.13181490953351732  0.3112756338233639  1.0000
  C   C20       1.0  0.5750388974250101  0.1669510082809609  0.3864516245115226  1.0000
  C   C21       1.0  0.579635659528755  0.1776442576964641  0.4635615538112745  1.0000
  C   C22       1.0  0.4839096106721854  0.154169208082827  0.4661605268495207  1.0000
  C   C23       1.0  0.5845528732922889  0.8198114917128053  0.15362149850494694  1.0000
  C   C24       1.0  0.38527957584412326  0.12543450372044873  0.39096113263699556  1.0000
  C   C25       1.0  0.6778978739671119  0.20651725457007333  0.539683030969684  1.0000
  C   C26       1.0  0.6815100155999402  0.2074096478641039  0.6127793092374033  1.0000
  C   C27       1.0  0.5863293633646054  0.18015745080981557  0.615567595066196  1.0000
  C   C28       1.0  0.48673817012242193  0.1554236397487898  0.5418363831423534  1.0000
  C   C29       1.0  0.39157649164410924  0.1292424049593492  0.5448713635620095  1.0000
  C   C30       1.0  0.29360318351867676  0.10638222160518042  0.46878663916903907  1.0000
  C   C31       1.0  0.2900867231473327  0.1039894869864924  0.39530825351897647  1.0000
  C   C32       1.0  0.5863013361031408  0.1738383831175199  0.6873233357938561  1.0000
  C   C33       1.0  0.49520778262479587  0.14448548308742912  0.6915744438047042  1.0000
  C   C34       1.0  0.41208543664289715  0.08856338290780741  0.7692087009375682  1.0000
  C   C35       1.0  0.39814202697696277  0.1246599996872817  0.6190313538942361  1.0000
  C   C36       1.0  0.8800307184449139  0.37214656050527856  0.3467730438971444  1.0000
  C   C37       1.0  0.915018194944949  0.29844006214953817  0.3359782107337494  1.0000
  C   C38       1.0  0.010460044911674467  0.29878321200868646  0.3994485635539107  1.0000
  C   C39       1.0  0.07336830629323292  0.3722192814181541  0.47224576377141864  1.0000
  C   C40       1.0  0.03849029873651239  0.4476981603929033  0.48203470230498624  1.0000
  C   C41       1.0  0.939519014710477  0.4467665506209714  0.41879207903484433  1.0000
  C   C42       1.0  0.17319049606115997  0.37504367292462604  0.5365039505572752  1.0000
  C   C43       1.0  0.23506563360646732  0.44835789203376913  0.6052590340106646  1.0000
  C   C44       1.0  0.20255533877744367  0.5252833845464123  0.616490543753251  1.0000
  C   C45       1.0  0.4139846846285026  0.7826953220019989  0.09794490924454648  1.0000
  C   C46       1.0  0.1025631656272097  0.5236594184791843  0.5540166637478309  1.0000
  C   C47       1.0  0.06662310524048107  0.5985118454846515  0.5632536780785031  1.0000
  C   C48       1.0  0.965323825409506  0.5953919469264195  0.5008677223723267  1.0000
  C   C49       1.0  0.904746715254646  0.522412077068232  0.4314933043496509  1.0000
  C   C50       1.0  0.2653965822162548  0.6017729102478953  0.6859536245890396  1.0000
  C   C51       1.0  0.23268042099877562  0.6765685647449332  0.6961351802473672  1.0000
  C   C52       1.0  0.1333697095627285  0.6722764694021277  0.6344019533242572  1.0000
  C   C53       1.0  0.4963896066670657  0.673007365302489  0.15288351138496384  1.0000
  C   C54       1.0  0.4295881793010211  0.34939374353256625  0.08239882295103482  1.0000
  C   C55       1.0  0.3307283708549704  0.4431779542132404  0.02691516113837619  1.0000
  C   C56       1.0  0.5846599001000287  0.14780862327058486  0.8441322945175784  1.0000
  C   C57       1.0  0.3388867474974688  0.36196526523330164  0.022036317760139878  1.0000
  C   C58       1.0  0.505364831962595  0.4206201525979766  0.15124101384218142  1.0000
  C   C59       1.0  0.49944124474139795  0.5052489216842702  0.15793025324497734  1.0000
  C   C60       1.0  0.41252958963157493  0.5169587691855783  0.0924730514938901  1.0000
  C   C61       1.0  0.41431905161282856  0.6003403565463614  0.09144414245013614  1.0000
  C   C62       1.0  0.5749980587370873  0.6598328153581718  0.22131551748929468  1.0000
  C   C63       1.0  0.5787238583652509  0.5798433866941721  0.22440311531615006  1.0000
  C   C64       1.0  0.9105478084090493  0.7484090163272867  0.7027622521328071  1.0000
  C   C65       1.0  0.7644916771761598  0.8513895572366792  0.8873539594036399  1.0000
  C   C66       1.0  0.8022626874305346  0.7179091900630041  0.8345149154343189  1.0000
  C   C67       1.0  0.32619337308747726  0.840860674542739  0.7748963280628516  1.0000
  C   C68       1.0  0.7545041462921206  0.7638348124520962  0.8742291396143713  1.0000
  C   C69       1.0  0.8305510088247631  0.8923561737663877  0.8624456931026073  1.0000
  C   C70       1.0  0.8733314328067864  0.8466989639314233  0.8174593640342636  1.0000
  C   C71       1.0  0.8576812906931793  0.7572398932057353  0.8028452544727073  1.0000
  C   C72       1.0  0.9100553961598551  0.7144012582706479  0.7580471268843781  1.0000
  C   C73       1.0  0.9033491745389741  0.8238523814075761  0.6968184239777386  1.0000
  C   C74       1.0  0.9355885625813515  0.8904058783549472  0.7828289575465278  1.0000
  C   C75       1.0  0.6827319793923439  0.8814318821832076  0.9845910949274597  1.0000
  C   C76       1.0  0.7075763178983507  0.8958224018428568  0.9245552646969202  1.0000
  N   N1        1.0  0.6190137291836282  0.9856255348822957  0.959316878588517  1.0000
  N   N2        1.0  0.42938968420659773  0.023615592993351697  0.09812909142981854  1.0000
  N   N3        1.0  0.7556916144296508  0.08769378481726867  0.16547271862366125  1.0000
  N   N4        1.0  0.22501957957617724  0.9781177469641946  0.8850738166586184  1.0000
  N   N5        1.0  0.21841529972977022  0.9280112895205548  0.9298489074735771  1.0000
  N   N6        1.0  0.7466065672442925  0.1416884202342743  0.12159097862845407  1.0000
  N   N7        1.0  0.42314941718738924  0.12543909638446848  0.9947693898544047  1.0000
  N   N8        1.0  0.5366716389545445  0.052183729078336696  0.14035320537523427  1.0000
  N   N9        1.0  0.37609426415732367  0.8515579623887602  0.9042853808790169  1.0000
  N   N10       1.0  0.5494031905685759  0.8774175791087443  0.12017161650124557  1.0000
  N   N11       1.0  0.4440744221253893  0.08163209131003407  0.8440457894760627  1.0000
  N   N12       1.0  0.4407408254115382  0.853442984492574  0.08450782211615154  1.0000
  N   N13       1.0  0.5514243569155611  0.11892436242820276  0.890979363723396  1.0000
  N   N14       1.0  0.3737992745533277  0.8974263979983023  0.8542566319627766  1.0000
  N   N15       1.0  0.6314856869561822  0.9347892871207222  0.006034725724795573  1.0000
  N   N16       1.0  0.5285579013380612  0.16435300283072957  0.041821673568279  1.0000
  Cl  Cl1       1.0  0.3155364683639306  0.6890692200565668  0.8925873368556836  1.0000
  Cl  Cl2       1.0  0.17541104321016832  0.0792860652993497  0.4701212824615766  1.0000
  Cl  Cl3       1.0  0.7166051046224882  0.8312940009371275  0.19997562851422393  1.0000
  Cl  Cl4       1.0  0.8620717607174057  0.0038890039684389022  0.890111694804986  1.0000
  Cl  Cl5       1.0  0.31102518271662666  0.8730707258527561  0.6941630785599955  1.0000
  F   F1        1.0  0.6826706558042163  0.1955287297735779  0.7567788474578806  1.0000
  F   F2        1.0  0.09811851708097648  0.7430953838141221  0.644619779725069  1.0000
  F   F3        1.0  0.6506887582024703  0.7304413034281794  0.2873275368399461  1.0000
  F   F4        1.0  0.31117895693650155  0.7456195934238607  0.06967737993794991  1.0000
  F   F5        1.0  0.7062777734897098  0.8238214463198616  0.021405636403763095  1.0000
