data_image0
_chemical_formula_structural       Cd2H16C24S4Br4N8
_chemical_formula_sum              "Cd2 H16 C24 S4 Br4 N8"
_cell_length_a       5.78861792810058
_cell_length_b       9.620854878097553
_cell_length_c       14.904836391512909
_cell_angle_alpha    101.74189884804156
_cell_angle_beta     90.00039297322726
_cell_angle_gamma    89.99927452637195

_space_group_name_H-M_alt    "P 1"
_space_group_IT_number       1

loop_
  _space_group_symop_operation_xyz
  'x, y, z'

loop_
  _atom_site_type_symbol
  _atom_site_label
  _atom_site_symmetry_multiplicity
  _atom_site_fract_x
  _atom_site_fract_y
  _atom_site_fract_z
  _atom_site_occupancy
  Cd  Cd1       1.0  0.4999985101146578  0.49999857751217996  0.5000004276840997  1.0000
  Cd  Cd2       1.0  8.637692793899997e-06  0.9999978371174978  2.3869260914043247e-06  1.0000
  H   H1        1.0  0.7331547239238603  0.8085957789019815  0.5403848388488585  1.0000
  H   H2        1.0  0.2331641952385226  0.6913899978085211  0.9596179320280528  1.0000
  H   H3        1.0  0.2668405687747111  0.1913961377131344  0.45961060079069693  1.0000
  H   H4        1.0  0.7668431901488332  0.3086145088268282  0.0403893001017934  1.0000
  H   H5        1.0  0.3285707254574177  0.12229776293236226  0.7239240106654563  1.0000
  H   H6        1.0  0.8285616717558995  0.37769876760103227  0.7760737284664785  1.0000
  H   H7        1.0  0.6714072918398344  0.8776984992971323  0.2760653159416009  1.0000
  H   H8        1.0  0.1714284382851616  0.6223068701419835  0.22392896224329922  1.0000
  H   H9        1.0  0.05557598732790579  0.9269102306940199  0.7407496424432054  1.0000
  H   H10       1.0  0.5555735240421528  0.5731000794485511  0.7592561630801101  1.0000
  H   H11       1.0  0.9444141227235434  0.0730849103696869  0.2592435559912687  1.0000
  H   H12       1.0  0.44442004101316007  0.4269098045932083  0.24074711050870692  1.0000
  H   H13       1.0  0.13293649947544142  0.6802708213354692  0.6525431376706481  1.0000
  H   H14       1.0  0.6329494295009467  0.8197303635557419  0.8474696117572833  1.0000
  H   H15       1.0  0.8670691584545338  0.319724160881691  0.3474607742138005  1.0000
  H   H16       1.0  0.3670614108796855  0.18027736749952786  0.1525353791716313  1.0000
  C   C1        1.0  0.9945015131751588  0.5674799314770169  0.4018570955396399  1.0000
  C   C2        1.0  0.4945178219911526  0.9325241763599335  0.09814969242518859  1.0000
  C   C3        1.0  0.0054989622334887  0.4325149713598719  0.5981521730635465  1.0000
  C   C4        1.0  0.5054930183448788  0.0674794175566475  0.9018473501346522  1.0000
  C   C5        1.0  0.5856637427483449  0.8383749269995704  0.5857151669548486  1.0000
  C   C6        1.0  0.0856728470087802  0.6616150531211175  0.9142852205483578  1.0000
  C   C7        1.0  0.41434364263365353  0.16161595777191454  0.41427811820072696  1.0000
  C   C8        1.0  0.9143535411271841  0.3383947712636015  0.08572207059721389  1.0000
  C   C9        1.0  0.5507648696824745  0.9784953880202424  0.6312470029510351  1.0000
  C   C10       1.0  0.050767493076676794  0.5214958357188237  0.8687568445791101  1.0000
  C   C11       1.0  0.44921660291985427  0.0214890281250888  0.36875210377753836  1.0000
  C   C12       1.0  0.9492364370658777  0.4785183442221594  0.131243663941305  1.0000
  C   C13       1.0  0.3589414960301339  0.013566829998971698  0.6877431181470472  1.0000
  C   C14       1.0  0.8589342434750902  0.4864326042763665  0.8122604441403142  1.0000
  C   C15       1.0  0.6410676167856549  0.9864336089647451  0.31225147848346074  1.0000
  C   C16       1.0  0.1410731417681887  0.5135825677579221  0.18774489723220003  1.0000
  C   C17       1.0  0.20662560213851577  0.904622970933282  0.6964242218094226  1.0000
  C   C18       1.0  0.7066219268481717  0.5953746493374014  0.8035807959918841  1.0000
  C   C19       1.0  0.7933679630764914  0.09536364772449699  0.30356981964242646  1.0000
  C   C20       1.0  0.293366455662202  0.40463204006422154  0.1964227100265532  1.0000
  C   C21       1.0  0.2500255760421055  0.7673655922051664  0.6481252137003963  1.0000
  C   C22       1.0  0.7500285112864092  0.7326349147823948  0.8518809526868125  1.0000
  C   C23       1.0  0.7499852643463001  0.2326326938236605  0.3518711002627199  1.0000
  C   C24       1.0  0.2499806016342774  0.26737063357540336  0.1481277643435206  1.0000
  S   S1        1.0  0.7418115892602584  0.6233937620095062  0.37625205655684374  1.0000
  S   S2        1.0  0.2418159517824421  0.8766025880053119  0.12374514127094466  1.0000
  S   S3        1.0  0.2581975237493808  0.37659175532037636  0.623744517543777  1.0000
  S   S4        1.0  0.758186250902753  0.1234052125514111  0.8762551625227317  1.0000
  Br  Br1       1.0  0.7657688314968993  0.11937401888176419  0.6134882220176792  1.0000
  Br  Br2       1.0  0.26578609472384335  0.3806260535990518  0.8865139112892848  1.0000
  Br  Br3       1.0  0.23421436843960214  0.8806190288238229  0.3865026762043087  1.0000
  Br  Br4       1.0  0.734198832706781  0.619380665588082  0.11348758595702442  1.0000
  N   N1        1.0  0.1776509118528011  0.5238326846213963  0.41782662892408245  1.0000
  N   N2        1.0  0.6776575710807079  0.9761683375651983  0.08217108993579808  1.0000
  N   N3        1.0  0.8223495634954999  0.47615495589226225  0.5821702366110628  1.0000
  N   N4        1.0  0.3223515417194136  0.023838411315722393  0.9178283985517057  1.0000
  N   N5        1.0  0.4363288566664281  0.7349223649843636  0.593775958195117  1.0000
  N   N6        1.0  0.9363478544299754  0.7650674206288598  0.9062243891779148  1.0000
  N   N7        1.0  0.5636560708689585  0.2650737384272546  0.4062240818577578  1.0000
  N   N8        1.0  0.06366298599778732  0.23493396081046566  0.093778388254627  1.0000
