data_image0
_chemical_formula_structural       Al2H12C48N12O36
_chemical_formula_sum              "Al2 H12 C48 N12 O36"
_cell_length_a       4.163027004179042
_cell_length_b       29.306985631169994
_cell_length_c       29.307131336946902
_cell_angle_alpha    119.99845458326315
_cell_angle_beta     90.00032774299297
_cell_angle_gamma    90.0006925892794

_space_group_name_H-M_alt    "P 1"
_space_group_IT_number       1

loop_
  _space_group_symop_operation_xyz
  'x, y, z'

loop_
  _atom_site_type_symbol
  _atom_site_label
  _atom_site_symmetry_multiplicity
  _atom_site_fract_x
  _atom_site_fract_y
  _atom_site_fract_z
  _atom_site_occupancy
  Al  Al1       1.0  4.519541965919999e-05  0.5000010120535592  0.5000009307921259  1.0000
  Al  Al2       1.0  0.9992150622274422  0.16666123759093657  0.8333406457537436  1.0000
  H   H1        1.0  0.5094732789976747  0.2157431565486119  0.6367331685509326  1.0000
  H   H2        1.0  0.490203119748692  0.3632570064175553  0.784235503621332  1.0000
  H   H3        1.0  0.49031356490848305  0.3034228242518109  0.5490645594629909  1.0000
  H   H4        1.0  0.5097171868755481  0.4509152687359333  0.6965576908192048  1.0000
  H   H5        1.0  0.5095509680414593  0.9209611232849608  0.7842407498793661  1.0000
  H   H6        1.0  0.4901558226879673  0.9209758086324696  0.6367394443350703  1.0000
  H   H7        1.0  0.49032277208216624  0.7456302543177029  0.6965655522925543  1.0000
  H   H8        1.0  0.5096974926792653  0.7456354096862015  0.5490704643986675  1.0000
  H   H9        1.0  0.5094944100032137  0.3632809412431044  0.07901923295758445  1.0000
  H   H10       1.0  0.4902066933122527  0.21578241529110187  0.07904468530001195  1.0000
  H   H11       1.0  0.4903112316769977  0.4509528767038231  0.2543735482851871  1.0000
  H   H12       1.0  0.5096756775833384  0.30345174179484496  0.2543648589257117  1.0000
  C   C1        1.0  0.5000722726125063  0.4596282179304436  0.41923726015050977  1.0000
  C   C2        1.0  0.5000555243225547  0.45960975882551475  0.5403787391256145  1.0000
  C   C3        1.0  0.5000653181968175  0.5807668530657111  0.5403861318600889  1.0000
  C   C4        1.0  0.4993704787707288  0.20707242299596357  0.7929551892504135  1.0000
  C   C5        1.0  0.49933906367161995  0.08586700959000368  0.792930603773712  1.0000
  C   C6        1.0  0.49936093739160725  0.20705014195723231  0.9141346106460658  1.0000
  C   C7        1.0  0.4995944957219436  0.23698766716985617  0.7630204532045681  1.0000
  C   C8        1.0  0.4945887369476338  0.21136326050898901  0.7074459763900406  1.0000
  C   C9        1.0  0.502364865432014  0.23818578742965688  0.6795673653124296  1.0000
  C   C10       1.0  0.499845488561462  0.29348715875918424  0.7064955924466787  1.0000
  C   C11       1.0  0.4972486547643413  0.32042459675040635  0.7617956596209723  1.0000
  C   C12       1.0  0.5048314784240376  0.29255808907925707  0.7886314704534952  1.0000
  C   C13       1.0  0.49986528428328103  0.3213242778004357  0.6786560205981544  1.0000
  C   C14       1.0  0.4999738782721721  0.34533539912752775  0.6546526448026738  1.0000
  C   C15       1.0  0.5000032822006375  0.37316622828018337  0.626816633164445  1.0000
  C   C16       1.0  0.49715456040274114  0.3462518442586457  0.5715289835560142  1.0000
  C   C17       1.0  0.5047770194533427  0.3741274281632982  0.5447046080314237  1.0000
  C   C18       1.0  0.5000260765787489  0.4296837160874529  0.5702983425444897  1.0000
  C   C19       1.0  0.4952625001356949  0.45527928481618557  0.6258565927841531  1.0000
  C   C20       1.0  0.5028766151502778  0.4284551411479922  0.6537300361156466  1.0000
  C   C21       1.0  0.49958340537423845  0.026020544543037216  0.7630136115417727  1.0000
  C   C22       1.0  0.49464192424780856  0.9960621613667299  0.7886309634028306  1.0000
  C   C23       1.0  0.5023906957402673  0.941358864408073  0.7618027868645072  1.0000
  C   C24       1.0  0.4998397742101942  0.9129954862574506  0.7065030776696659  1.0000
  C   C25       1.0  0.4972221065039052  0.9413658287611072  0.6795722134616327  1.0000
  C   C26       1.0  0.5048035473315338  0.9960666575193853  0.7074408434431588  1.0000
  C   C27       1.0  0.4998104908267109  0.8573216702524603  0.6786602594524991  1.0000
  C   C28       1.0  0.4999089123250968  0.8093078378346944  0.6546547799046465  1.0000
  C   C29       1.0  0.49996130088869944  0.7536430761501759  0.6268233799710143  1.0000
  C   C30       1.0  0.49714542169299136  0.7252668378096271  0.653736924023917  1.0000
  C   C31       1.0  0.5047884798295145  0.670570220970596  0.6258634389518534  1.0000
  C   C32       1.0  0.5000467736965604  0.6406102577988547  0.5703075497770128  1.0000
  C   C33       1.0  0.4952673102954037  0.6705725340893308  0.5447109366555694  1.0000
  C   C34       1.0  0.5028559359394575  0.7252692647345638  0.5715341179575473  1.0000
  C   C35       1.0  0.4996228169931101  0.23699220927436213  0.9739830009790751  1.0000
  C   C36       1.0  0.4946281852093931  0.29256533404738855  0.003932398946574265  1.0000
  C   C37       1.0  0.502379617484749  0.3204474924154894  0.0586330813025029  1.0000
  C   C38       1.0  0.499844873329046  0.2935220112576147  0.08700840972952048  1.0000
  C   C39       1.0  0.4972381433122237  0.23822102938559914  0.05864876591443389  1.0000
  C   C40       1.0  0.5048553788019988  0.21138265704426118  0.003947752557372965  1.0000
  C   C41       1.0  0.4998279377641097  0.321359735771331  0.14268158326593286  1.0000
  C   C42       1.0  0.4999187826832168  0.3453643219507255  0.19069743563768066  1.0000
  C   C43       1.0  0.4999498886626839  0.3731965100022093  0.24636113268223878  1.0000
  C   C44       1.0  0.4971374847930718  0.42848599086268985  0.27473567549303357  1.0000
  C   C45       1.0  0.5047951914255363  0.4553064273950652  0.3294321442734542  1.0000
  C   C46       1.0  0.5000506038717274  0.4297090583919497  0.3593932592900302  1.0000
  C   C47       1.0  0.495272333760937  0.3741510484177936  0.3294310678433873  1.0000
  C   C48       1.0  0.5028462890482999  0.34628035887476466  0.27473396925583415  1.0000
  N   N1        1.0  0.4843046399007989  0.1528743622217091  0.6727259150752259  1.0000
  N   N2        1.0  0.5151174840504923  0.3273005490220837  0.8471168414922018  1.0000
  N   N3        1.0  0.5154228984993594  0.33937596708930307  0.48625081145964083  1.0000
  N   N4        1.0  0.484662754016412  0.5137343739376163  0.6606090443409229  1.0000
  N   N5        1.0  0.4844228199500549  0.01981924679346021  0.8471167010982014  1.0000
  N   N6        1.0  0.5151132763776899  0.019814168556891276  0.6727005603068434  1.0000
  N   N7        1.0  0.5154247033159223  0.6468680378937747  0.6606184105183104  1.0000
  N   N8        1.0  0.48468149769131225  0.646871317972433  0.4862551702390544  1.0000
  N   N9        1.0  0.484339707985157  0.32728549548122726  0.9801622099893662  1.0000
  N   N10       1.0  0.5150986020342785  0.15289865948858494  0.980208664891343  1.0000
  N   N11       1.0  0.5154489856068593  0.513760786042141  0.3531344314724194  1.0000
  N   N12       1.0  0.48469014243181613  0.33939265508153926  0.353127902638782  1.0000
  O   O1        1.0  0.7396978500782652  0.5582386377575045  0.5470275500379314  1.0000
  O   O2        1.0  0.7397072572973898  0.48879538448407084  0.4417676619028724  1.0000
  O   O3        1.0  0.7396999913491272  0.45297411789493214  0.511214331153667  1.0000
  O   O4        1.0  0.2604328737512347  0.5582393148260322  0.5112182150479825  1.0000
  O   O5        1.0  0.2604331450667274  0.4887787877991413  0.5470202193109159  1.0000
  O   O6        1.0  0.2604391338605936  0.45298426795163466  0.4417622579206223  1.0000
  O   O7        1.0  0.7388748968703067  0.1778500650101192  0.8915939959173044  1.0000
  O   O8        1.0  0.7389061862830387  0.21372912110027895  0.8221523195333305  1.0000
  O   O9        1.0  0.7388746944956708  0.10840726813368194  0.7862742816842854  1.0000
  O   O10       1.0  0.25970580956767014  0.21370747838788842  0.8916243362184345  1.0000
  O   O11       1.0  0.25969044628637056  0.10837689068414842  0.8220999305775294  1.0000
  O   O12       1.0  0.25971419851930483  0.17790191950283657  0.7862934773168745  1.0000
  O   O13       1.0  0.27608272393273847  0.1284008180172406  0.6814090744100909  1.0000
  O   O14       1.0  0.6794808200226611  0.13436182252023326  0.6359840254869978  1.0000
  O   O15       1.0  0.7233699392242768  0.3186463777555203  0.8716081546192953  1.0000
  O   O16       1.0  0.31990565090305273  0.3640371448906166  0.865605512386594  1.0000
  O   O17       1.0  0.7236606586657642  0.34808845239788866  0.46179915940233224  1.0000
  O   O18       1.0  0.3207717752233563  0.30256156805369017  0.46773726011033995  1.0000
  O   O19       1.0  0.27644249886310496  0.5381950738572456  0.6519049013065156  1.0000
  O   O20       1.0  0.6793495276167788  0.5322383153754088  0.6974178582976974  1.0000
  O   O21       1.0  0.2762372288787205  0.052980663685943175  0.871596213856847  1.0000
  O   O22       1.0  0.6795641058294991  0.0015768780117254777  0.8656214363952017  1.0000
  O   O23       1.0  0.7233815426586077  0.05295715090916516  0.6813560637798374  1.0000
  O   O24       1.0  0.31991486784370693  0.0015674908783510342  0.6359606758706775  1.0000
  O   O25       1.0  0.7236826788625661  0.6137074569556372  0.651911289600626  1.0000
  O   O26       1.0  0.3207481520264679  0.6651631851876514  0.6974261965914862  1.0000
  O   O27       1.0  0.2764681565570513  0.613705378139059  0.46179412133964337  1.0000
  O   O28       1.0  0.6793815480801371  0.6651731986739262  0.46774993215883826  1.0000
  O   O29       1.0  0.2761247953392782  0.31859395971918747  0.947001592782513  1.0000
  O   O30       1.0  0.679464036204365  0.3640349134928085  0.9983940785920423  1.0000
  O   O31       1.0  0.7233228068938684  0.1284031130728137  0.9470620030992194  1.0000
  O   O32       1.0  0.3198700772923503  0.13441332765112415  0.99845992603354  1.0000
  O   O33       1.0  0.7236837641502304  0.538213001931659  0.3862975167589083  1.0000
  O   O34       1.0  0.320785732576958  0.5322735881013826  0.33483354185357667  1.0000
  O   O35       1.0  0.27644847263986344  0.34809176617875437  0.3862887437095636  1.0000
  O   O36       1.0  0.6793831233177059  0.3025868384216963  0.33482650746302056  1.0000
