data_image0
_chemical_formula_structural       Ag2H10C8S4N8
_chemical_formula_sum              "Ag2 H10 C8 S4 N8"
_cell_length_a       7.351169451272854
_cell_length_b       7.621710418224424
_cell_length_c       8.509569090051016
_cell_angle_alpha    77.40828119169564
_cell_angle_beta     82.1131036324245
_cell_angle_gamma    61.44081581317744

_space_group_name_H-M_alt    "P 1"
_space_group_IT_number       1

loop_
  _space_group_symop_operation_xyz
  'x, y, z'

loop_
  _atom_site_type_symbol
  _atom_site_label
  _atom_site_symmetry_multiplicity
  _atom_site_fract_x
  _atom_site_fract_y
  _atom_site_fract_z
  _atom_site_occupancy
  Ag  Ag1       1.0  0.4378278496266077  0.053773796888435796  0.18868616756434883  1.0000
  Ag  Ag2       1.0  0.5622015110798482  0.9462173528460912  0.8113503017230034  1.0000
  H   H1        1.0  0.7940676652388561  0.13508318421809662  0.1516207485155476  1.0000
  H   H2        1.0  0.20593945944094103  0.8649186773745827  0.8483688792687336  1.0000
  H   H3        1.0  0.03477952272898216  0.42251117873490074  0.7814076238640981  1.0000
  H   H4        1.0  0.9652050843914849  0.5774841304038176  0.2185698266439574  1.0000
  H   H5        1.0  0.6403314930377276  0.3779506153913843  0.5903632013782671  1.0000
  H   H6        1.0  0.3596576964779599  0.6220488159275065  0.40962373400278557  1.0000
  H   H7        1.0  0.7825039249715429  0.519446323521052  0.5612206584322267  1.0000
  H   H8        1.0  0.21748023038306738  0.48055159123308755  0.4387728612307385  1.0000
  H   H9        1.0  0.5273673312977537  0.6203961739491319  0.653384319551755  1.0000
  H   H10       1.0  0.4726170569842979  0.3796019370674912  0.3466009142782626  1.0000
  C   C1        1.0  0.6768195795986074  0.28814976091442907  0.9195396502424771  1.0000
  C   C2        1.0  0.32316579306476717  0.7118539468403781  0.08045984809124467  1.0000
  C   C3        1.0  0.9382618801945456  0.3600563265169683  0.8520952036748287  1.0000
  C   C4        1.0  0.06173788962171062  0.6399355147625129  0.1478849974676066  1.0000
  C   C5        1.0  0.6717077369759253  0.4811670953814584  0.6404669276848339  1.0000
  C   C6        1.0  0.328274408799686  0.5188324271005557  0.35952415101650825  1.0000
  C   C7        1.0  0.21443664955537403  0.06666024740025019  0.5428129275772025  1.0000
  C   C8        1.0  0.7855773308577267  0.9333512139431764  0.457203882205235  1.0000
  S   S1        1.0  0.44977436101798673  0.2812971380339063  0.9170302751693956  1.0000
  S   S2        1.0  0.550209095554301  0.7187001879327823  0.08298810199239885  1.0000
  S   S3        1.0  0.11418655765132972  0.161882694762788  0.3657238998169845  1.0000
  S   S4        1.0  0.8858424766397803  0.8381162482252407  0.6342995355136127  1.0000
  N   N1        1.0  0.8098897302938611  0.21565612528638675  0.03943303343098853  1.0000
  N   N2        1.0  0.1901006240689186  0.7843520410985576  0.9605617454906866  1.0000
  N   N3        1.0  0.971721658337536  0.2594650009618746  0.0003320276604056944  1.0000
  N   N4        1.0  0.02827727184411082  0.7405312148682626  0.999653397392564  1.0000
  N   N5        1.0  0.7616804202176579  0.37970521996989254  0.7967900175258793  1.0000
  N   N6        1.0  0.23830370186160382  0.6202926667467492  0.2032046858275011  1.0000
  N   N7        1.0  0.28364696961085656  0.997365394145618  0.6734428577618631  1.0000
  N   N8        1.0  0.7163874867100829  0.0026332964719272965  0.326584838531197  1.0000
