data_image0
_chemical_formula_structural       Ag4H20C16S8N8O12
_chemical_formula_sum              "Ag4 H20 C16 S8 N8 O12"
_cell_length_a       7.804041171010716
_cell_length_b       10.255701276560533
_cell_length_c       10.676854794510703
_cell_angle_alpha    107.4362304068358
_cell_angle_beta     90.00006949040826
_cell_angle_gamma    90.00014738385288

_space_group_name_H-M_alt    "P 1"
_space_group_IT_number       1

loop_
  _space_group_symop_operation_xyz
  'x, y, z'

loop_
  _atom_site_type_symbol
  _atom_site_label
  _atom_site_symmetry_multiplicity
  _atom_site_fract_x
  _atom_site_fract_y
  _atom_site_fract_z
  _atom_site_occupancy
  Ag  Ag1       1.0  0.4321471911568651  0.9155586908793867  0.3746149938685478  1.0000
  Ag  Ag2       1.0  0.932146789385385  0.08444162698683749  0.12538423398641643  1.0000
  Ag  Ag3       1.0  0.5678526107435218  0.0844425937184639  0.6253858669695376  1.0000
  Ag  Ag4       1.0  0.06785301251148469  0.9155586332077448  0.8746144598821461  1.0000
  H   H1        1.0  0.5484001695691842  0.9060540308122215  0.862760039190441  1.0000
  H   H2        1.0  0.04840125093350169  0.0939461286188035  0.6372418374326615  1.0000
  H   H3        1.0  0.45160091371467087  0.09394520973149409  0.13724023549615083  1.0000
  H   H4        1.0  0.9515998323519098  0.9060531143003202  0.3627603111471985  1.0000
  H   H5        1.0  0.5889262400408127  0.7289316961251798  0.7782394780094037  1.0000
  H   H6        1.0  0.0889280588498949  0.2710675373902589  0.7217593593778134  1.0000
  H   H7        1.0  0.4110735618548631  0.27106754322924326  0.22175985972953074  1.0000
  H   H8        1.0  0.911073024433179  0.7289317019657416  0.2782399783621443  1.0000
  H   H9        1.0  0.41468328809506266  0.8169704100087073  0.727255913561976  1.0000
  H   H10       1.0  0.9146834629480763  0.1830286062444202  0.7727459614964263  1.0000
  H   H11       1.0  0.5853177951887928  0.18302883053500094  0.2727443611246159  1.0000
  H   H12       1.0  0.0853163389479619  0.8169696146452665  0.2272558940061488  1.0000
  H   H13       1.0  0.5161914689956716  0.6087994116300948  0.22638764315185264  1.0000
  H   H14       1.0  0.0161950603046748  0.3912029528382632  0.27361461090885103  1.0000
  H   H15       1.0  0.4838032073559049  0.39120187414916074  0.7736141546287741  1.0000
  H   H16       1.0  0.9838085857586805  0.6087983329520199  0.7263871868789309  1.0000
  H   H17       1.0  0.7013978132978522  0.41922292191129873  0.2931167778189234  1.0000
  H   H18       1.0  0.20139680800003393  0.5807819385618416  0.20688354714039292  1.0000
  H   H19       1.0  0.29859942582736915  0.5807793811481403  0.7068815652534683  1.0000
  H   H20       1.0  0.7986017125153351  0.41922138771473527  0.7931160259559107  1.0000
  C   C1        1.0  0.5440701486729579  0.8263469130952359  0.7680299847075889  1.0000
  C   C2        1.0  0.0440690930270975  0.1736532344956956  0.7319709480564499  1.0000
  C   C3        1.0  0.45593221599828837  0.17365232745004994  0.23197028998002625  1.0000
  C   C4        1.0  0.9559294274827367  0.8263460072325659  0.26803026357472975  1.0000
  C   C5        1.0  0.6694855970661421  0.7457747659442404  0.5178722330357673  1.0000
  C   C6        1.0  0.16948522754560708  0.2542277329767658  0.9821285490979933  1.0000
  C   C7        1.0  0.33051164205551936  0.2542244745947429  0.48212804164775497  1.0000
  C   C8        1.0  0.8305158557421776  0.7457735516226619  0.01787231174110815  1.0000
  C   C9        1.0  0.5846560957604795  0.6220662540645775  0.31789492104621087  1.0000
  C   C10       1.0  0.08465692797811639  0.3779362776024797  0.18210650533532663  1.0000
  C   C11       1.0  0.41534370613953797  0.37793604899800937  0.6821034220282274  1.0000
  C   C12       1.0  0.9153454366962847  0.6220650058108177  0.817893418558171  1.0000
  C   C13       1.0  0.6782702773274282  0.5242868125299508  0.3510236410098173  1.0000
  C   C14       1.0  0.17826754033418976  0.47571696903067817  0.14897635396027203  1.0000
  C   C15       1.0  0.3217333687328221  0.47571446850950855  0.6489744089914353  1.0000
  C   C16       1.0  0.8217296987906267  0.524284314376317  0.851023569929133  1.0000
  S   S1        1.0  0.69239074721726  0.8822305114123448  0.6631262536636982  1.0000
  S   S2        1.0  0.192390958215519  0.11777204503265179  0.8368755019738218  1.0000
  S   S3        1.0  0.3076090546803841  0.11776974996994478  0.3368733771514983  1.0000
  S   S4        1.0  0.8076101250730474  0.8822292407544837  0.1631262958119138  1.0000
  S   S5        1.0  0.7642106055178246  0.590463439518466  0.5039604124867411  1.0000
  S   S6        1.0  0.26420693876364243  0.4095403132162474  0.996039876955308  1.0000
  S   S7        1.0  0.23579175915502049  0.4095378415194161  0.4960376375134957  1.0000
  S   S8        1.0  0.7357903003631421  0.5904619922186071  0.003960340010351608  1.0000
  N   N1        1.0  0.3287515398126785  0.7798951071580121  0.04436769551288226  1.0000
  N   N2        1.0  0.8287534240353551  0.22010495878324576  0.4556332412175125  1.0000
  N   N3        1.0  0.6712469806983421  0.22010515541040124  0.9556328722479179  1.0000
  N   N4        1.0  0.17124765925046864  0.7798953037883223  0.5443673265453342  1.0000
  N   N5        1.0  0.5797602038527855  0.7471582594735793  0.41251392459967223  1.0000
  N   N6        1.0  0.07976045740005591  0.25284426015124234  0.0874874939675578  1.0000
  N   N7        1.0  0.4202395980476012  0.2528430251242709  0.5874869362384132  1.0000
  N   N8        1.0  0.9202406258896971  0.7471580464760451  0.9125136599478058  1.0000
  O   O1        1.0  0.36676648406099577  0.7443846376981185  0.14608762649159251  1.0000
  O   O2        1.0  0.8667657568133437  0.25561756579398315  0.3539139570611525  1.0000
  O   O3        1.0  0.633234599228757  0.2556176689291689  0.8539135274237709  1.0000
  O   O4        1.0  0.13323404508901152  0.7443847408317267  0.6460871968531877  1.0000
  O   O5        1.0  0.29434779106492204  0.9047010546242475  0.057618490558219465  1.0000
  O   O6        1.0  0.794346669578303  0.09529892550906281  0.442381454314699  1.0000
  O   O7        1.0  0.705653292220113  0.0952992067596199  0.9423811402580002  1.0000
  O   O8        1.0  0.2056518509319432  0.9047013358716497  0.5576181764994672  1.0000
  O   O9        1.0  0.32400714996489904  0.6916836290335342  0.9336352316516285  1.0000
  O   O10       1.0  0.8240112497582003  0.3083161850452285  0.5663658548202548  1.0000
  O   O11       1.0  0.6759888077701461  0.30831561269157953  0.0663659799775047  1.0000
  O   O12       1.0  0.1759936776905846  0.6916840787187795  0.43363564989229547  1.0000
