data_image0
_chemical_formula_structural       Zr6H28C57Cl2O42
_chemical_formula_sum              "Zr6 H28 C57 Cl2 O42"
_cell_length_a       14.75776319534715
_cell_length_b       14.768771236966955
_cell_length_c       14.779089667593627
_cell_angle_alpha    60.04079405315427
_cell_angle_beta     59.88729906224845
_cell_angle_gamma    59.94733376319879

_space_group_name_H-M_alt    "P 1"
_space_group_IT_number       1

loop_
  _space_group_symop_operation_xyz
  'x, y, z'

loop_
  _atom_site_type_symbol
  _atom_site_label
  _atom_site_symmetry_multiplicity
  _atom_site_fract_x
  _atom_site_fract_y
  _atom_site_fract_z
  _atom_site_occupancy
  Zr  Zr1       1.0  0.8745528821737311  0.8826623748231981  0.6222907444906911  1.0000
  Zr  Zr2       1.0  0.11616724129308413  0.11988019896821103  0.38247642433557155  1.0000
  Zr  Zr3       1.0  0.11463840304241991  0.8811818464933056  0.6229525730782298  1.0000
  Zr  Zr4       1.0  0.8757872430302954  0.12039410959530993  0.38289340365750496  1.0000
  Zr  Zr5       1.0  0.11611280039701205  0.8808088066381005  0.38292223645787277  1.0000
  Zr  Zr6       1.0  0.8750394678305681  0.12210662836193363  0.6216486753939136  1.0000
  H   H1        1.0  0.09178084861739687  0.718533549538094  0.5968956512232422  1.0000
  H   H2        1.0  0.09349020790127582  0.0922804606173742  0.21996487772177883  1.0000
  H   H3        1.0  0.08877157820922589  0.09594882766835874  0.5966623833077519  1.0000
  H   H4        1.0  0.7123375455169237  0.09695848397491603  0.5963368768029724  1.0000
  H   H5        1.0  0.8431917771194931  0.5902037487777677  0.6420678903291374  1.0000
  H   H6        1.0  0.13068117580362323  0.5999626715851178  0.34661401520062174  1.0000
  H   H7        1.0  0.8468755902196319  0.4212960954392032  0.6363215712782447  1.0000
  H   H8        1.0  0.5764129183196757  0.8598826484140787  0.9143612462394586  1.0000
  H   H9        1.0  0.6001494678248134  0.1278518334890182  0.934060289199486  1.0000
  H   H10       1.0  0.40884420159487456  0.8587423432662861  0.08673271875022691  1.0000
  H   H11       1.0  0.13315371390530134  0.8447640271095266  0.09479007764655024  1.0000
  H   H12       1.0  0.8462620835967982  0.14034785678254738  0.09565101673133829  1.0000
  H   H13       1.0  0.12928312935635225  0.8473741132302522  0.9256636280503655  1.0000
  H   H14       1.0  0.5899755768125985  0.4270187309111648  0.6379599603363529  1.0000
  H   H15       1.0  0.5955761859827148  0.42783320956486665  0.343959422474164  1.0000
  H   H16       1.0  0.4212556203393093  0.5978866205711597  0.6356395923619544  1.0000
  H   H17       1.0  0.03305604511194118  0.5643257770942256  0.7274960217475197  1.0000
  H   H18       1.0  0.0862787863823088  0.3846785925703743  0.7123701122752591  1.0000
  H   H19       1.0  0.04632492430535249  0.22384036150668862  0.059784101689004415  1.0000
  H   H20       1.0  0.0951764218743707  0.21223864028494432  0.8798603391562949  1.0000
  H   H21       1.0  0.5837068030260965  0.14246078019247935  0.3523640867175927  1.0000
  H   H22       1.0  0.5933054863937741  0.8458666475211987  0.6369136227611634  1.0000
  H   H23       1.0  0.4159935745909138  0.13868494396068337  0.3534303980156466  1.0000
  H   H24       1.0  0.22768273947227163  0.2836151557917647  0.39678384418547097  1.0000
  H   H25       1.0  0.33014340462686675  0.25897423243006307  0.0447370934673401  1.0000
  H   H26       1.0  0.9048560863518701  0.26301827536483574  0.8380589054131063  1.0000
  H   H27       1.0  0.3117720732282905  0.5364929589791105  0.4037281981553065  1.0000
  H   H28       1.0  0.29900505362555674  0.9037880220795385  0.7507376407904686  1.0000
  C   C1        1.0  0.9909932569022358  0.7011173491732806  0.4995227360855665  1.0000
  C   C2        1.0  0.305543914356406  0.9952894005927462  0.203418894600219  1.0000
  C   C3        1.0  0.9924835073321177  0.3106800675528733  0.49574765026807904  1.0000
  C   C4        1.0  0.6943838647989009  0.9987279933144894  0.8093568612057779  1.0000
  C   C5        1.0  0.9880348087277255  0.702946701225784  0.8110180930037884  1.0000
  C   C6        1.0  0.6957243240135612  0.9974680433074637  0.4977129399463465  1.0000
  C   C7        1.0  0.9911299047714691  0.307464342780925  0.2021765364259664  1.0000
  C   C8        1.0  0.3034002200060114  0.9976291427437618  0.4997754879052179  1.0000
  C   C9        1.0  0.3057989498819822  0.7025018966768786  0.49759054574438716  1.0000
  C   C10       1.0  0.9913184140295076  0.9984749805669677  0.8104196136158135  1.0000
  C   C11       1.0  0.6976091837952365  0.3114322017498382  0.49606250154369746  1.0000
  C   C12       1.0  0.9926857201381266  0.9951362308552024  0.20295804203405504  1.0000
  C   C13       1.0  0.9932029615216392  0.41351765256747086  0.4914933260246386  1.0000
  C   C14       1.0  0.9890970418807752  0.6025906485600815  0.49631768404607596  1.0000
  C   C15       1.0  0.0741173775690669  0.46395346949510236  0.40773700496889387  1.0000
  C   C16       1.0  0.9073200835037343  0.5540059243076173  0.5776212349604889  1.0000
  C   C17       1.0  0.07011283740144604  0.558848790335908  0.411343747372122  1.0000
  C   C18       1.0  0.9096141837994196  0.4605086354751722  0.5744031285807055  1.0000
  C   C19       1.0  0.4079420258853687  0.9954610841247274  0.10387546105418738  1.0000
  C   C20       1.0  0.5951511969473982  0.9967367255261126  0.9123166684566186  1.0000
  C   C21       1.0  0.4624283955348361  0.07120053060280183  0.062221217581942795  1.0000
  C   C22       1.0  0.5428412288889104  0.9194376133036287  0.9555575769246616  1.0000
  C   C23       1.0  0.5556111544829605  0.07167458020534684  0.9659686667164278  1.0000
  C   C24       1.0  0.4496418893611818  0.9192103364898472  0.05067597989319236  1.0000
  C   C25       1.0  0.9881360702125122  0.99703914298631  0.9138242527944839  1.0000
  C   C26       1.0  0.9907050484593611  0.9936423171315029  0.10354430907099771  1.0000
  C   C27       1.0  0.9065737404399812  0.08003894542491702  0.9620125992211185  1.0000
  C   C28       1.0  0.0705983792126048  0.9101980692679561  0.05676452807630754  1.0000
  C   C29       1.0  0.9086345692144134  0.07737366574769315  0.05676270064967783  1.0000
  C   C30       1.0  0.06867981344387891  0.9120665580251882  0.9627215412829384  1.0000
  C   C31       1.0  0.41063180985536735  0.605422470231666  0.49191116525283024  1.0000
  C   C32       1.0  0.600251784836459  0.41617644195071785  0.4927058671222894  1.0000
  C   C33       1.0  0.460635339194212  0.5594072174495467  0.4071416119649596  1.0000
  C   C34       1.0  0.5528287513708677  0.46441941723774255  0.5743134037314874  1.0000
  C   C35       1.0  0.5554333181793041  0.46487626334071325  0.4084451170844261  1.0000
  C   C36       1.0  0.45866371875978745  0.5586268994738434  0.5735251121433932  1.0000
  C   C37       1.0  0.9858028872328499  0.6012906156512943  0.9125461534401607  1.0000
  C   C38       1.0  0.014596078062190484  0.49853243920736656  0.9018588258544395  1.0000
  C   C39       1.0  0.9549210489799403  0.6083215687615962  0.014644885969261317  1.0000
  C   C40       1.0  0.04001799046645268  0.4895849475591377  0.7996420133937077  1.0000
  C   C41       1.0  0.06834463447528819  0.38890959038717204  0.791612141644407  1.0000
  C   C42       1.0  0.988112805541256  0.4097984440119833  0.10142243922028642  1.0000
  C   C43       1.0  0.9546183546303837  0.5115425850856357  0.11062970135460404  1.0000
  C   C44       1.0  0.017187983292885317  0.4006634694680359  0.9978887202961317  1.0000
  C   C45       1.0  0.04691765500335519  0.2981938372481991  0.9867517400694509  1.0000
  C   C46       1.0  0.07246640094536612  0.2921151970425911  0.8859929821777681  1.0000
  C   C47       1.0  0.4059810471131512  0.9943000071807191  0.4999181226441535  1.0000
  C   C48       1.0  0.596114770717996  0.9957742872968186  0.49657724355527216  1.0000
  C   C49       1.0  0.45693451564439186  0.9091648371673671  0.5796332109500284  1.0000
  C   C50       1.0  0.5469311700116465  0.07851256788632811  0.41611679414861397  1.0000
  C   C51       1.0  0.5520169657621782  0.9109152211384954  0.5768587933178039  1.0000
  C   C52       1.0  0.4525189323179433  0.07737133037258566  0.4179623351776627  1.0000
  C   C53       1.0  0.16506045042667236  0.4317933794942236  0.30728581783735354  1.0000
  C   C54       1.0  0.4338879999157684  0.1457269731818513  0.12127080833662514  1.0000
  C   C55       1.0  0.8125856681592865  0.17104154382952433  0.9201543250410251  1.0000
  C   C56       1.0  0.422280339978343  0.6081530849129351  0.3098439524519208  1.0000
  C   C57       1.0  0.4211069233672687  0.8101767329594693  0.6659278708709238  1.0000
  Cl  Cl1       1.0  0.9083501780917232  0.5220489240819718  0.23845643849580267  1.0000
  Cl  Cl2       1.0  0.913175831720217  0.7344250432131929  0.02682686571284166  1.0000
  O   O1        1.0  0.9151039821528852  0.7388558963740126  0.5781321241624795  1.0000
  O   O2        1.0  0.2643715993591512  0.0726676100173053  0.2433747834605313  1.0000
  O   O3        1.0  0.07085319897224451  0.2681822004716068  0.42083592736280906  1.0000
  O   O4        1.0  0.7320487860301835  0.9236299902772417  0.767788355555645  1.0000
  O   O5        1.0  0.06715214289094026  0.7389332706165489  0.7718705206829596  1.0000
  O   O6        1.0  0.7340325583433296  0.07562357831088949  0.42199921685987346  1.0000
  O   O7        1.0  0.9149121674267778  0.2675678666672283  0.2408676166974288  1.0000
  O   O8        1.0  0.2631745885017551  0.9208486841897497  0.575988029173139  1.0000
  O   O9        1.0  0.2638012153130236  0.7403440790709797  0.4228916611084372  1.0000
  O   O10       1.0  0.9168240688867543  0.07761489782668461  0.7686157241609877  1.0000
  O   O11       1.0  0.7354488814783054  0.27021929082128804  0.5746203022119403  1.0000
  O   O12       1.0  0.07059987897448426  0.9191088680173464  0.24125980645769834  1.0000
  O   O13       1.0  0.06971084165983418  0.9224144334410058  0.7701136855334879  1.0000
  O   O14       1.0  0.7344498543740628  0.2691127879863659  0.421959293081585  1.0000
  O   O15       1.0  0.9173073631216229  0.07408181594583141  0.24053146644762788  1.0000
  O   O16       1.0  0.26354822872296063  0.7390453261216124  0.5772088376972846  1.0000
  O   O17       1.0  0.9121723739500923  0.741545633895541  0.7708642708716837  1.0000
  O   O18       1.0  0.26130418676544315  0.07797676199648859  0.4260539914659844  1.0000
  O   O19       1.0  0.07074457477299503  0.2677979414207953  0.23746597486829296  1.0000
  O   O20       1.0  0.7342714443279234  0.9217574540975663  0.5755505738029782  1.0000
  O   O21       1.0  0.7339714234762907  0.07602336917760537  0.7685689273148667  1.0000
  O   O22       1.0  0.07010244953603702  0.7385597410074639  0.42460292001850763  1.0000
  O   O23       1.0  0.26372401251970967  0.9208645550621599  0.2405012072681246  1.0000
  O   O24       1.0  0.9167084165496179  0.27084022275656133  0.5744838102935788  1.0000
  O   O25       1.0  0.792902547040157  0.06977770603468524  0.5691044015873389  1.0000
  O   O26       1.0  0.06242063345822403  0.06884801469688992  0.569833866150418  1.0000
  O   O27       1.0  0.06400597329070482  0.06742133839065906  0.30024699289543116  1.0000
  O   O28       1.0  0.06287869829449037  0.7988462918085658  0.5708201054248078  1.0000
  O   O29       1.0  0.14517638164543475  0.9509456160390429  0.45339235387554316  1.0000
  O   O30       1.0  0.9462886050293376  0.9511472304869744  0.4529374933174776  1.0000
  O   O31       1.0  0.946444740661093  0.1502720340275375  0.4520851290913086  1.0000
  O   O32       1.0  0.9452131365241313  0.9522717737389002  0.651701645913704  1.0000
  O   O33       1.0  0.2518793450304742  0.33644370718784705  0.32351540240320276  1.0000
  O   O34       1.0  0.1673936767696064  0.4963691404155171  0.2143624807953302  1.0000
  O   O35       1.0  0.3635476649176751  0.2509307593955868  0.09216892912944992  1.0000
  O   O36       1.0  0.479149273145886  0.11654511991989122  0.18561296621840023  1.0000
  O   O37       1.0  0.830221366524711  0.27000355728460335  0.8509696238964819  1.0000
  O   O38       1.0  0.7229593902542321  0.16285549434649485  0.9516882556385721  1.0000
  O   O39       1.0  0.34251894890105933  0.5754565258606307  0.3250234926955996  1.0000
  O   O40       1.0  0.4664115940217643  0.6645552956140436  0.21884162300964508  1.0000
  O   O41       1.0  0.3363785507254988  0.8246475412027652  0.7612962164467661  1.0000
  O   O42       1.0  0.4719255842554306  0.7182111005014634  0.6577134995923755  1.0000
