data_image0
_chemical_formula_structural       Cs2K2H4C22N8O8
_chemical_formula_sum              "Cs2 K2 H4 C22 N8 O8"
_cell_length_a       8.366075350396702
_cell_length_b       9.29227197627133
_cell_length_c       10.618828622008406
_cell_angle_alpha    115.25313922400186
_cell_angle_beta     100.86168870553925
_cell_angle_gamma    104.34879456954894

_space_group_name_H-M_alt    "P 1"
_space_group_IT_number       1

loop_
  _space_group_symop_operation_xyz
  'x, y, z'

loop_
  _atom_site_type_symbol
  _atom_site_label
  _atom_site_symmetry_multiplicity
  _atom_site_fract_x
  _atom_site_fract_y
  _atom_site_fract_z
  _atom_site_occupancy
  Cs  Cs1       1.0  0.8698982435877981  0.19736490387985134  0.6005208264166202  1.0000
  Cs  Cs2       1.0  0.13010230207286358  0.8026337022229553  0.39948029382717465  1.0000
  K   K1        1.0  0.41290590345907674  0.3757546741168198  0.7893673804464572  1.0000
  K   K2        1.0  0.5871016976175769  0.6242464606161705  0.2106385539709664  1.0000
  H   H1        1.0  0.12671753652801243  0.42886712725837833  0.986233076666622  1.0000
  H   H2        1.0  0.8732856955371843  0.5711352964491141  0.013765152593748628  1.0000
  H   H3        1.0  0.15420802068717182  0.5827489605547883  0.9573489374265451  1.0000
  H   H4        1.0  0.8457869433176697  0.4172509490462488  0.042646186070122445  1.0000
  C   C1        1.0  0.07206318686770172  0.8950330595393439  0.8464234664971572  1.0000
  C   C2        1.0  0.92793834323723  0.1049681106150615  0.1535796942854334  1.0000
  C   C3        1.0  0.16809446077002835  0.8986984471819852  0.9784958088729498  1.0000
  C   C4        1.0  0.8319041482719954  0.1013014529453429  0.021504562104709638  1.0000
  C   C5        1.0  0.3275297253622114  0.052936170180842596  0.05701299524823612  1.0000
  C   C6        1.0  0.6724725248420287  0.9470637018741429  0.9429869653681637  1.0000
  C   C7        1.0  0.3301875352649191  0.1455316796326684  0.9761459363658179  1.0000
  C   C8        1.0  0.6698147162309739  0.8544681986218592  0.023855910198001637  1.0000
  C   C9        1.0  0.17228267340676953  0.040926696399857604  0.8390063637500091  1.0000
  C   C10       1.0  0.8277171495712707  0.9590731954032775  0.16099418476512992  1.0000
  C   C11       1.0  0.9105672127229809  0.7707420732667315  0.7424865614740741  1.0000
  C   C12       1.0  0.0894343167361242  0.2292590937879027  0.25751565633480317  1.0000
  C   C13       1.0  0.820291903892695  0.6276517658156777  0.7517281092682923  1.0000
  C   C14       1.0  0.17970863983048  0.3723468309878086  0.24827018205437673  1.0000
  C   C15       1.0  0.8251525473280238  0.7812236889754943  0.6203315723498906  1.0000
  C   C16       1.0  0.17485118051136794  0.2187800338065458  0.37967286353526225  1.0000
  C   C17       1.0  0.45733815880955586  0.1020670602692206  0.18678892979868075  1.0000
  C   C18       1.0  0.542664583293906  0.8979340922616784  0.8132115796002709  1.0000
  C   C19       1.0  0.45491275813298426  0.9984283634240326  0.25328632879138985  1.0000
  C   C20       1.0  0.5450882529694496  0.0015651289249092014  0.7467204951868569  1.0000
  C   C21       1.0  0.6071267113412165  0.2562992847251877  0.260801341039759  1.0000
  C   C22       1.0  0.39286163041948907  0.7436865603640682  0.7391913402062756  1.0000
  N   N1        1.0  0.7380417629436593  0.5056973377363221  0.7520062942596157  1.0000
  N   N2        1.0  0.26195536652573276  0.49429870236462387  0.24798677252816503  1.0000
  N   N3        1.0  0.7498828708733072  0.7855266482640458  0.5178709880259407  1.0000
  N   N4        1.0  0.2501179359031767  0.21447580449092382  0.48213065805429534  1.0000
  N   N5        1.0  0.4678167907908986  0.9200174687666589  0.3141309524974646  1.0000
  N   N6        1.0  0.5321847670631427  0.07999010181706721  0.6858689392806243  1.0000
  N   N7        1.0  0.7358452031694755  0.3789406522196117  0.32933048679932153  1.0000
  N   N8        1.0  0.2641655768567688  0.6210655836937562  0.6706740483909216  1.0000
  O   O1        1.0  0.1219931663419588  0.7907813876748692  0.018732041821394294  1.0000
  O   O2        1.0  0.8780044924631909  0.2092223798279065  0.9812724493500512  1.0000
  O   O3        1.0  0.4427065749025516  0.28412471278189594  0.009575441607239605  1.0000
  O   O4        1.0  0.5572944626573317  0.7158751737968173  0.9904262274190929  1.0000
  O   O5        1.0  0.13992196701087783  0.0751995709191959  0.7373075418389093  1.0000
  O   O6        1.0  0.860077856612989  0.9248003239837175  0.26269394964994325  1.0000
  O   O7        1.0  0.1523430551261598  0.4650226119133833  0.9160976660548671  1.0000
  O   O8        1.0  0.8476460680445327  0.5349747638330412  0.08389376377936485  1.0000
