data_image0
_chemical_formula_structural       Al2H12C22O10
_chemical_formula_sum              "Al2 H12 C22 O10"
_cell_length_a       6.306773167853937
_cell_length_b       8.707709417454048
_cell_length_c       15.259428668866956
_cell_angle_alpha    81.99661366846227
_cell_angle_beta     77.8263623130052
_cell_angle_gamma    76.91448493840447

_space_group_name_H-M_alt    "P 1"
_space_group_IT_number       1

loop_
  _space_group_symop_operation_xyz
  'x, y, z'

loop_
  _atom_site_type_symbol
  _atom_site_label
  _atom_site_symmetry_multiplicity
  _atom_site_fract_x
  _atom_site_fract_y
  _atom_site_fract_z
  _atom_site_occupancy
  Al  Al1       1.0  0.5000073960883926  0.49999138709847546  0.49999940822807803  1.0000
  Al  Al2       1.0  5.350485132301586e-06  0.499992021467591  0.49999863550776535  1.0000
  H   H1        1.0  0.2644845942585691  0.3226788873855568  0.5761647767147409  1.0000
  H   H2        1.0  0.7355203500336458  0.677320262517007  0.4238359278974927  1.0000
  H   H3        1.0  0.22816486416590462  0.0210497172502002  0.5127449676309723  1.0000
  H   H4        1.0  0.7718311958032517  0.9789362052987587  0.48725801395241336  1.0000
  H   H5        1.0  0.705026023373911  0.5249194142903734  0.22974627127430855  1.0000
  H   H6        1.0  0.8696755458548681  0.6647997366042658  0.0776450260512576  1.0000
  H   H7        1.0  0.06589826996725631  0.4347099193278225  0.23035573295558723  1.0000
  H   H8        1.0  0.05795767787854804  0.3134627686267492  0.08172986221097031  1.0000
  H   H9        1.0  0.29497963892697515  0.47508234263882787  0.7702509301474978  1.0000
  H   H10       1.0  0.13032071273853774  0.3352270289799151  0.922348909693284  1.0000
  H   H11       1.0  0.9341093868316578  0.5652800257594633  0.7696413422631923  1.0000
  H   H12       1.0  0.9420333688016386  0.68656511865138  0.9182644876499925  1.0000
  C   C1        1.0  0.6755880139550997  0.5167119925208468  0.6617390800169431  1.0000
  C   C2        1.0  0.82903463245696  0.21282663794296047  0.5029969388840598  1.0000
  C   C3        1.0  0.32442273931177124  0.483278169296305  0.33825507242387703  1.0000
  C   C4        1.0  0.17097256934730615  0.7871596482447245  0.4970017112760632  1.0000
  C   C5        1.0  0.10309594242041703  0.9602495628606958  0.5026511558098081  1.0000
  C   C6        1.0  0.896900492779409  0.03973020212694679  0.49735544251635844  1.0000
  C   C7        1.0  0.5868094669579308  0.5062380856120967  0.19140736975329994  1.0000
  C   C8        1.0  0.6392981474003107  0.513026428302588  0.09765182114917083  1.0000
  C   C9        1.0  0.8611723699496852  0.5551573810430384  0.05159265644644511  1.0000
  C   C10       1.0  0.22392261720257522  0.45763604626900894  0.19173468659509754  1.0000
  C   C11       1.0  0.266557744247642  0.4645078324106677  0.09797097471620482  1.0000
  C   C12       1.0  0.08968475335272076  0.4309768789179386  0.0529128076327936  1.0000
  C   C13       1.0  0.41319340785329917  0.4937722630547229  0.8085849791466446  1.0000
  C   C14       1.0  0.36069158026022297  0.4870003426171792  0.9023414064850643  1.0000
  C   C15       1.0  0.1388311484028222  0.44486701218243485  0.9484020631099742  1.0000
  C   C16       1.0  0.7760748164811064  0.5423764320852057  0.8082606600369717  1.0000
  C   C17       1.0  0.733446584782037  0.5355034570963965  0.9020251178769529  1.0000
  C   C18       1.0  0.9103123692656966  0.5690473441249964  0.9470838252798117  1.0000
  C   C19       1.0  0.38069160792394297  0.48010568326063907  0.23875515027833674  1.0000
  C   C20       1.0  0.47626951257320377  0.4940383332735435  0.049638827418860436  1.0000
  C   C21       1.0  0.6193183008660627  0.5198976261544388  0.7612369737591183  1.0000
  C   C22       1.0  0.5237179129580201  0.5060063192903925  0.950352220408867  1.0000
  O   O1        1.0  0.5410651182811819  0.47268281051581335  0.6234280456752687  1.0000
  O   O2        1.0  0.9600880619879251  0.2842161621952357  0.526684186245383  1.0000
  O   O3        1.0  0.14237699882932733  0.4468554733712864  0.3794455801460901  1.0000
  O   O4        1.0  0.35917548197468835  0.7200847046886096  0.5161674021847988  1.0000
  O   O5        1.0  0.45894009245905226  0.5273096126273131  0.3765671383978032  1.0000
  O   O6        1.0  0.03992352150425668  0.7157715009602013  0.4733120079968743  1.0000
  O   O7        1.0  0.8576419154553463  0.5531240547799143  0.6205491163512208  1.0000
  O   O8        1.0  0.6408274963226006  0.2799049591834192  0.4838334018343035  1.0000
  O   O9        1.0  0.24897789139676973  0.4285991821904673  0.5458538040129073  1.0000
  O   O10       1.0  0.7510263045210835  0.5713917296785168  0.45414615613304954  1.0000
