data_image0
_chemical_formula_structural       ZnH32C26N4O6
_chemical_formula_sum              "Zn1 H32 C26 N4 O6"
_cell_length_a       7.474700207130061
_cell_length_b       8.395942116232654
_cell_length_c       11.38752009023769
_cell_angle_alpha    87.3078002777778
_cell_angle_beta     79.03949972012478
_cell_angle_gamma    66.32459637218196

_space_group_name_H-M_alt    "P 1"
_space_group_IT_number       1

loop_
  _space_group_symop_operation_xyz
  'x, y, z'

loop_
  _atom_site_type_symbol
  _atom_site_label
  _atom_site_symmetry_multiplicity
  _atom_site_fract_x
  _atom_site_fract_y
  _atom_site_fract_z
  _atom_site_occupancy
  Zn  Zn1       1.0  0.9999965333247471  0.9999960650121835  0.9999988883573109  1.0000
  H   H1        1.0  0.2998877396080104  0.6516179691461447  0.887448052040213  1.0000
  H   H2        1.0  0.7001234701825323  0.3483790658709864  0.11255229503129273  1.0000
  H   H3        1.0  0.8373577835737644  0.38387418357237385  0.2458815225011436  1.0000
  H   H4        1.0  0.16262822619112433  0.6161401210041504  0.7541225215358693  1.0000
  H   H5        1.0  0.6451238263642197  0.9528749347675927  0.07982907182469753  1.0000
  H   H6        1.0  0.35486563502675483  0.047127741724907  0.920167028082318  1.0000
  H   H7        1.0  0.4301233148193972  0.3371882714456262  0.9399073233396537  1.0000
  H   H8        1.0  0.569876322679114  0.6628076683457422  0.060101682833064364  1.0000
  H   H9        1.0  0.6825319424127229  0.01848346534931272  0.9453387952056859  1.0000
  H   H10       1.0  0.3174635952579833  0.9815049302119123  0.0546526123324185  1.0000
  H   H11       1.0  0.3034379980591665  0.2563862354015356  0.14495148428811433  1.0000
  H   H12       1.0  0.6965565485393268  0.743602113112651  0.8550514796444091  1.0000
  H   H13       1.0  0.9077642886578231  0.7960949107923839  0.2106408580208453  1.0000
  H   H14       1.0  0.09222304066237541  0.2039038892612979  0.7893644636202666  1.0000
  H   H15       1.0  0.9735017106649833  0.5895976610016617  0.37983039983657824  1.0000
  H   H16       1.0  0.026491914403770467  0.4104113569456658  0.6201684032983792  1.0000
  H   H17       1.0  0.10224493019732248  0.3622703830535414  0.3489357653138399  1.0000
  H   H18       1.0  0.8977389179696968  0.6377400508556123  0.6510766259676829  1.0000
  H   H19       1.0  0.7861969210386093  0.3473186871950702  0.46759059024858374  1.0000
  H   H20       1.0  0.2138036507688453  0.6526811223881879  0.5324146291573584  1.0000
  H   H21       1.0  0.7164404040055244  0.6536305195056258  0.523066360154168  1.0000
  H   H22       1.0  0.2835538885177157  0.34636812332502137  0.4769406448066675  1.0000
  H   H23       1.0  0.5108131444884662  0.7283218742547177  0.44938419766437226  1.0000
  H   H24       1.0  0.48918064127848015  0.2716780579228981  0.5506245853593585  1.0000
  H   H25       1.0  0.5972638783093345  0.2894832489610478  0.3289536222517029  1.0000
  H   H26       1.0  0.40273704553226963  0.710512680162914  0.671052572422454  1.0000
  H   H27       1.0  0.43797866502229243  0.5134819866465818  0.33557423912028383  1.0000
  H   H28       1.0  0.5620164366148329  0.4865179290921873  0.6644326068944723  1.0000
  H   H29       1.0  0.3123999424913677  0.034942674310940405  0.41166470943900185  1.0000
  H   H30       1.0  0.6876416183896978  0.9650589677326592  0.5883198728874391  1.0000
  H   H31       1.0  0.7794787065563966  0.9860910445905943  0.36651805123226217  1.0000
  H   H32       1.0  0.22056517891163444  0.013909193552613901  0.6334776823452586  1.0000
  C   C1        1.0  0.24154248915743887  0.6086458631961805  0.9721611564422901  1.0000
  C   C2        1.0  0.7584449216573077  0.3913502995736237  0.02785391444661664  1.0000
  C   C3        1.0  0.31501407989512836  0.4350833887323446  0.003098953482734118  1.0000
  C   C4        1.0  0.684988577991682  0.5649112519201294  0.9969009026507935  1.0000
  C   C5        1.0  0.243874468556541  0.3908233134371173  0.11674798639062799  1.0000
  C   C6        1.0  0.7561223966528771  0.6091753080587166  0.8832533955730781  1.0000
  C   C7        1.0  0.0955671194209984  0.5210720786356831  0.19444435568617283  1.0000
  C   C8        1.0  0.9044192460631566  0.4789228573975564  0.8055638782321283  1.0000
  C   C9        1.0  0.025527850298793547  0.6905260018130691  0.1539607838245232  1.0000
  C   C10       1.0  0.9744741898100884  0.30947257124169886  0.846030226634518  1.0000
  C   C11       1.0  0.00027813006725098204  0.4849108024886278  0.3154895289357427  1.0000
  C   C12       1.0  0.9997213265836038  0.515100660015392  0.6845110156863825  1.0000
  C   C13       1.0  0.6927063512320046  0.4558889179318085  0.4174339684899593  1.0000
  C   C14       1.0  0.30728313489025527  0.5441149440216577  0.5825796502924874  1.0000
  C   C15       1.0  0.6003394951601422  0.6192093645831277  0.4992622064542758  1.0000
  C   C16       1.0  0.39965516586157435  0.3807944489292723  0.500741040823506  1.0000
  C   C17       1.0  0.5293769495400724  0.4077142484163758  0.38733652082627407  1.0000
  C   C18       1.0  0.4706231155110885  0.5922868505138509  0.6126704766425634  1.0000
  C   C19       1.0  0.10753293771079338  0.022194567908329094  0.242019071119941  1.0000
  C   C20       1.0  0.8924795950366401  0.9778050706394907  0.7579722131635479  1.0000
  C   C21       1.0  0.05233094567739019  0.010825065036932799  0.3753542852235441  1.0000
  C   C22       1.0  0.9476570888217708  0.9891802709497383  0.6246331279550715  1.0000
  C   C23       1.0  0.17553668642004538  0.019899936300653592  0.4511869733469568  1.0000
  C   C24       1.0  0.824476839690519  0.9801035604961611  0.5488022731489295  1.0000
  C   C25       1.0  0.8763139350145083  0.9908241031038756  0.42546558098438675  1.0000
  C   C26       1.0  0.12367695806408818  0.0091747226620384  0.5745225612651838  1.0000
  N   N1        1.0  0.09870710696028343  0.7348662913149298  0.046510361424836305  1.0000
  N   N2        1.0  0.9012971231628767  0.2651218497841866  0.9534930352782072  1.0000
  N   N3        1.0  0.8097355273106075  0.48187059758558337  0.3055729079041569  1.0000
  N   N4        1.0  0.19025378873584484  0.5181359189660952  0.6944283381617424  1.0000
  O   O1        1.0  0.9651138543761701  0.0672418940872674  0.18364192076332841  1.0000
  O   O2        1.0  0.03489574427331377  0.9327552150831552  0.8163516184213009  1.0000
  O   O3        1.0  0.28897388845471267  0.9863967307082933  0.19654040056654054  1.0000
  O   O4        1.0  0.7110402011754076  0.0136016539967017  0.8034392982388069  1.0000
  O   O5        1.0  0.684469043403091  0.0374413473976887  0.03303552795301808  1.0000
  O   O6        1.0  0.31552904680434307  0.9625534637716768  0.9669517749261516  1.0000
